
*** ChampSim Multicore Out-of-Order Simulator ***

Warmup Instructions: 10000000
Simulation Instructions: 50000000
Number of CPUs: 1
LLC sets: 2048
LLC ways: 16
Off-chip DRAM Size: 4096 MB Channels: 1 Width: 64-bit Data Rate: 6400 MT/s
CPU 0 runs traces/SPEC2017/600.perlbench_s-570B.champsimtrace.xz
.xz
CPU 0 Bimodal branch predictor
BTB has LRU replacement policy
ITLB has LRU replacement policy
DTLB has LRU replacement policy
STLB has LRU replacement policy
L1I has LRU replacement policy
IP Table Entries: 256
L1D has LRU replacement policy
IP_Table L2 entries: 256
L2C has LRU replacement policy
Initialize SRRIP state
Heartbeat CPU 0 instructions: 10000003 cycles: 2893561 heartbeat IPC: 3.45595 cumulative IPC: 3.45595 (Simulation time: 0 hr 21 min 44 sec) 

Warmup complete CPU 0 instructions: 10000003 cycles: 2893561 (Simulation time: 0 hr 21 min 44 sec) 

Heartbeat CPU 0 instructions: 20000003 cycles: 18672239 heartbeat IPC: 0.633767 cumulative IPC: 0.633767 (Simulation time: 0 hr 41 min 10 sec) 
Heartbeat CPU 0 instructions: 30000002 cycles: 35027441 heartbeat IPC: 0.611426 cumulative IPC: 0.622396 (Simulation time: 1 hr 1 min 17 sec) 
Heartbeat CPU 0 instructions: 40000000 cycles: 51070866 heartbeat IPC: 0.623308 cumulative IPC: 0.6227 (Simulation time: 1 hr 20 min 29 sec) 
Heartbeat CPU 0 instructions: 50000003 cycles: 66519854 heartbeat IPC: 0.647292 cumulative IPC: 0.628671 (Simulation time: 1 hr 39 min 10 sec) 
Heartbeat CPU 0 instructions: 60000000 cycles: 81718373 heartbeat IPC: 0.657959 cumulative IPC: 0.634318 (Simulation time: 1 hr 55 min 40 sec) 
Finished CPU 0 instructions: 50000001 cycles: 78824813 cumulative IPC: 0.634318 (Simulation time: 1 hr 55 min 40 sec) 

ChampSim completed all CPUs

Region of Interest Statistics

CPU 0 cumulative IPC: 0.634318 instructions: 50000001 cycles: 78824813
ITLB TOTAL     ACCESS:    7354569  HIT:    7354380  MISS:        189  HIT %:    99.9974  MISS %: 0.00256983   MPKI: 0.00378
ITLB LOAD TRANSLATION ACCESS:    7354569  HIT:    7354380  MISS:        189  HIT %:    99.9974  MISS %: 0.00256983   MPKI: 0.00378
ITLB PREFETCH  REQUESTED:          0  ISSUED:          0  USEFUL:          0  USELESS:          0
ITLB USEFUL LOAD PREFETCHES:          0 PREFETCH ISSUED TO LOWER LEVEL:          0  ACCURACY: -nan
ITLB TIMELY PREFETCHES:          0 LATE PREFETCHES: 0 DROPPED PREFETCHES: 0
ITLB PREFETCHES SAME FILL-ORIGIN LEVEL: 0 DIFFERENT FILL-ORIGIN LEVEL: 0
ITLB AVERAGE MISS LATENCY: 11.1323 cycles
ITLB RQ	ACCESS:    8343805	FORWARD:          0	MERGED:     989193	TO_CACHE:    7354612

DTLB TOTAL     ACCESS:   12653383  HIT:   12619473  MISS:      33910  HIT %:     99.732  MISS %:   0.267992   MPKI: 0.6782
DTLB LOAD TRANSLATION ACCESS:   12653383  HIT:   12619473  MISS:      33910  HIT %:     99.732  MISS %:   0.267992   MPKI: 0.6782
DTLB PREFETCH  REQUESTED:          0  ISSUED:          0  USEFUL:          0  USELESS:          0
DTLB USEFUL LOAD PREFETCHES:          0 PREFETCH ISSUED TO LOWER LEVEL:          0  ACCURACY: -nan
DTLB TIMELY PREFETCHES:          0 LATE PREFETCHES: 0 DROPPED PREFETCHES: 0
DTLB PREFETCHES SAME FILL-ORIGIN LEVEL: 0 DIFFERENT FILL-ORIGIN LEVEL: 0
DTLB AVERAGE MISS LATENCY: 10.5066 cycles
DTLB RQ	ACCESS:   19242786	FORWARD:          0	MERGED:    6589217	TO_CACHE:   12653569

STLB TOTAL     ACCESS:     101489  HIT:     101180  MISS:        309  HIT %:    99.6955  MISS %:   0.304466   MPKI: 0.00618
STLB LOAD TRANSLATION ACCESS:      34099  HIT:      33790  MISS:        309  HIT %:    99.0938  MISS %:   0.906185   MPKI: 0.00618
STLB TRANSLATION FROM L1D PREFETCHER ACCESS:      67390  HIT:      67390  MISS:          0  HIT %:        100  MISS %:          0   MPKI: 0
STLB PREFETCH  REQUESTED:          0  ISSUED:          0  USEFUL:          0  USELESS:          0
STLB USEFUL LOAD PREFETCHES:          0 PREFETCH ISSUED TO LOWER LEVEL:          0  ACCURACY: -nan
STLB TIMELY PREFETCHES:          0 LATE PREFETCHES: 0 DROPPED PREFETCHES: 0
STLB PREFETCHES SAME FILL-ORIGIN LEVEL: 0 DIFFERENT FILL-ORIGIN LEVEL: 0
STLB AVERAGE MISS LATENCY: 164.754 cycles
STLB RQ	ACCESS:     116164	FORWARD:          0	MERGED:      14674	TO_CACHE:     101490

STLB Hit, L1D data hit: 0
STLB Hit, L2C data hit: 0
STLB Hit, LLC data hit: 0
STLB Hit, LLC data miss: 0
STLB STLB hints to L2: 0
L1D TOTAL     ACCESS:   19324093  HIT:   19316798  MISS:       7295  HIT %:    99.9622  MISS %:  0.0377508   MPKI: 0.1459
L1D LOAD      ACCESS:    8507546  HIT:    8504300  MISS:       3246  HIT %:    99.9618  MISS %:  0.0381544   MPKI: 0.06492
L1D RFO       ACCESS:   10734583  HIT:   10734400  MISS:        183  HIT %:    99.9983  MISS %: 0.00170477   MPKI: 0.00366
L1D PREFETCH  ACCESS:      81964  HIT:      78098  MISS:       3866  HIT %:    95.2833  MISS %:     4.7167   MPKI: 0.07732
L1D PREFETCH  REQUESTED:     164130  ISSUED:     164130  USEFUL:       1275  USELESS:       2551
L1D USEFUL LOAD PREFETCHES:       1275 PREFETCH ISSUED TO LOWER LEVEL:       3933  ACCURACY: 32.418
L1D TIMELY PREFETCHES:       1275 LATE PREFETCHES: 67 DROPPED PREFETCHES: 0
L1D PREFETCHES SAME FILL-ORIGIN LEVEL: 3933 DIFFERENT FILL-ORIGIN LEVEL: 0
L1D AVERAGE MISS LATENCY: 373542 cycles
L1D RQ	ACCESS:   10818816	FORWARD:          0	MERGED:    1977736	TO_CACHE:    8507912
L1D WQ	ACCESS:   10830029	FORWARD:     333168	MERGED:      95155	TO_CACHE:   10734874
L1D PQ	ACCESS:      82065	FORWARD:          0	MERGED:          0	TO_CACHE:      82065

L1D UNIQUE REGIONS ACCESSED: 0
L1D REGIONS CONFLICTS: 0
L1D Cross Page Prefetch Requests: 0
L1D Same Page Prefetch Requests: 174876
L1D ROI Sum of L1D PQ occupancy: 1068876
L1D PREFETCHES PUSHED FROM L2C: 0
L1I TOTAL     ACCESS:    8343318  HIT:    8341432  MISS:       1886  HIT %:    99.9774  MISS %:  0.0226049   MPKI: 0.03772
L1I LOAD      ACCESS:    8343318  HIT:    8341432  MISS:       1886  HIT %:    99.9774  MISS %:  0.0226049   MPKI: 0.03772
L1I PREFETCH  REQUESTED:          0  ISSUED:          0  USEFUL:          0  USELESS:          0
L1I USEFUL LOAD PREFETCHES:          0 PREFETCH ISSUED TO LOWER LEVEL:          0  ACCURACY: -nan
L1I TIMELY PREFETCHES:          0 LATE PREFETCHES: 0 DROPPED PREFETCHES: 0
L1I PREFETCHES SAME FILL-ORIGIN LEVEL: 0 DIFFERENT FILL-ORIGIN LEVEL: 0
L1I AVERAGE MISS LATENCY: 27.3287 cycles
L1I RQ	ACCESS:   13352828	FORWARD:          0	MERGED:    5009023	TO_CACHE:    8343805

BTB TOTAL     ACCESS:    4994041  HIT:    4730753  MISS:     263288  HIT %:     94.728  MISS %:    5.27204   MPKI: 5.26576
BTB BRANCH_DIRECT_JUMP	ACCESS:    1003467  HIT:    1003316  MISS:        151
BTB BRANCH_INDIRECT	ACCESS:     365932  HIT:     110976  MISS:     254956
BTB BRANCH_CONDITIONAL	ACCESS:    2901535  HIT:    2901105  MISS:        430
BTB BRANCH_DIRECT_CALL	ACCESS:     355129  HIT:     355070  MISS:         59
BTB BRANCH_INDIRECT_CALL	ACCESS:       6424  HIT:       3196  MISS:       3228
BTB BRANCH_RETURN	ACCESS:     361554  HIT:     357090  MISS:       4464
BTB BRANCH_OTHER ACCESS:          0  HIT:          0  MISS:          0

L2C TOTAL     ACCESS:      10908  HIT:       4480  MISS:       6428  HIT %:    41.0708  MISS %:    58.9292   MPKI: 0.12856
L2C LOAD      ACCESS:       5065  HIT:       1968  MISS:       3097  HIT %:    38.8549  MISS %:    61.1451   MPKI: 0.06194
L2C DATA LOAD MPKI: 0.05888
L2C INSTRUCTION LOAD MPKI: 0.00306
L2C RFO       ACCESS:        183  HIT:         43  MISS:        140  HIT %:    23.4973  MISS %:    76.5027   MPKI: 0.0028
L2C PREFETCH  ACCESS:       4752  HIT:       1648  MISS:       3104  HIT %:    34.6801  MISS %:    65.3199   MPKI: 0.06208
L2C DATA PREFETCH MPKI: 0.06208
L2C INSTRUCTION PREFETCH MPKI: 0
L2C WRITEBACK ACCESS:        592  HIT:        587  MISS:          5  HIT %:    99.1554  MISS %:   0.844595   MPKI: 0.0001
L2C LOAD TRANSLATION ACCESS:        316  HIT:        234  MISS:         82  HIT %:    74.0506  MISS %:    25.9494   MPKI: 0.00164
L2C PREFETCH  REQUESTED:       1025  ISSUED:       1025  USEFUL:        103  USELESS:        898
L2C USEFUL LOAD PREFETCHES:        103 PREFETCH ISSUED TO LOWER LEVEL:       3108  ACCURACY: 3.31403
L2C TIMELY PREFETCHES:        103 LATE PREFETCHES: 4 DROPPED PREFETCHES: 0
L2C PREFETCHES SAME FILL-ORIGIN LEVEL: 377 DIFFERENT FILL-ORIGIN LEVEL: 0
L2C AVERAGE MISS LATENCY: 156.816 cycles
L2C RQ	ACCESS:       5564	FORWARD:          0	MERGED:          0	TO_CACHE:       5564
L2C WQ	ACCESS:        592	FORWARD:          0	MERGED:          0	TO_CACHE:        592
L2C PQ	ACCESS:       4958	FORWARD:          0	MERGED:        130	TO_CACHE:       4828

L2C Instructions Evicting Data 41
L2C Translations Evicting Data 17
L2C Data Evicting Data 1629
L2C Instructions Evicting Instructions 7
L2C Translations Evicting Instructions 0
L2C Data Evicting Instructions 291
L2C Instructions Evicting Translations 0
L2C Translations Evicting Translations 2
L2C Data Evicting Translations 61
L2C Dense regions hint from L2: 0
PSCL5 TOTAL     ACCESS:        309  HIT:        309  MISS:          0  HIT %:        100  MISS %:          0   MPKI: 0
PSCL5 LOAD TRANSLATION ACCESS:        309  HIT:        309  MISS:          0  HIT %:        100  MISS %:          0   MPKI: 0
PSCL5 PREFETCH  REQUESTED:          0  ISSUED:          0  USEFUL:          0  USELESS:          0
PSCL5 USEFUL LOAD PREFETCHES:          0 PREFETCH ISSUED TO LOWER LEVEL:          0  ACCURACY: -nan
PSCL5 TIMELY PREFETCHES:          0 LATE PREFETCHES: 0 DROPPED PREFETCHES: 0
PSCL5 PREFETCHES SAME FILL-ORIGIN LEVEL: 0 DIFFERENT FILL-ORIGIN LEVEL: 0

PSCL4 TOTAL     ACCESS:        309  HIT:        309  MISS:          0  HIT %:        100  MISS %:          0   MPKI: 0
PSCL4 LOAD TRANSLATION ACCESS:        309  HIT:        309  MISS:          0  HIT %:        100  MISS %:          0   MPKI: 0
PSCL4 PREFETCH  REQUESTED:          0  ISSUED:          0  USEFUL:          0  USELESS:          0
PSCL4 USEFUL LOAD PREFETCHES:          0 PREFETCH ISSUED TO LOWER LEVEL:          0  ACCURACY: -nan
PSCL4 TIMELY PREFETCHES:          0 LATE PREFETCHES: 0 DROPPED PREFETCHES: 0
PSCL4 PREFETCHES SAME FILL-ORIGIN LEVEL: 0 DIFFERENT FILL-ORIGIN LEVEL: 0

PSCL3 TOTAL     ACCESS:        309  HIT:        309  MISS:          0  HIT %:        100  MISS %:          0   MPKI: 0
PSCL3 LOAD TRANSLATION ACCESS:        309  HIT:        309  MISS:          0  HIT %:        100  MISS %:          0   MPKI: 0
PSCL3 PREFETCH  REQUESTED:          0  ISSUED:          0  USEFUL:          0  USELESS:          0
PSCL3 USEFUL LOAD PREFETCHES:          0 PREFETCH ISSUED TO LOWER LEVEL:          0  ACCURACY: -nan
PSCL3 TIMELY PREFETCHES:          0 LATE PREFETCHES: 0 DROPPED PREFETCHES: 0
PSCL3 PREFETCHES SAME FILL-ORIGIN LEVEL: 0 DIFFERENT FILL-ORIGIN LEVEL: 0

PSCL2 TOTAL     ACCESS:        309  HIT:        296  MISS:         13  HIT %:    95.7929  MISS %:    4.20712   MPKI: 0.00026
PSCL2 LOAD TRANSLATION ACCESS:        309  HIT:        296  MISS:         13  HIT %:    95.7929  MISS %:    4.20712   MPKI: 0.00026
PSCL2 PREFETCH  REQUESTED:          0  ISSUED:          0  USEFUL:          0  USELESS:          0
PSCL2 USEFUL LOAD PREFETCHES:          0 PREFETCH ISSUED TO LOWER LEVEL:          0  ACCURACY: -nan
PSCL2 TIMELY PREFETCHES:          0 LATE PREFETCHES: 0 DROPPED PREFETCHES: 0
PSCL2 PREFETCHES SAME FILL-ORIGIN LEVEL: 0 DIFFERENT FILL-ORIGIN LEVEL: 0

LLC TOTAL     ACCESS:       6571  HIT:        205  MISS:       6366  HIT %:    3.11977  MISS %:    96.8802   MPKI: 0.12732
LLC LOAD      ACCESS:       3093  HIT:         23  MISS:       3070  HIT %:   0.743615  MISS %:    99.2564   MPKI: 0.0614
LLC RFO       ACCESS:        140  HIT:          0  MISS:        140  HIT %:          0  MISS %:        100   MPKI: 0.0028
LLC PREFETCH  ACCESS:       3108  HIT:         32  MISS:       3076  HIT %:     1.0296  MISS %:    98.9704   MPKI: 0.06152
LLC WRITEBACK ACCESS:        148  HIT:        148  MISS:          0  HIT %:        100  MISS %:          0   MPKI: 0
LLC LOAD TRANSLATION ACCESS:         82  HIT:          2  MISS:         80  HIT %:    2.43902  MISS %:     97.561   MPKI: 0.0016
LLC PREFETCH  REQUESTED:          0  ISSUED:          0  USEFUL:          1  USELESS:          0
LLC USEFUL LOAD PREFETCHES:          1 PREFETCH ISSUED TO LOWER LEVEL:       3076  ACCURACY: 0.0325098
LLC TIMELY PREFETCHES:          1 LATE PREFETCHES: 0 DROPPED PREFETCHES: 0
LLC PREFETCHES SAME FILL-ORIGIN LEVEL: 0 DIFFERENT FILL-ORIGIN LEVEL: 0
LLC AVERAGE MISS LATENCY: 127.801 cycles
LLC RQ	ACCESS:       3315	FORWARD:          0	MERGED:          0	TO_CACHE:       3315
LLC WQ	ACCESS:        148	FORWARD:          0	MERGED:          0	TO_CACHE:        148
LLC PQ	ACCESS:       3108	FORWARD:          0	MERGED:          0	TO_CACHE:       3108

LLC Dense regions hint to LLC: 0

RAW hits: 778114
Loads Generated: 11596922
Loads sent to L1D: 10818816
Stores Generated: 10830023
Stores sent to L1D: 10830029
Major fault: 0 Minor fault: 672
Allocated PAGES: 672

stream: 
stream:times selected: 771797
stream:pref_filled: 2748
stream:pref_useful: 984
stream:pref_late: 60
stream:misses: 173
stream:misses_by_poll: 0

CS: 
CS:times selected: 18215
CS:pref_filled: 615
CS:pref_useful: 527
CS:pref_late: 0
CS:misses: 26
CS:misses_by_poll: 0

CPLX: 
CPLX:times selected: 753354
CPLX:pref_filled: 2083
CPLX:pref_useful: 247
CPLX:pref_late: 8
CPLX:misses: 1546
CPLX:misses_by_poll: 1

NL_L1: 
NL:times selected: 632
NL:pref_filled: 18
NL:pref_useful: 8
NL:pref_late: 0
NL:misses: 9
NL:misses_by_poll: 0

total selections: 1543998
total_filled: 3866
total_useful: 1275
total_late: 71
total_polluted: 1
total_misses_after_warmup: 3615
conflicts: 121686
Degree Incremented Times: 158038
Degree Decremented Times: 30091

L1 IP Table Write Accesses: 7566357
L1 IP Table Read Accesses: 7444671
L1 RST Write Accesses: 646257
L1 RST Read Accesses: 1292514
L1 CSPT Write Accesses: 646257
L1 CSPT Read Accesses: 1277994
L1 RR Filter Tag Write Accesses: 82065
L1 RR Filter Tag Read Accesses: 20856880
L1 IP Table Tag Write Accesses: 8507915
L1 IP Table Tag Read Accesses: 8507915
L1 RST Tag Write Accesses: 0
L1 RST Tag Read Accesses: 9048446
L1 RR Filter Write Accesses: 0
L1 RR Filter Read Accesses: 1160408
test: 9370
L2 IP Table Read Accesses: 13322
L2 IP Table Write Accesses: 10973
L2 IP Table Tag Read Accesses: 7023
L2 IP Table Tag Write Accesses: 7023

DRAM Statistics
 CHANNEL 0
 RQ ROW_BUFFER_HIT:       2922  ROW_BUFFER_MISS:       3444
 DBUS_CONGESTED:          0
 WQ ROW_BUFFER_HIT:          0  ROW_BUFFER_MISS:          0  FULL:          0

 AVG_CONGESTED_CYCLE: -
 All warmup complete: 2
Channel 0 Bank busy for read cycles: 0
Channel 0 Bank busy for write cycles: 0
Channel 0
Rank 0
0banks busy for read cycles: 78380755
0banks busy for write cycles: 0
1banks busy for read cycles: 284918
1banks busy for write cycles: 0
2banks busy for read cycles: 117470
2banks busy for write cycles: 0
3banks busy for read cycles: 29305
3banks busy for write cycles: 0
4banks busy for read cycles: 8498
4banks busy for write cycles: 0
5banks busy for read cycles: 2387
5banks busy for write cycles: 0
6banks busy for read cycles: 1365
6banks busy for write cycles: 0
7banks busy for read cycles: 116
7banks busy for write cycles: 0
8banks busy for read cycles: 0
8banks busy for write cycles: 0

CPU 0 Branch Prediction Accuracy: 97.8399% MPKI: 3.0284 Average ROB Occupancy at Mispredict: 45.9365
Branch types
NOT_BRANCH: 42989829 85.9797%
BRANCH_DIRECT_JUMP: 1003467 2.00693%
BRANCH_INDIRECT: 365932 0.731864%
BRANCH_CONDITIONAL: 4917335 9.83467%
BRANCH_DIRECT_CALL: 355129 0.710258%
BRANCH_INDIRECT_CALL: 6424 0.012848%
BRANCH_RETURN: 361554 0.723108%
BRANCH_OTHER: 0 0%

@sumon_overall_L1D      1275        67      2551      3866    164130    164130
@Sumon_Early_by_class_L1D       701       368       184         0
@Sumon_Late_by_class_L1D        57         0         7         0

@Sumon_Early_by_cycle_L1D       150        91        61        40        49       168        75        34        28        61        93       425
@Sumon_Late_by_cycle_L1D        39        28         0         0         0         0         0         0         0         0         0         0
@Sumon_Early_stream_L1D       128        80        45        30        36       110        50        21        19        24        35       123
@Sumon_Early_CS_L1D         6         4         9         4         5        25        11         7         4        31        50       212
@Sumon_Early_CPLX_L1D         8         7         7         5         5        28        14         6         5         4         7        88
@Sumon_Late_stream_L1D        30        27         0         0         0         0         0         0         0         0         0         0
@Sumon_Late_CS_L1D         0         0         0         0         0         0         0         0         0         0         0         0
@Sumon_Late_CPLX_L1D         6         1         0         0         0         0         0         0         0         0         0         0
@sumon_overall_L2C       103         4       898      3104      1025      1025
@Sumon_Early_by_class_L2C        13        12        12         0
@Sumon_Late_by_class_L2C         0         0         0         0

@Sumon_Early_by_cycle_L2C         7         0        11         8         1         7         1         5         2         4         1        56
@Sumon_Late_by_cycle_L2C         2         2         0         0         0         0         0         0         0         0         0         0
@Sumon_Early_stream_L2C         0         0         0         0         0         0         0         0         0         0         0        13
@Sumon_Early_CS_L2C         0         0         0         0         0         0         0         1         0         0         0        11
@Sumon_Early_CPLX_L2C         0         0         0         0         0         0         0         0         0         0         0        12
@Sumon_Late_stream_L2C         0         0         0         0         0         0         0         0         0         0         0         0
@Sumon_Late_CS_L2C         0         0         0         0         0         0         0         0         0         0         0         0
@Sumon_Late_CPLX_L2C         0         0         0         0         0         0         0         0         0         0         0         0
DRAM PAGES: 1048576
Allocated PAGES: 672
