
*** ChampSim Multicore Out-of-Order Simulator ***

Warmup Instructions: 10000000
Simulation Instructions: 50000000
Number of CPUs: 1
LLC sets: 2048
LLC ways: 16
Off-chip DRAM Size: 4096 MB Channels: 1 Width: 64-bit Data Rate: 6400 MT/s
CPU 0 runs traces/SPEC2017/602.gcc_s-1850B.champsimtrace.xz
.xz
CPU 0 Bimodal branch predictor
BTB has LRU replacement policy
ITLB has LRU replacement policy
DTLB has LRU replacement policy
STLB has LRU replacement policy
L1I has LRU replacement policy
IP Table Entries: 256
L1D has LRU replacement policy
IP_Table L2 entries: 256
L2C has LRU replacement policy
Initialize SRRIP state
Heartbeat CPU 0 instructions: 10000002 cycles: 3263166 heartbeat IPC: 3.06451 cumulative IPC: 3.06451 (Simulation time: 0 hr 24 min 35 sec) 

Warmup complete CPU 0 instructions: 10000002 cycles: 3263166 (Simulation time: 0 hr 24 min 35 sec) 

Heartbeat CPU 0 instructions: 20000000 cycles: 33667348 heartbeat IPC: 0.328902 cumulative IPC: 0.328902 (Simulation time: 0 hr 45 min 36 sec) 
Heartbeat CPU 0 instructions: 30000000 cycles: 64069896 heartbeat IPC: 0.32892 cumulative IPC: 0.328911 (Simulation time: 1 hr 6 min 23 sec) 
Heartbeat CPU 0 instructions: 40000000 cycles: 94495530 heartbeat IPC: 0.32867 cumulative IPC: 0.328831 (Simulation time: 1 hr 27 min 40 sec) 
Heartbeat CPU 0 instructions: 50000000 cycles: 124868203 heartbeat IPC: 0.329243 cumulative IPC: 0.328934 (Simulation time: 1 hr 47 min 40 sec) 
Heartbeat CPU 0 instructions: 60000003 cycles: 155252288 heartbeat IPC: 0.32912 cumulative IPC: 0.328971 (Simulation time: 2 hr 1 min 57 sec) 
Finished CPU 0 instructions: 50000001 cycles: 151989122 cumulative IPC: 0.328971 (Simulation time: 2 hr 1 min 57 sec) 

ChampSim completed all CPUs

Region of Interest Statistics

CPU 0 cumulative IPC: 0.328971 instructions: 50000001 cycles: 151989122
ITLB TOTAL     ACCESS:    7742183  HIT:    7742183  MISS:          0  HIT %:        100  MISS %:          0   MPKI: 0
ITLB LOAD TRANSLATION ACCESS:    7742183  HIT:    7742183  MISS:          0  HIT %:        100  MISS %:          0   MPKI: 0
ITLB PREFETCH  REQUESTED:          0  ISSUED:          0  USEFUL:          0  USELESS:          0
ITLB USEFUL LOAD PREFETCHES:          0 PREFETCH ISSUED TO LOWER LEVEL:          0  ACCURACY: -nan
ITLB TIMELY PREFETCHES:          0 LATE PREFETCHES: 0 DROPPED PREFETCHES: 0
ITLB PREFETCHES SAME FILL-ORIGIN LEVEL: 0 DIFFERENT FILL-ORIGIN LEVEL: 0
ITLB AVERAGE MISS LATENCY: -nan cycles
ITLB RQ	ACCESS:    8571789	FORWARD:          0	MERGED:     829606	TO_CACHE:    7742183

DTLB TOTAL     ACCESS:   14942739  HIT:   14926347  MISS:      16392  HIT %:    99.8903  MISS %:   0.109699   MPKI: 0.32784
DTLB LOAD TRANSLATION ACCESS:   14942739  HIT:   14926347  MISS:      16392  HIT %:    99.8903  MISS %:   0.109699   MPKI: 0.32784
DTLB PREFETCH  REQUESTED:          0  ISSUED:          0  USEFUL:          0  USELESS:          0
DTLB USEFUL LOAD PREFETCHES:          0 PREFETCH ISSUED TO LOWER LEVEL:          0  ACCURACY: -nan
DTLB TIMELY PREFETCHES:          0 LATE PREFETCHES: 0 DROPPED PREFETCHES: 0
DTLB PREFETCHES SAME FILL-ORIGIN LEVEL: 0 DIFFERENT FILL-ORIGIN LEVEL: 0
DTLB AVERAGE MISS LATENCY: 142.594 cycles
DTLB RQ	ACCESS:   15258769	FORWARD:          0	MERGED:     315879	TO_CACHE:   14942890

STLB TOTAL     ACCESS:    1891433  HIT:    1876247  MISS:      15186  HIT %:    99.1971  MISS %:   0.802883   MPKI: 0.30372
STLB LOAD TRANSLATION ACCESS:      16392  HIT:       1206  MISS:      15186  HIT %:    7.35725  MISS %:    92.6428   MPKI: 0.30372
STLB TRANSLATION FROM L1D PREFETCHER ACCESS:    1875041  HIT:    1875041  MISS:          0  HIT %:        100  MISS %:          0   MPKI: 0
STLB PREFETCH  REQUESTED:          0  ISSUED:          0  USEFUL:          0  USELESS:          0
STLB USEFUL LOAD PREFETCHES:          0 PREFETCH ISSUED TO LOWER LEVEL:          0  ACCURACY: -nan
STLB TIMELY PREFETCHES:          0 LATE PREFETCHES: 0 DROPPED PREFETCHES: 0
STLB PREFETCHES SAME FILL-ORIGIN LEVEL: 0 DIFFERENT FILL-ORIGIN LEVEL: 0
STLB AVERAGE MISS LATENCY: 144.179 cycles
STLB RQ	ACCESS:    3620548	FORWARD:          0	MERGED:    1729115	TO_CACHE:    1891433

STLB Hit, L1D data hit: 0
STLB Hit, L2C data hit: 0
STLB Hit, LLC data hit: 0
STLB Hit, LLC data miss: 0
STLB STLB hints to L2: 0
L1D TOTAL     ACCESS:   18850163  HIT:   17448802  MISS:    1401361  HIT %:    92.5658  MISS %:    7.43421   MPKI: 28.0272
L1D LOAD      ACCESS:   10938451  HIT:   10832224  MISS:     106227  HIT %:    99.0289  MISS %:   0.971134   MPKI: 2.12454
L1D RFO       ACCESS:    4315586  HIT:    4315403  MISS:        183  HIT %:    99.9958  MISS %: 0.00424044   MPKI: 0.00366
L1D PREFETCH  ACCESS:    3596126  HIT:    2301175  MISS:    1294951  HIT %:    63.9904  MISS %:    36.0096   MPKI: 25.899
L1D PREFETCH  REQUESTED:    7208333  ISSUED:    7208312  USEFUL:    1072062  USELESS:     222895
L1D USEFUL LOAD PREFETCHES:    1072062 PREFETCH ISSUED TO LOWER LEVEL:    1301916  ACCURACY: 82.3449
L1D TIMELY PREFETCHES:    1072062 LATE PREFETCHES: 6562 DROPPED PREFETCHES: 0
L1D PREFETCHES SAME FILL-ORIGIN LEVEL: 1301916 DIFFERENT FILL-ORIGIN LEVEL: 0
L1D AVERAGE MISS LATENCY: 374162 cycles
L1D RQ	ACCESS:   13897925	FORWARD:          0	MERGED:    2954742	TO_CACHE:   10943183
L1D WQ	ACCESS:    4852413	FORWARD:          0	MERGED:     536827	TO_CACHE:    4315586
L1D PQ	ACCESS:    3604156	FORWARD:          0	MERGED:          0	TO_CACHE:    3604156

L1D UNIQUE REGIONS ACCESSED: 0
L1D REGIONS CONFLICTS: 0
L1D Cross Page Prefetch Requests: 0
L1D Same Page Prefetch Requests: 4232407
L1D ROI Sum of L1D PQ occupancy: 48622954
L1D PREFETCHES PUSHED FROM L2C: 0
L1I TOTAL     ACCESS:    8571788  HIT:    8571788  MISS:          0  HIT %:        100  MISS %:          0   MPKI: 0
L1I LOAD      ACCESS:    8571788  HIT:    8571788  MISS:          0  HIT %:        100  MISS %:          0   MPKI: 0
L1I PREFETCH  REQUESTED:          0  ISSUED:          0  USEFUL:          0  USELESS:          0
L1I USEFUL LOAD PREFETCHES:          0 PREFETCH ISSUED TO LOWER LEVEL:          0  ACCURACY: -nan
L1I TIMELY PREFETCHES:          0 LATE PREFETCHES: 0 DROPPED PREFETCHES: 0
L1I PREFETCHES SAME FILL-ORIGIN LEVEL: 0 DIFFERENT FILL-ORIGIN LEVEL: 0
L1I AVERAGE MISS LATENCY: -nan cycles
L1I RQ	ACCESS:   13331255	FORWARD:          0	MERGED:    4759466	TO_CACHE:    8571789

BTB TOTAL     ACCESS:    8191456  HIT:    8191427  MISS:         29  HIT %:    99.9996  MISS %: 0.000354027   MPKI: 0.00058
BTB BRANCH_DIRECT_JUMP	ACCESS:    1079511  HIT:    1079502  MISS:          9
BTB BRANCH_INDIRECT	ACCESS:          0  HIT:          0  MISS:          0
BTB BRANCH_CONDITIONAL	ACCESS:    6031849  HIT:    6031835  MISS:         14
BTB BRANCH_DIRECT_CALL	ACCESS:     540048  HIT:     540045  MISS:          3
BTB BRANCH_INDIRECT_CALL	ACCESS:          0  HIT:          0  MISS:          0
BTB BRANCH_RETURN	ACCESS:     540048  HIT:     540045  MISS:          3
BTB BRANCH_OTHER ACCESS:          0  HIT:          0  MISS:          0

L2C TOTAL     ACCESS:    4489065  HIT:    3557794  MISS:     931271  HIT %:    79.2547  MISS %:    20.7453   MPKI: 18.6254
L2C LOAD      ACCESS:      99665  HIT:      82529  MISS:      17136  HIT %:    82.8064  MISS %:    17.1936   MPKI: 0.34272
L2C DATA LOAD MPKI: 0.34272
L2C INSTRUCTION LOAD MPKI: 0
L2C RFO       ACCESS:        183  HIT:        176  MISS:          7  HIT %:    96.1749  MISS %:    3.82514   MPKI: 0.00014
L2C PREFETCH  ACCESS:    4370742  HIT:    3459290  MISS:     911452  HIT %:    79.1465  MISS %:    20.8535   MPKI: 18.229
L2C DATA PREFETCH MPKI: 18.229
L2C INSTRUCTION PREFETCH MPKI: 0
L2C WRITEBACK ACCESS:       3224  HIT:       3224  MISS:          0  HIT %:        100  MISS %:          0   MPKI: 0
L2C LOAD TRANSLATION ACCESS:      15251  HIT:      12575  MISS:       2676  HIT %:    82.4536  MISS %:    17.5464   MPKI: 0.05352
L2C PREFETCH  REQUESTED:    4327352  ISSUED:    4327187  USEFUL:       7324  USELESS:     904132
L2C USEFUL LOAD PREFETCHES:       7324 PREFETCH ISSUED TO LOWER LEVEL:     911496  ACCURACY: 0.803514
L2C TIMELY PREFETCHES:       7324 LATE PREFETCHES: 44 DROPPED PREFETCHES: 0
L2C PREFETCHES SAME FILL-ORIGIN LEVEL: 684425 DIFFERENT FILL-ORIGIN LEVEL: 0
L2C AVERAGE MISS LATENCY: 107.068 cycles
L2C RQ	ACCESS:     115099	FORWARD:          0	MERGED:          0	TO_CACHE:     115099
L2C WQ	ACCESS:       3224	FORWARD:          0	MERGED:          0	TO_CACHE:       3224
L2C PQ	ACCESS:    5628696	FORWARD:          0	MERGED:     984660	TO_CACHE:    4644036

L2C Instructions Evicting Data 0
L2C Translations Evicting Data 2671
L2C Data Evicting Data 925916
L2C Instructions Evicting Instructions 0
L2C Translations Evicting Instructions 0
L2C Data Evicting Instructions 0
L2C Instructions Evicting Translations 0
L2C Translations Evicting Translations 5
L2C Data Evicting Translations 2679
L2C Dense regions hint from L2: 0
PSCL5 TOTAL     ACCESS:      15186  HIT:      15186  MISS:          0  HIT %:        100  MISS %:          0   MPKI: 0
PSCL5 LOAD TRANSLATION ACCESS:      15186  HIT:      15186  MISS:          0  HIT %:        100  MISS %:          0   MPKI: 0
PSCL5 PREFETCH  REQUESTED:          0  ISSUED:          0  USEFUL:          0  USELESS:          0
PSCL5 USEFUL LOAD PREFETCHES:          0 PREFETCH ISSUED TO LOWER LEVEL:          0  ACCURACY: -nan
PSCL5 TIMELY PREFETCHES:          0 LATE PREFETCHES: 0 DROPPED PREFETCHES: 0
PSCL5 PREFETCHES SAME FILL-ORIGIN LEVEL: 0 DIFFERENT FILL-ORIGIN LEVEL: 0

PSCL4 TOTAL     ACCESS:      15186  HIT:      15186  MISS:          0  HIT %:        100  MISS %:          0   MPKI: 0
PSCL4 LOAD TRANSLATION ACCESS:      15186  HIT:      15186  MISS:          0  HIT %:        100  MISS %:          0   MPKI: 0
PSCL4 PREFETCH  REQUESTED:          0  ISSUED:          0  USEFUL:          0  USELESS:          0
PSCL4 USEFUL LOAD PREFETCHES:          0 PREFETCH ISSUED TO LOWER LEVEL:          0  ACCURACY: -nan
PSCL4 TIMELY PREFETCHES:          0 LATE PREFETCHES: 0 DROPPED PREFETCHES: 0
PSCL4 PREFETCHES SAME FILL-ORIGIN LEVEL: 0 DIFFERENT FILL-ORIGIN LEVEL: 0

PSCL3 TOTAL     ACCESS:      15186  HIT:      15186  MISS:          0  HIT %:        100  MISS %:          0   MPKI: 0
PSCL3 LOAD TRANSLATION ACCESS:      15186  HIT:      15186  MISS:          0  HIT %:        100  MISS %:          0   MPKI: 0
PSCL3 PREFETCH  REQUESTED:          0  ISSUED:          0  USEFUL:          0  USELESS:          0
PSCL3 USEFUL LOAD PREFETCHES:          0 PREFETCH ISSUED TO LOWER LEVEL:          0  ACCURACY: -nan
PSCL3 TIMELY PREFETCHES:          0 LATE PREFETCHES: 0 DROPPED PREFETCHES: 0
PSCL3 PREFETCHES SAME FILL-ORIGIN LEVEL: 0 DIFFERENT FILL-ORIGIN LEVEL: 0

PSCL2 TOTAL     ACCESS:      15186  HIT:      15015  MISS:        171  HIT %:     98.874  MISS %:    1.12604   MPKI: 0.00342
PSCL2 LOAD TRANSLATION ACCESS:      15186  HIT:      15015  MISS:        171  HIT %:     98.874  MISS %:    1.12604   MPKI: 0.00342
PSCL2 PREFETCH  REQUESTED:          0  ISSUED:          0  USEFUL:          0  USELESS:          0
PSCL2 USEFUL LOAD PREFETCHES:          0 PREFETCH ISSUED TO LOWER LEVEL:          0  ACCURACY: -nan
PSCL2 TIMELY PREFETCHES:          0 LATE PREFETCHES: 0 DROPPED PREFETCHES: 0
PSCL2 PREFETCHES SAME FILL-ORIGIN LEVEL: 0 DIFFERENT FILL-ORIGIN LEVEL: 0

LLC TOTAL     ACCESS:     932533  HIT:      11204  MISS:     921329  HIT %:    1.20146  MISS %:    98.7985   MPKI: 18.4266
LLC LOAD      ACCESS:      17093  HIT:        228  MISS:      16865  HIT %:    1.33388  MISS %:    98.6661   MPKI: 0.3373
LLC RFO       ACCESS:          6  HIT:          0  MISS:          6  HIT %:          0  MISS %:        100   MPKI: 0.00012
LLC PREFETCH  ACCESS:     911496  HIT:       9518  MISS:     901978  HIT %:    1.04422  MISS %:    98.9558   MPKI: 18.0396
LLC WRITEBACK ACCESS:       1262  HIT:       1262  MISS:          0  HIT %:        100  MISS %:          0   MPKI: 0
LLC LOAD TRANSLATION ACCESS:       2676  HIT:        196  MISS:       2480  HIT %:    7.32436  MISS %:    92.6756   MPKI: 0.0496
LLC PREFETCH  REQUESTED:          0  ISSUED:          0  USEFUL:         92  USELESS:     901848
LLC USEFUL LOAD PREFETCHES:         92 PREFETCH ISSUED TO LOWER LEVEL:     901978  ACCURACY: 0.0101998
LLC TIMELY PREFETCHES:         92 LATE PREFETCHES: 0 DROPPED PREFETCHES: 0
LLC PREFETCHES SAME FILL-ORIGIN LEVEL: 0 DIFFERENT FILL-ORIGIN LEVEL: 0
LLC AVERAGE MISS LATENCY: 77.8504 cycles
LLC RQ	ACCESS:      19775	FORWARD:          0	MERGED:          0	TO_CACHE:      19775
LLC WQ	ACCESS:       1262	FORWARD:          0	MERGED:          0	TO_CACHE:       1262
LLC PQ	ACCESS:     911496	FORWARD:          0	MERGED:          0	TO_CACHE:     911496

LLC Dense regions hint to LLC: 0

RAW hits: 0
Loads Generated: 13897925
Loads sent to L1D: 13897925
Stores Generated: 4852411
Stores sent to L1D: 4852413
Major fault: 0 Minor fault: 18384
Allocated PAGES: 18384

stream: 
stream:times selected: 6544246
stream:pref_filled: 1140301
stream:pref_useful: 945092
stream:pref_late: 2372
stream:misses: 9449
stream:misses_by_poll: 0

CS: 
CS:times selected: 2469019
CS:pref_filled: 99942
CS:pref_useful: 96953
CS:pref_late: 3651
CS:misses: 39212
CS:misses_by_poll: 735

CPLX: 
CPLX:times selected: 4070069
CPLX:pref_filled: 310863
CPLX:pref_useful: 243119
CPLX:pref_late: 1149
CPLX:misses: 67161
CPLX:misses_by_poll: 2027

NL_L1: 
NL:times selected: 30512
NL:pref_filled: 455
NL:pref_useful: 378
NL:pref_late: 20
NL:misses: 1174
NL:misses_by_poll: 0

total selections: 13113846
total_filled: 1294951
total_useful: 1072062
total_late: 7389
total_polluted: 2762
total_misses_after_warmup: 110959
conflicts: 0
Degree Incremented Times: 152910
Degree Decremented Times: 0

L1 IP Table Write Accesses: 10938351
L1 IP Table Read Accesses: 10938351
L1 RST Write Accesses: 5522290
L1 RST Read Accesses: 11044580
L1 CSPT Write Accesses: 5522290
L1 CSPT Read Accesses: 15038881
L1 RR Filter Tag Write Accesses: 3604177
L1 RR Filter Tag Read Accesses: 864832467
L1 IP Table Tag Write Accesses: 10943183
L1 IP Table Tag Read Accesses: 10943183
L1 RST Tag Write Accesses: 0
L1 RST Tag Read Accesses: 49334838
L1 RR Filter Write Accesses: 0
L1 RR Filter Read Accesses: 39463021
test: 1099175
L2 IP Table Read Accesses: 2217755
L2 IP Table Write Accesses: 2118091
L2 IP Table Tag Read Accesses: 1108878
L2 IP Table Tag Write Accesses: 1108878

DRAM Statistics
 CHANNEL 0
 RQ ROW_BUFFER_HIT:     861002  ROW_BUFFER_MISS:      60327
 DBUS_CONGESTED:         28
 WQ ROW_BUFFER_HIT:        171  ROW_BUFFER_MISS:       1086  FULL:          0

 AVG_CONGESTED_CYCLE: 4
 All warmup complete: 2
Channel 0 Bank busy for read cycles: 0
Channel 0 Bank busy for write cycles: 0
Channel 0
Rank 0
0banks busy for read cycles: 124188276
0banks busy for write cycles: 935
1banks busy for read cycles: 16654768
1banks busy for write cycles: 137480
2banks busy for read cycles: 5805559
2banks busy for write cycles: 24914
3banks busy for read cycles: 2092068
3banks busy for write cycles: 5785
4banks busy for read cycles: 907232
4banks busy for write cycles: 2705
5banks busy for read cycles: 497080
5banks busy for write cycles: 1024
6banks busy for read cycles: 467420
6banks busy for write cycles: 700
7banks busy for read cycles: 985378
7banks busy for write cycles: 179
8banks busy for read cycles: 217620
8banks busy for write cycles: 0

CPU 0 Branch Prediction Accuracy: 92.2655% MPKI: 19.8309 Average ROB Occupancy at Mispredict: 30.593
Branch types
NOT_BRANCH: 37179936 74.3599%
BRANCH_DIRECT_JUMP: 1079511 2.15902%
BRANCH_INDIRECT: 0 0%
BRANCH_CONDITIONAL: 10660171 21.3203%
BRANCH_DIRECT_CALL: 540048 1.0801%
BRANCH_INDIRECT_CALL: 0 0%
BRANCH_RETURN: 540048 1.0801%
BRANCH_OTHER: 0 0%

@sumon_overall_L1D   1072062      6562    222895   1294951   7208312   7208333
@Sumon_Early_by_class_L1D    777686     79625    214428        19
@Sumon_Late_by_class_L1D      1758      3477      1134        19

@Sumon_Early_by_cycle_L1D     47626     94204     82469    123531    116530    411577     81210     36697     35563     39154      2992       509
@Sumon_Late_by_cycle_L1D      6497        65         0         0         0         0         0         0         0         0         0         0
@Sumon_Early_stream_L1D     26629     83621     60749     96565     92415    329948     22799     10998     22768     30894       300         0
@Sumon_Early_CS_L1D     18249      6491     13465     15834     10827      6820       268      2237      4035      1397         2         0
@Sumon_Early_CPLX_L1D      2707      3977      8154     11128     13288     74809     58137     23458      8752      6819      2690       509
@Sumon_Late_stream_L1D      1747        11         0         0         0         0         0         0         0         0         0         0
@Sumon_Late_CS_L1D      3429        48         0         0         0         0         0         0         0         0         0         0
@Sumon_Late_CPLX_L1D      1129         5         0         0         0         0         0         0         0         0         0         0
@sumon_overall_L2C      7324        44    904132    911452   4327187   4327352
@Sumon_Early_by_class_L2C      6733       293       294         0
@Sumon_Late_by_class_L2C        30        11         0         0

@Sumon_Early_by_cycle_L2C       375       291       316       304       198       856       190         1         0         5      1525      3263
@Sumon_Late_by_cycle_L2C        42         2         0         0         0         0         0         0         0         0         0         0
@Sumon_Early_stream_L2C       311       281       301       280       184       827       187         1         0         5      1394      2962
@Sumon_Early_CS_L2C        64        10        15        24        14        29         3         0         0         0        44        90
@Sumon_Early_CPLX_L2C         0         0         0         0         0         0         0         0         0         0        87       207
@Sumon_Late_stream_L2C        28         2         0         0         0         0         0         0         0         0         0         0
@Sumon_Late_CS_L2C        11         0         0         0         0         0         0         0         0         0         0         0
@Sumon_Late_CPLX_L2C         0         0         0         0         0         0         0         0         0         0         0         0
DRAM PAGES: 1048576
Allocated PAGES: 18384
