
*** ChampSim Multicore Out-of-Order Simulator ***

Warmup Instructions: 10000000
Simulation Instructions: 50000000
Number of CPUs: 1
LLC sets: 2048
LLC ways: 16
Off-chip DRAM Size: 4096 MB Channels: 1 Width: 64-bit Data Rate: 6400 MT/s
CPU 0 runs traces/SPEC2017/603.bwaves_s-2931B.champsimtrace.xz
.xz
CPU 0 Bimodal branch predictor
BTB has LRU replacement policy
ITLB has LRU replacement policy
DTLB has LRU replacement policy
STLB has LRU replacement policy
L1I has LRU replacement policy
IP Table Entries: 256
L1D has LRU replacement policy
IP_Table L2 entries: 256
L2C has LRU replacement policy
Initialize SRRIP state
Heartbeat CPU 0 instructions: 10000003 cycles: 2946929 heartbeat IPC: 3.39336 cumulative IPC: 3.39336 (Simulation time: 0 hr 23 min 10 sec) 

Warmup complete CPU 0 instructions: 10000003 cycles: 2946929 (Simulation time: 0 hr 23 min 10 sec) 

Heartbeat CPU 0 instructions: 20000001 cycles: 11712425 heartbeat IPC: 1.14084 cumulative IPC: 1.14084 (Simulation time: 0 hr 41 min 32 sec) 
Heartbeat CPU 0 instructions: 30000001 cycles: 20482428 heartbeat IPC: 1.14025 cumulative IPC: 1.14054 (Simulation time: 1 hr 0 min 15 sec) 
Heartbeat CPU 0 instructions: 40000003 cycles: 29253394 heartbeat IPC: 1.14013 cumulative IPC: 1.1404 (Simulation time: 1 hr 18 min 42 sec) 
Heartbeat CPU 0 instructions: 50000003 cycles: 38023697 heartbeat IPC: 1.14021 cumulative IPC: 1.14036 (Simulation time: 1 hr 37 min 14 sec) 
Heartbeat CPU 0 instructions: 60000000 cycles: 46795651 heartbeat IPC: 1.14 cumulative IPC: 1.14028 (Simulation time: 1 hr 53 min 13 sec) 
Finished CPU 0 instructions: 50000000 cycles: 43848725 cumulative IPC: 1.14028 (Simulation time: 1 hr 53 min 13 sec) 

ChampSim completed all CPUs

Region of Interest Statistics

CPU 0 cumulative IPC: 1.14028 instructions: 50000000 cycles: 43848725
ITLB TOTAL     ACCESS:    6031434  HIT:    6031434  MISS:          0  HIT %:        100  MISS %:          0   MPKI: 0
ITLB LOAD TRANSLATION ACCESS:    6031434  HIT:    6031434  MISS:          0  HIT %:        100  MISS %:          0   MPKI: 0
ITLB PREFETCH  REQUESTED:          0  ISSUED:          0  USEFUL:          0  USELESS:          0
ITLB USEFUL LOAD PREFETCHES:          0 PREFETCH ISSUED TO LOWER LEVEL:          0  ACCURACY: -nan
ITLB TIMELY PREFETCHES:          0 LATE PREFETCHES: 0 DROPPED PREFETCHES: 0
ITLB PREFETCHES SAME FILL-ORIGIN LEVEL: 0 DIFFERENT FILL-ORIGIN LEVEL: 0
ITLB AVERAGE MISS LATENCY: -nan cycles
ITLB RQ	ACCESS:    7011708	FORWARD:          0	MERGED:     980274	TO_CACHE:    6031434

DTLB TOTAL     ACCESS:   12705687  HIT:   12588790  MISS:     116897  HIT %:      99.08  MISS %:   0.920037   MPKI: 2.33794
DTLB LOAD TRANSLATION ACCESS:   12705687  HIT:   12588790  MISS:     116897  HIT %:      99.08  MISS %:   0.920037   MPKI: 2.33794
DTLB PREFETCH  REQUESTED:          0  ISSUED:          0  USEFUL:          0  USELESS:          0
DTLB USEFUL LOAD PREFETCHES:          0 PREFETCH ISSUED TO LOWER LEVEL:          0  ACCURACY: -nan
DTLB TIMELY PREFETCHES:          0 LATE PREFETCHES: 0 DROPPED PREFETCHES: 0
DTLB PREFETCHES SAME FILL-ORIGIN LEVEL: 0 DIFFERENT FILL-ORIGIN LEVEL: 0
DTLB AVERAGE MISS LATENCY: 42.1885 cycles
DTLB RQ	ACCESS:   18840671	FORWARD:          0	MERGED:    6129885	TO_CACHE:   12710786

STLB TOTAL     ACCESS:     599949  HIT:     589305  MISS:      10644  HIT %:    98.2258  MISS %:    1.77415   MPKI: 0.21288
STLB LOAD TRANSLATION ACCESS:     116897  HIT:     106253  MISS:      10644  HIT %:    90.8945  MISS %:    9.10545   MPKI: 0.21288
STLB TRANSLATION FROM L1D PREFETCHER ACCESS:     483052  HIT:     483052  MISS:          0  HIT %:        100  MISS %:          0   MPKI: 0
STLB PREFETCH  REQUESTED:          0  ISSUED:          0  USEFUL:          0  USELESS:          0
STLB USEFUL LOAD PREFETCHES:          0 PREFETCH ISSUED TO LOWER LEVEL:          0  ACCURACY: -nan
STLB TIMELY PREFETCHES:          0 LATE PREFETCHES: 0 DROPPED PREFETCHES: 0
STLB PREFETCHES SAME FILL-ORIGIN LEVEL: 0 DIFFERENT FILL-ORIGIN LEVEL: 0
STLB AVERAGE MISS LATENCY: 356.442 cycles
STLB RQ	ACCESS:    2634284	FORWARD:          0	MERGED:    2034335	TO_CACHE:     599949

STLB Hit, L1D data hit: 0
STLB Hit, L2C data hit: 0
STLB Hit, LLC data hit: 0
STLB Hit, LLC data miss: 0
STLB STLB hints to L2: 0
L1D TOTAL     ACCESS:   20620016  HIT:   19762150  MISS:     857866  HIT %:    95.8396  MISS %:    4.16036   MPKI: 17.1573
L1D LOAD      ACCESS:    9677028  HIT:    9638306  MISS:      38722  HIT %:    99.5999  MISS %:   0.400144   MPKI: 0.77444
L1D RFO       ACCESS:    8425601  HIT:    8107758  MISS:     317843  HIT %:    96.2277  MISS %:    3.77235   MPKI: 6.35686
L1D PREFETCH  ACCESS:    2517387  HIT:    2016086  MISS:     501301  HIT %:    80.0865  MISS %:    19.9135   MPKI: 10.026
L1D PREFETCH  REQUESTED:    5095708  ISSUED:    5034774  USEFUL:     498804  USELESS:       2499
L1D USEFUL LOAD PREFETCHES:     498804 PREFETCH ISSUED TO LOWER LEVEL:     509044  ACCURACY: 97.9884
L1D TIMELY PREFETCHES:     498804 LATE PREFETCHES: 0 DROPPED PREFETCHES: 0
L1D PREFETCHES SAME FILL-ORIGIN LEVEL: 509044 DIFFERENT FILL-ORIGIN LEVEL: 0
L1D AVERAGE MISS LATENCY: 149.298 cycles
L1D RQ	ACCESS:   14464929	FORWARD:          0	MERGED:    4734991	TO_CACHE:    9680438
L1D WQ	ACCESS:    9162265	FORWARD:      49500	MERGED:       2032	TO_CACHE:    9160233
L1D PQ	ACCESS:    2517387	FORWARD:          0	MERGED:          0	TO_CACHE:    2517387

L1D UNIQUE REGIONS ACCESSED: 0
L1D REGIONS CONFLICTS: 0
L1D Cross Page Prefetch Requests: 0
L1D Same Page Prefetch Requests: 3041374
L1D ROI Sum of L1D PQ occupancy: 37287255
L1D PREFETCHES PUSHED FROM L2C: 0
L1I TOTAL     ACCESS:    7011703  HIT:    7011696  MISS:          7  HIT %:    99.9999  MISS %: 9.98331e-05   MPKI: 0.00014
L1I LOAD      ACCESS:    7011703  HIT:    7011696  MISS:          7  HIT %:    99.9999  MISS %: 9.98331e-05   MPKI: 0.00014
L1I PREFETCH  REQUESTED:          0  ISSUED:          0  USEFUL:          0  USELESS:          0
L1I USEFUL LOAD PREFETCHES:          0 PREFETCH ISSUED TO LOWER LEVEL:          0  ACCURACY: -nan
L1I TIMELY PREFETCHES:          0 LATE PREFETCHES: 0 DROPPED PREFETCHES: 0
L1I PREFETCHES SAME FILL-ORIGIN LEVEL: 0 DIFFERENT FILL-ORIGIN LEVEL: 0
L1I AVERAGE MISS LATENCY: 214 cycles
L1I RQ	ACCESS:   10107055	FORWARD:          0	MERGED:    3095347	TO_CACHE:    7011708

BTB TOTAL     ACCESS:     421996  HIT:     421991  MISS:          5  HIT %:    99.9988  MISS %: 0.00118485   MPKI: 0.0001
BTB BRANCH_DIRECT_JUMP	ACCESS:          0  HIT:          0  MISS:          0
BTB BRANCH_INDIRECT	ACCESS:          0  HIT:          0  MISS:          0
BTB BRANCH_CONDITIONAL	ACCESS:     421996  HIT:     421991  MISS:          5
BTB BRANCH_DIRECT_CALL	ACCESS:          0  HIT:          0  MISS:          0
BTB BRANCH_INDIRECT_CALL	ACCESS:          0  HIT:          0  MISS:          0
BTB BRANCH_RETURN	ACCESS:          0  HIT:          0  MISS:          0
BTB BRANCH_OTHER ACCESS:          0  HIT:          0  MISS:          0

L2C TOTAL     ACCESS:    3336173  HIT:    2592341  MISS:     743832  HIT %:     77.704  MISS %:     22.296   MPKI: 14.8766
L2C LOAD      ACCESS:      38617  HIT:      31023  MISS:       7594  HIT %:    80.3351  MISS %:    19.6649   MPKI: 0.15188
L2C DATA LOAD MPKI: 0.15174
L2C INSTRUCTION LOAD MPKI: 0.00014
L2C RFO       ACCESS:     306330  HIT:       8636  MISS:     297694  HIT %:    2.81918  MISS %:    97.1808   MPKI: 5.95388
L2C PREFETCH  ACCESS:    2658150  HIT:    2221003  MISS:     437147  HIT %:    83.5545  MISS %:    16.4455   MPKI: 8.74294
L2C DATA PREFETCH MPKI: 8.74294
L2C INSTRUCTION PREFETCH MPKI: 0
L2C WRITEBACK ACCESS:     322428  HIT:     322393  MISS:         35  HIT %:    99.9891  MISS %:  0.0108551   MPKI: 0.0007
L2C LOAD TRANSLATION ACCESS:      10648  HIT:       9286  MISS:       1362  HIT %:    87.2089  MISS %:    12.7911   MPKI: 0.02724
L2C PREFETCH  REQUESTED:    2634047  ISSUED:    2580184  USEFUL:      17443  USELESS:     418261
L2C USEFUL LOAD PREFETCHES:      17443 PREFETCH ISSUED TO LOWER LEVEL:     437151  ACCURACY: 3.99015
L2C TIMELY PREFETCHES:      17443 LATE PREFETCHES: 4 DROPPED PREFETCHES: 0
L2C PREFETCHES SAME FILL-ORIGIN LEVEL: 391042 DIFFERENT FILL-ORIGIN LEVEL: 0
L2C AVERAGE MISS LATENCY: 253.33 cycles
L2C RQ	ACCESS:     367222	FORWARD:          0	MERGED:          0	TO_CACHE:     355597
L2C WQ	ACCESS:     322428	FORWARD:      11625	MERGED:          0	TO_CACHE:     322428
L2C PQ	ACCESS:    3081485	FORWARD:          0	MERGED:     421307	TO_CACHE:    2660178

L2C Instructions Evicting Data 7
L2C Translations Evicting Data 1362
L2C Data Evicting Data 741060
L2C Instructions Evicting Instructions 0
L2C Translations Evicting Instructions 0
L2C Data Evicting Instructions 7
L2C Instructions Evicting Translations 0
L2C Translations Evicting Translations 0
L2C Data Evicting Translations 1361
L2C Dense regions hint from L2: 0
PSCL5 TOTAL     ACCESS:      10644  HIT:      10644  MISS:          0  HIT %:        100  MISS %:          0   MPKI: 0
PSCL5 LOAD TRANSLATION ACCESS:      10644  HIT:      10644  MISS:          0  HIT %:        100  MISS %:          0   MPKI: 0
PSCL5 PREFETCH  REQUESTED:          0  ISSUED:          0  USEFUL:          0  USELESS:          0
PSCL5 USEFUL LOAD PREFETCHES:          0 PREFETCH ISSUED TO LOWER LEVEL:          0  ACCURACY: -nan
PSCL5 TIMELY PREFETCHES:          0 LATE PREFETCHES: 0 DROPPED PREFETCHES: 0
PSCL5 PREFETCHES SAME FILL-ORIGIN LEVEL: 0 DIFFERENT FILL-ORIGIN LEVEL: 0

PSCL4 TOTAL     ACCESS:      10644  HIT:      10644  MISS:          0  HIT %:        100  MISS %:          0   MPKI: 0
PSCL4 LOAD TRANSLATION ACCESS:      10644  HIT:      10644  MISS:          0  HIT %:        100  MISS %:          0   MPKI: 0
PSCL4 PREFETCH  REQUESTED:          0  ISSUED:          0  USEFUL:          0  USELESS:          0
PSCL4 USEFUL LOAD PREFETCHES:          0 PREFETCH ISSUED TO LOWER LEVEL:          0  ACCURACY: -nan
PSCL4 TIMELY PREFETCHES:          0 LATE PREFETCHES: 0 DROPPED PREFETCHES: 0
PSCL4 PREFETCHES SAME FILL-ORIGIN LEVEL: 0 DIFFERENT FILL-ORIGIN LEVEL: 0

PSCL3 TOTAL     ACCESS:       8509  HIT:       8505  MISS:          4  HIT %:     99.953  MISS %:   0.047009   MPKI: 8e-05
PSCL3 LOAD TRANSLATION ACCESS:       8509  HIT:       8505  MISS:          4  HIT %:     99.953  MISS %:   0.047009   MPKI: 8e-05
PSCL3 PREFETCH  REQUESTED:          0  ISSUED:          0  USEFUL:          0  USELESS:          0
PSCL3 USEFUL LOAD PREFETCHES:          0 PREFETCH ISSUED TO LOWER LEVEL:          0  ACCURACY: -nan
PSCL3 TIMELY PREFETCHES:          0 LATE PREFETCHES: 0 DROPPED PREFETCHES: 0
PSCL3 PREFETCHES SAME FILL-ORIGIN LEVEL: 0 DIFFERENT FILL-ORIGIN LEVEL: 0

PSCL2 TOTAL     ACCESS:      10644  HIT:      10622  MISS:         22  HIT %:    99.7933  MISS %:   0.206689   MPKI: 0.00044
PSCL2 LOAD TRANSLATION ACCESS:      10644  HIT:      10622  MISS:         22  HIT %:    99.7933  MISS %:   0.206689   MPKI: 0.00044
PSCL2 PREFETCH  REQUESTED:          0  ISSUED:          0  USEFUL:          0  USELESS:          0
PSCL2 USEFUL LOAD PREFETCHES:          0 PREFETCH ISSUED TO LOWER LEVEL:          0  ACCURACY: -nan
PSCL2 TIMELY PREFETCHES:          0 LATE PREFETCHES: 0 DROPPED PREFETCHES: 0
PSCL2 PREFETCHES SAME FILL-ORIGIN LEVEL: 0 DIFFERENT FILL-ORIGIN LEVEL: 0

LLC TOTAL     ACCESS:    1042012  HIT:     297143  MISS:     744869  HIT %:    28.5163  MISS %:    71.4837   MPKI: 14.8974
LLC LOAD      ACCESS:       7590  HIT:        870  MISS:       6720  HIT %:    11.4625  MISS %:    88.5375   MPKI: 0.1344
LLC RFO       ACCESS:     297694  HIT:          0  MISS:     297694  HIT %:          0  MISS %:        100   MPKI: 5.95388
LLC PREFETCH  ACCESS:     437151  HIT:      47200  MISS:     389951  HIT %:    10.7972  MISS %:    89.2028   MPKI: 7.79902
LLC WRITEBACK ACCESS:     298215  HIT:     249069  MISS:      49146  HIT %:    83.5199  MISS %:    16.4801   MPKI: 0.98292
LLC LOAD TRANSLATION ACCESS:       1362  HIT:          4  MISS:       1358  HIT %:   0.293686  MISS %:    99.7063   MPKI: 0.02716
LLC PREFETCH  REQUESTED:          0  ISSUED:          0  USEFUL:         22  USELESS:     392984
LLC USEFUL LOAD PREFETCHES:         22 PREFETCH ISSUED TO LOWER LEVEL:     389951  ACCURACY: 0.00564173
LLC TIMELY PREFETCHES:         22 LATE PREFETCHES: 0 DROPPED PREFETCHES: 0
LLC PREFETCHES SAME FILL-ORIGIN LEVEL: 0 DIFFERENT FILL-ORIGIN LEVEL: 0
LLC AVERAGE MISS LATENCY: 221.887 cycles
LLC RQ	ACCESS:     306648	FORWARD:          0	MERGED:          0	TO_CACHE:     306648
LLC WQ	ACCESS:     298215	FORWARD:          0	MERGED:          0	TO_CACHE:     298215
LLC PQ	ACCESS:     437151	FORWARD:          0	MERGED:          0	TO_CACHE:     437151

LLC Dense regions hint to LLC: 0

RAW hits: 196535
Loads Generated: 14661466
Loads sent to L1D: 14464929
Stores Generated: 9162246
Stores sent to L1D: 9162265
Major fault: 0 Minor fault: 12766
Allocated PAGES: 12766

stream: 
stream:times selected: 595796
stream:pref_filled: 601170
stream:pref_useful: 594768
stream:pref_late: 0
stream:misses: 7
stream:misses_by_poll: 0

CS: 
CS:times selected: 539229
CS:pref_filled: 220
CS:pref_useful: 213
CS:pref_late: 0
CS:misses: 40320
CS:misses_by_poll: 0

CPLX: 
CPLX:times selected: 56516
CPLX:pref_filled: 148
CPLX:pref_useful: 147
CPLX:pref_late: 0
CPLX:misses: 5674
CPLX:misses_by_poll: 0

NL_L1: 
NL:times selected: 6
NL:pref_filled: 3
NL:pref_useful: 3
NL:pref_late: 0
NL:misses: 0
NL:misses_by_poll: 0

total selections: 1191547
total_filled: 501301
total_useful: 498804
total_late: 0
total_polluted: 0
total_misses_after_warmup: 42133
conflicts: 83965
Degree Incremented Times: 106821
Degree Decremented Times: 0

L1 IP Table Write Accesses: 8835632
L1 IP Table Read Accesses: 8751667
L1 RST Write Accesses: 494572
L1 RST Read Accesses: 989144
L1 CSPT Write Accesses: 494572
L1 CSPT Read Accesses: 641753
L1 RR Filter Tag Write Accesses: 2578321
L1 RR Filter Tag Read Accesses: 124842356
L1 IP Table Tag Write Accesses: 9680439
L1 IP Table Tag Read Accesses: 9680439
L1 RST Tag Write Accesses: 0
L1 RST Tag Read Accesses: 4451487
L1 RR Filter Write Accesses: 0
L1 RR Filter Read Accesses: 4238336
test: 9560
L2 IP Table Read Accesses: 967504
L2 IP Table Write Accesses: 952862
L2 IP Table Tag Read Accesses: 499591
L2 IP Table Tag Write Accesses: 499591

DRAM Statistics
 CHANNEL 0
 RQ ROW_BUFFER_HIT:     380198  ROW_BUFFER_MISS:     315525
 DBUS_CONGESTED:        755
 WQ ROW_BUFFER_HIT:      56370  ROW_BUFFER_MISS:     238493  FULL:          0

 AVG_CONGESTED_CYCLE: 5
 All warmup complete: 2
Channel 0 Bank busy for read cycles: 0
Channel 0 Bank busy for write cycles: 0
Channel 0
Rank 0
0banks busy for read cycles: 1093108
0banks busy for write cycles: 12325
1banks busy for read cycles: 14188369
1banks busy for write cycles: 1597462
2banks busy for read cycles: 7207484
2banks busy for write cycles: 1834812
3banks busy for read cycles: 3644829
3banks busy for write cycles: 1809316
4banks busy for read cycles: 1680851
4banks busy for write cycles: 1656061
5banks busy for read cycles: 1100555
5banks busy for write cycles: 1427139
6banks busy for read cycles: 802908
6banks busy for write cycles: 1249154
7banks busy for read cycles: 820124
7banks busy for write cycles: 1288697
8banks busy for read cycles: 509534
8banks busy for write cycles: 1925998

CPU 0 Branch Prediction Accuracy: 80.6206% MPKI: 1.63562 Average ROB Occupancy at Mispredict: 67.8676
Branch types
NOT_BRANCH: 49577691 99.1554%
BRANCH_DIRECT_JUMP: 0 0%
BRANCH_INDIRECT: 0 0%
BRANCH_CONDITIONAL: 421999 0.843998%
BRANCH_DIRECT_CALL: 0 0%
BRANCH_INDIRECT_CALL: 0 0%
BRANCH_RETURN: 0 0%
BRANCH_OTHER: 0 0%

@sumon_overall_L1D    498804         0      2499    501301   5034774   5095708
@Sumon_Early_by_class_L1D    496676       122        99         0
@Sumon_Late_by_class_L1D         0         0         0         0

@Sumon_Early_by_cycle_L1D         2       137        57      1313      5267     55447     86456    350122         3         0         0         0
@Sumon_Late_by_cycle_L1D         0         0         0         0         0         0         0         0         0         0         0         0
@Sumon_Early_stream_L1D         2       136        54      1109      4022     54958     86275    350120         0         0         0         0
@Sumon_Early_CS_L1D         0         0         0         0         0        17       105         0         0         0         0         0
@Sumon_Early_CPLX_L1D         0         0         0         1         1        36        57         1         3         0         0         0
@Sumon_Late_stream_L1D         0         0         0         0         0         0         0         0         0         0         0         0
@Sumon_Late_CS_L1D         0         0         0         0         0         0         0         0         0         0         0         0
@Sumon_Late_CPLX_L1D         0         0         0         0         0         0         0         0         0         0         0         0
@sumon_overall_L2C     17443         4    418261    437147   2580184   2634047
@Sumon_Early_by_class_L2C     15894         0        13         0
@Sumon_Late_by_class_L2C         0         0         0         0

@Sumon_Early_by_cycle_L2C         4         9         9       351       682      1284      2035      9378      3186         2         0       503
@Sumon_Late_by_cycle_L2C         3         1         0         0         0         0         0         0         0         0         0         0
@Sumon_Early_stream_L2C         1         7         2        11        14       778      2013      9377      3186         2         0       503
@Sumon_Early_CS_L2C         0         0         0         0         0         0         0         0         0         0         0         0
@Sumon_Early_CPLX_L2C         0         0         0         0         0         2        11         0         0         0         0         0
@Sumon_Late_stream_L2C         0         0         0         0         0         0         0         0         0         0         0         0
@Sumon_Late_CS_L2C         0         0         0         0         0         0         0         0         0         0         0         0
@Sumon_Late_CPLX_L2C         0         0         0         0         0         0         0         0         0         0         0         0
DRAM PAGES: 1048576
Allocated PAGES: 12766
