
*** ChampSim Multicore Out-of-Order Simulator ***

Warmup Instructions: 10000000
Simulation Instructions: 50000000
Number of CPUs: 1
LLC sets: 2048
LLC ways: 16
Off-chip DRAM Size: 4096 MB Channels: 1 Width: 64-bit Data Rate: 6400 MT/s
CPU 0 runs traces/SPEC2017/603.bwaves_s-2609B.champsimtrace.xz
.xz
CPU 0 Bimodal branch predictor
BTB has LRU replacement policy
ITLB has LRU replacement policy
DTLB has LRU replacement policy
STLB has LRU replacement policy
L1I has LRU replacement policy
IP Table Entries: 256
L1D has LRU replacement policy
IP_Table L2 entries: 256
L2C has LRU replacement policy
Initialize SRRIP state
Heartbeat CPU 0 instructions: 10000002 cycles: 3308708 heartbeat IPC: 3.02233 cumulative IPC: 3.02233 (Simulation time: 0 hr 29 min 25 sec) 

Warmup complete CPU 0 instructions: 10000002 cycles: 3308708 (Simulation time: 0 hr 29 min 25 sec) 

Heartbeat CPU 0 instructions: 20000000 cycles: 13724802 heartbeat IPC: 0.960053 cumulative IPC: 0.960053 (Simulation time: 0 hr 47 min 34 sec) 
Heartbeat CPU 0 instructions: 30000001 cycles: 24136359 heartbeat IPC: 0.960471 cumulative IPC: 0.960262 (Simulation time: 1 hr 5 min 49 sec) 
Heartbeat CPU 0 instructions: 40000000 cycles: 34552575 heartbeat IPC: 0.960041 cumulative IPC: 0.960188 (Simulation time: 1 hr 23 min 52 sec) 
Heartbeat CPU 0 instructions: 50000002 cycles: 44963391 heartbeat IPC: 0.96054 cumulative IPC: 0.960276 (Simulation time: 1 hr 41 min 49 sec) 
Heartbeat CPU 0 instructions: 60000000 cycles: 55378053 heartbeat IPC: 0.960185 cumulative IPC: 0.960258 (Simulation time: 1 hr 56 min 31 sec) 
Finished CPU 0 instructions: 50000000 cycles: 52069346 cumulative IPC: 0.960258 (Simulation time: 1 hr 56 min 31 sec) 

ChampSim completed all CPUs

Region of Interest Statistics

CPU 0 cumulative IPC: 0.960258 instructions: 50000000 cycles: 52069346
ITLB TOTAL     ACCESS:    6356555  HIT:    6356555  MISS:          0  HIT %:        100  MISS %:          0   MPKI: 0
ITLB LOAD TRANSLATION ACCESS:    6356555  HIT:    6356555  MISS:          0  HIT %:        100  MISS %:          0   MPKI: 0
ITLB PREFETCH  REQUESTED:          0  ISSUED:          0  USEFUL:          0  USELESS:          0
ITLB USEFUL LOAD PREFETCHES:          0 PREFETCH ISSUED TO LOWER LEVEL:          0  ACCURACY: -nan
ITLB TIMELY PREFETCHES:          0 LATE PREFETCHES: 0 DROPPED PREFETCHES: 0
ITLB PREFETCHES SAME FILL-ORIGIN LEVEL: 0 DIFFERENT FILL-ORIGIN LEVEL: 0
ITLB AVERAGE MISS LATENCY: -nan cycles
ITLB RQ	ACCESS:    8463153	FORWARD:          0	MERGED:    2106598	TO_CACHE:    6356555

DTLB TOTAL     ACCESS:   17197551  HIT:   17161249  MISS:      36302  HIT %:    99.7889  MISS %:   0.211088   MPKI: 0.72604
DTLB LOAD TRANSLATION ACCESS:   17197551  HIT:   17161249  MISS:      36302  HIT %:    99.7889  MISS %:   0.211088   MPKI: 0.72604
DTLB PREFETCH  REQUESTED:          0  ISSUED:          0  USEFUL:          0  USELESS:          0
DTLB USEFUL LOAD PREFETCHES:          0 PREFETCH ISSUED TO LOWER LEVEL:          0  ACCURACY: -nan
DTLB TIMELY PREFETCHES:          0 LATE PREFETCHES: 0 DROPPED PREFETCHES: 0
DTLB PREFETCHES SAME FILL-ORIGIN LEVEL: 0 DIFFERENT FILL-ORIGIN LEVEL: 0
DTLB AVERAGE MISS LATENCY: 212.064 cycles
DTLB RQ	ACCESS:   19657356	FORWARD:          0	MERGED:    2455571	TO_CACHE:   17201785

STLB TOTAL     ACCESS:    3755598  HIT:    3740755  MISS:      14843  HIT %:    99.6048  MISS %:   0.395223   MPKI: 0.29686
STLB LOAD TRANSLATION ACCESS:      36302  HIT:      21459  MISS:      14843  HIT %:    59.1124  MISS %:    40.8876   MPKI: 0.29686
STLB TRANSLATION FROM L1D PREFETCHER ACCESS:    3719296  HIT:    3719296  MISS:          0  HIT %:        100  MISS %:          0   MPKI: 0
STLB PREFETCH  REQUESTED:          0  ISSUED:          0  USEFUL:          0  USELESS:          0
STLB USEFUL LOAD PREFETCHES:          0 PREFETCH ISSUED TO LOWER LEVEL:          0  ACCURACY: -nan
STLB TIMELY PREFETCHES:          0 LATE PREFETCHES: 0 DROPPED PREFETCHES: 0
STLB PREFETCHES SAME FILL-ORIGIN LEVEL: 0 DIFFERENT FILL-ORIGIN LEVEL: 0
STLB AVERAGE MISS LATENCY: 468.959 cycles
STLB RQ	ACCESS:   17444929	FORWARD:          0	MERGED:   13689332	TO_CACHE:    3755597

STLB Hit, L1D data hit: 0
STLB Hit, L2C data hit: 0
STLB Hit, LLC data hit: 0
STLB Hit, LLC data miss: 0
STLB STLB hints to L2: 0
L1D TOTAL     ACCESS:   37033502  HIT:   36029868  MISS:    1003634  HIT %:    97.2899  MISS %:    2.71007   MPKI: 20.0727
L1D LOAD      ACCESS:   16837794  HIT:   16788072  MISS:      49722  HIT %:    99.7047  MISS %:     0.2953   MPKI: 0.99444
L1D RFO       ACCESS:    2807580  HIT:    2783218  MISS:      24362  HIT %:    99.1323  MISS %:   0.867722   MPKI: 0.48724
L1D PREFETCH  ACCESS:   17388128  HIT:   16458578  MISS:     929550  HIT %:    94.6541  MISS %:    5.34589   MPKI: 18.591
L1D PREFETCH  REQUESTED:   49503100  ISSUED:   34848575  USEFUL:     925506  USELESS:       4040
L1D USEFUL LOAD PREFETCHES:     925506 PREFETCH ISSUED TO LOWER LEVEL:     979616  ACCURACY: 94.4764
L1D TIMELY PREFETCHES:     925506 LATE PREFETCHES: 2049 DROPPED PREFETCHES: 0
L1D PREFETCHES SAME FILL-ORIGIN LEVEL: 979616 DIFFERENT FILL-ORIGIN LEVEL: 0
L1D AVERAGE MISS LATENCY: 60229.4 cycles
L1D RQ	ACCESS:   21266398	FORWARD:          0	MERGED:    4358395	TO_CACHE:   16840701
L1D WQ	ACCESS:    2816699	FORWARD:      67302	MERGED:         44	TO_CACHE:    2816655
L1D PQ	ACCESS:   17439948	FORWARD:          0	MERGED:      31321	TO_CACHE:   17408627

L1D UNIQUE REGIONS ACCESSED: 0
L1D REGIONS CONFLICTS: 0
L1D Cross Page Prefetch Requests: 0
L1D Same Page Prefetch Requests: 20198401
L1D ROI Sum of L1D PQ occupancy: 264156264
L1D PREFETCHES PUSHED FROM L2C: 0
L1I TOTAL     ACCESS:    8463153  HIT:    8463153  MISS:          0  HIT %:        100  MISS %:          0   MPKI: 0
L1I LOAD      ACCESS:    8463153  HIT:    8463153  MISS:          0  HIT %:        100  MISS %:          0   MPKI: 0
L1I PREFETCH  REQUESTED:          0  ISSUED:          0  USEFUL:          0  USELESS:          0
L1I USEFUL LOAD PREFETCHES:          0 PREFETCH ISSUED TO LOWER LEVEL:          0  ACCURACY: -nan
L1I TIMELY PREFETCHES:          0 LATE PREFETCHES: 0 DROPPED PREFETCHES: 0
L1I PREFETCHES SAME FILL-ORIGIN LEVEL: 0 DIFFERENT FILL-ORIGIN LEVEL: 0
L1I AVERAGE MISS LATENCY: -nan cycles
L1I RQ	ACCESS:   11737572	FORWARD:          0	MERGED:    3274419	TO_CACHE:    8463153

BTB TOTAL     ACCESS:    1208719  HIT:    1208714  MISS:          5  HIT %:    99.9996  MISS %: 0.000413661   MPKI: 0.0001
BTB BRANCH_DIRECT_JUMP	ACCESS:          0  HIT:          0  MISS:          0
BTB BRANCH_INDIRECT	ACCESS:          0  HIT:          0  MISS:          0
BTB BRANCH_CONDITIONAL	ACCESS:    1208719  HIT:    1208714  MISS:          5
BTB BRANCH_DIRECT_CALL	ACCESS:          0  HIT:          0  MISS:          0
BTB BRANCH_INDIRECT_CALL	ACCESS:          0  HIT:          0  MISS:          0
BTB BRANCH_RETURN	ACCESS:          0  HIT:          0  MISS:          0
BTB BRANCH_OTHER ACCESS:          0  HIT:          0  MISS:          0

L2C TOTAL     ACCESS:    4029835  HIT:    3077828  MISS:     952007  HIT %:     76.376  MISS %:     23.624   MPKI: 19.0401
L2C LOAD      ACCESS:      47673  HIT:      27749  MISS:      19924  HIT %:     58.207  MISS %:     41.793   MPKI: 0.39848
L2C DATA LOAD MPKI: 0.39848
L2C INSTRUCTION LOAD MPKI: 0
L2C RFO       ACCESS:      24362  HIT:          0  MISS:      24362  HIT %:          0  MISS %:        100   MPKI: 0.48724
L2C PREFETCH  ACCESS:    3918213  HIT:    3012379  MISS:     905834  HIT %:    76.8815  MISS %:    23.1185   MPKI: 18.1167
L2C DATA PREFETCH MPKI: 18.1167
L2C INSTRUCTION PREFETCH MPKI: 0
L2C WRITEBACK ACCESS:      24742  HIT:      24742  MISS:          0  HIT %:        100  MISS %:          0   MPKI: 0
L2C LOAD TRANSLATION ACCESS:      14845  HIT:      12958  MISS:       1887  HIT %:    87.2886  MISS %:    12.7114   MPKI: 0.03774
L2C PREFETCH  REQUESTED:    4911018  ISSUED:    4528916  USEFUL:      26266  USELESS:     879775
L2C USEFUL LOAD PREFETCHES:      26266 PREFETCH ISSUED TO LOWER LEVEL:     906548  ACCURACY: 2.89736
L2C TIMELY PREFETCHES:      26266 LATE PREFETCHES: 707 DROPPED PREFETCHES: 0
L2C PREFETCHES SAME FILL-ORIGIN LEVEL: 814660 DIFFERENT FILL-ORIGIN LEVEL: 0
L2C AVERAGE MISS LATENCY: 175.026 cycles
L2C RQ	ACCESS:      86880	FORWARD:          0	MERGED:          0	TO_CACHE:      86880
L2C WQ	ACCESS:      24742	FORWARD:          0	MERGED:          0	TO_CACHE:      24742
L2C PQ	ACCESS:    5460513	FORWARD:          0	MERGED:    1355373	TO_CACHE:    4105140

L2C Instructions Evicting Data 0
L2C Translations Evicting Data 1886
L2C Data Evicting Data 948235
L2C Instructions Evicting Instructions 0
L2C Translations Evicting Instructions 0
L2C Data Evicting Instructions 0
L2C Instructions Evicting Translations 0
L2C Translations Evicting Translations 1
L2C Data Evicting Translations 1885
L2C Dense regions hint from L2: 0
PSCL5 TOTAL     ACCESS:      14843  HIT:      14843  MISS:          0  HIT %:        100  MISS %:          0   MPKI: 0
PSCL5 LOAD TRANSLATION ACCESS:      14843  HIT:      14843  MISS:          0  HIT %:        100  MISS %:          0   MPKI: 0
PSCL5 PREFETCH  REQUESTED:          0  ISSUED:          0  USEFUL:          0  USELESS:          0
PSCL5 USEFUL LOAD PREFETCHES:          0 PREFETCH ISSUED TO LOWER LEVEL:          0  ACCURACY: -nan
PSCL5 TIMELY PREFETCHES:          0 LATE PREFETCHES: 0 DROPPED PREFETCHES: 0
PSCL5 PREFETCHES SAME FILL-ORIGIN LEVEL: 0 DIFFERENT FILL-ORIGIN LEVEL: 0

PSCL4 TOTAL     ACCESS:      14843  HIT:      14843  MISS:          0  HIT %:        100  MISS %:          0   MPKI: 0
PSCL4 LOAD TRANSLATION ACCESS:      14843  HIT:      14843  MISS:          0  HIT %:        100  MISS %:          0   MPKI: 0
PSCL4 PREFETCH  REQUESTED:          0  ISSUED:          0  USEFUL:          0  USELESS:          0
PSCL4 USEFUL LOAD PREFETCHES:          0 PREFETCH ISSUED TO LOWER LEVEL:          0  ACCURACY: -nan
PSCL4 TIMELY PREFETCHES:          0 LATE PREFETCHES: 0 DROPPED PREFETCHES: 0
PSCL4 PREFETCHES SAME FILL-ORIGIN LEVEL: 0 DIFFERENT FILL-ORIGIN LEVEL: 0

PSCL3 TOTAL     ACCESS:      14843  HIT:      14843  MISS:          0  HIT %:        100  MISS %:          0   MPKI: 0
PSCL3 LOAD TRANSLATION ACCESS:      14843  HIT:      14843  MISS:          0  HIT %:        100  MISS %:          0   MPKI: 0
PSCL3 PREFETCH  REQUESTED:          0  ISSUED:          0  USEFUL:          0  USELESS:          0
PSCL3 USEFUL LOAD PREFETCHES:          0 PREFETCH ISSUED TO LOWER LEVEL:          0  ACCURACY: -nan
PSCL3 TIMELY PREFETCHES:          0 LATE PREFETCHES: 0 DROPPED PREFETCHES: 0
PSCL3 PREFETCHES SAME FILL-ORIGIN LEVEL: 0 DIFFERENT FILL-ORIGIN LEVEL: 0

PSCL2 TOTAL     ACCESS:      14843  HIT:      14812  MISS:         31  HIT %:    99.7911  MISS %:   0.208853   MPKI: 0.00062
PSCL2 LOAD TRANSLATION ACCESS:      14843  HIT:      14812  MISS:         31  HIT %:    99.7911  MISS %:   0.208853   MPKI: 0.00062
PSCL2 PREFETCH  REQUESTED:          0  ISSUED:          0  USEFUL:          0  USELESS:          0
PSCL2 USEFUL LOAD PREFETCHES:          0 PREFETCH ISSUED TO LOWER LEVEL:          0  ACCURACY: -nan
PSCL2 TIMELY PREFETCHES:          0 LATE PREFETCHES: 0 DROPPED PREFETCHES: 0
PSCL2 PREFETCHES SAME FILL-ORIGIN LEVEL: 0 DIFFERENT FILL-ORIGIN LEVEL: 0

LLC TOTAL     ACCESS:     976372  HIT:      24365  MISS:     952007  HIT %:    2.49546  MISS %:    97.5045   MPKI: 19.0401
LLC LOAD      ACCESS:      19217  HIT:          0  MISS:      19217  HIT %:          0  MISS %:        100   MPKI: 0.38434
LLC RFO       ACCESS:      24362  HIT:          0  MISS:      24362  HIT %:          0  MISS %:        100   MPKI: 0.48724
LLC PREFETCH  ACCESS:     906541  HIT:          0  MISS:     906541  HIT %:          0  MISS %:        100   MPKI: 18.1308
LLC WRITEBACK ACCESS:      24365  HIT:      24365  MISS:          0  HIT %:        100  MISS %:          0   MPKI: 0
LLC LOAD TRANSLATION ACCESS:       1887  HIT:          0  MISS:       1887  HIT %:          0  MISS %:        100   MPKI: 0.03774
LLC PREFETCH  REQUESTED:          0  ISSUED:          0  USEFUL:          0  USELESS:     906561
LLC USEFUL LOAD PREFETCHES:          0 PREFETCH ISSUED TO LOWER LEVEL:     906548  ACCURACY: 0
LLC TIMELY PREFETCHES:          0 LATE PREFETCHES: 0 DROPPED PREFETCHES: 0
LLC PREFETCHES SAME FILL-ORIGIN LEVEL: 0 DIFFERENT FILL-ORIGIN LEVEL: 0
LLC AVERAGE MISS LATENCY: 143.321 cycles
LLC RQ	ACCESS:      45466	FORWARD:          0	MERGED:          0	TO_CACHE:      45466
LLC WQ	ACCESS:      24365	FORWARD:          0	MERGED:          0	TO_CACHE:      24365
LLC PQ	ACCESS:     906548	FORWARD:          0	MERGED:          0	TO_CACHE:     906548

LLC Dense regions hint to LLC: 0

RAW hits: 223621
Loads Generated: 21490017
Loads sent to L1D: 21266398
Stores Generated: 2816699
Stores sent to L1D: 2816699
Major fault: 0 Minor fault: 17250
Allocated PAGES: 17250

stream: 
stream:times selected: 6905382
stream:pref_filled: 1100611
stream:pref_useful: 1100408
stream:pref_late: 2195
stream:misses: 97
stream:misses_by_poll: 0

CS: 
CS:times selected: 6686514
CS:pref_filled: 4984
CS:pref_useful: 4984
CS:pref_late: 35
CS:misses: 55891
CS:misses_by_poll: 37

CPLX: 
CPLX:times selected: 218705
CPLX:pref_filled: 14832
CPLX:pref_useful: 10042
CPLX:pref_late: 6
CPLX:misses: 557
CPLX:misses_by_poll: 17

NL_L1: 
NL:times selected: 1896
NL:pref_filled: 3
NL:pref_useful: 3
NL:pref_late: 0
NL:misses: 2
NL:misses_by_poll: 0

total selections: 13812497
total_filled: 929550
total_useful: 925506
total_late: 2536
total_polluted: 54
total_misses_after_warmup: 52634
conflicts: 8
Degree Incremented Times: 189014
Degree Decremented Times: 0

L1 IP Table Write Accesses: 16839840
L1 IP Table Read Accesses: 16839832
L1 RST Write Accesses: 5776394
L1 RST Read Accesses: 11552788
L1 CSPT Write Accesses: 5776394
L1 CSPT Read Accesses: 6278748
L1 RR Filter Tag Write Accesses: 32094473
L1 RR Filter Tag Read Accesses: 1487784001
L1 IP Table Tag Write Accesses: 16840706
L1 IP Table Tag Read Accesses: 16840706
L1 RST Tag Write Accesses: 0
L1 RST Tag Read Accesses: 51989283
L1 RR Filter Write Accesses: 0
L1 RR Filter Read Accesses: 49404930
test: 136685
L2 IP Table Read Accesses: 1771090
L2 IP Table Write Accesses: 1723417
L2 IP Table Tag Read Accesses: 885545
L2 IP Table Tag Write Accesses: 885545

DRAM Statistics
 CHANNEL 0
 RQ ROW_BUFFER_HIT:     672056  ROW_BUFFER_MISS:     279954
 DBUS_CONGESTED:        224
 WQ ROW_BUFFER_HIT:       3822  ROW_BUFFER_MISS:      20495  FULL:          0

 AVG_CONGESTED_CYCLE: 4
 All warmup complete: 2
Channel 0 Bank busy for read cycles: 0
Channel 0 Bank busy for write cycles: 0
Channel 0
Rank 0
0banks busy for read cycles: 23704431
0banks busy for write cycles: 6669
1banks busy for read cycles: 9044751
1banks busy for write cycles: 466188
2banks busy for read cycles: 5568008
2banks busy for write cycles: 274458
3banks busy for read cycles: 4340242
3banks busy for write cycles: 332266
4banks busy for read cycles: 2804336
4banks busy for write cycles: 135263
5banks busy for read cycles: 1851212
5banks busy for write cycles: 92131
6banks busy for read cycles: 1239436
6banks busy for write cycles: 67109
7banks busy for read cycles: 1237824
7banks busy for write cycles: 77301
8banks busy for read cycles: 728420
8banks busy for write cycles: 99302

CPU 0 Branch Prediction Accuracy: 81.2317% MPKI: 4.6848 Average ROB Occupancy at Mispredict: 36.1579
Branch types
NOT_BRANCH: 48751584 97.5032%
BRANCH_DIRECT_JUMP: 0 0%
BRANCH_INDIRECT: 0 0%
BRANCH_CONDITIONAL: 1248062 2.49612%
BRANCH_DIRECT_CALL: 0 0%
BRANCH_INDIRECT_CALL: 0 0%
BRANCH_RETURN: 0 0%
BRANCH_OTHER: 0 0%

@sumon_overall_L1D    925506      2049      4040    929550  34848575  49503100
@Sumon_Early_by_class_L1D    913221      3752      8532         0
@Sumon_Late_by_class_L1D      1727        22         0         0

@Sumon_Early_by_cycle_L1D     11624      6207     18222     22397     38553    529839    179349     19707     99575        25         8         0
@Sumon_Late_by_cycle_L1D      1056       946        47         0         0         0         0         0         0         0         0         0
@Sumon_Early_stream_L1D     11581      6166     18018     22082     37945    527303    179184     18947     91995         0         0         0
@Sumon_Early_CS_L1D        33        27       158       266       504      2401       125       238         0         0         0         0
@Sumon_Early_CPLX_L1D        10        14        46        49       104       134        40       522      7580        25         8         0
@Sumon_Late_stream_L1D       743       938        46         0         0         0         0         0         0         0         0         0
@Sumon_Late_CS_L1D        14         7         1         0         0         0         0         0         0         0         0         0
@Sumon_Late_CPLX_L1D         0         0         0         0         0         0         0         0         0         0         0         0
@sumon_overall_L2C     26266       707    879775    905834   4528916   4911018
@Sumon_Early_by_class_L2C     26085       179         2         0
@Sumon_Late_by_class_L2C       477         3         0         0

@Sumon_Early_by_cycle_L2C        79        57        73        78       280      9567     15859        66        76       121         0        10
@Sumon_Late_by_cycle_L2C       316       339        50         2         0         0         0         0         0         0         0         0
@Sumon_Early_stream_L2C        78        56        72        74       248      9429     15858        66        73       121         0        10
@Sumon_Early_CS_L2C         1         1         1         4        32       138         1         0         1         0         0         0
@Sumon_Early_CPLX_L2C         0         0         0         0         0         0         0         0         2         0         0         0
@Sumon_Late_stream_L2C       149       276        50         2         0         0         0         0         0         0         0         0
@Sumon_Late_CS_L2C         2         1         0         0         0         0         0         0         0         0         0         0
@Sumon_Late_CPLX_L2C         0         0         0         0         0         0         0         0         0         0         0         0
DRAM PAGES: 1048576
Allocated PAGES: 17250
