
*** ChampSim Multicore Out-of-Order Simulator ***

Warmup Instructions: 10000000
Simulation Instructions: 50000000
Number of CPUs: 1
LLC sets: 2048
LLC ways: 16
Off-chip DRAM Size: 4096 MB Channels: 1 Width: 64-bit Data Rate: 6400 MT/s
CPU 0 runs traces/SPEC2017/605.mcf_s-665B.champsimtrace.xz
.xz
CPU 0 Bimodal branch predictor
BTB has LRU replacement policy
ITLB has LRU replacement policy
DTLB has LRU replacement policy
STLB has LRU replacement policy
L1I has LRU replacement policy
IP Table Entries: 256
L1D has LRU replacement policy
IP_Table L2 entries: 256
L2C has LRU replacement policy
Initialize SRRIP state
Heartbeat CPU 0 instructions: 10000000 cycles: 3319755 heartbeat IPC: 3.01227 cumulative IPC: 3.01227 (Simulation time: 0 hr 28 min 16 sec) 

Warmup complete CPU 0 instructions: 10000004 cycles: 3319756 (Simulation time: 0 hr 28 min 16 sec) 

Heartbeat CPU 0 instructions: 20000002 cycles: 42304995 heartbeat IPC: 0.256507 cumulative IPC: 0.256507 (Simulation time: 0 hr 52 min 9 sec) 
Heartbeat CPU 0 instructions: 30000000 cycles: 80970466 heartbeat IPC: 0.258629 cumulative IPC: 0.257564 (Simulation time: 1 hr 15 min 37 sec) 
Heartbeat CPU 0 instructions: 40000000 cycles: 119934271 heartbeat IPC: 0.256648 cumulative IPC: 0.257258 (Simulation time: 1 hr 39 min 19 sec) 
Heartbeat CPU 0 instructions: 50000000 cycles: 158648412 heartbeat IPC: 0.258304 cumulative IPC: 0.257518 (Simulation time: 1 hr 58 min 18 sec) 
Heartbeat CPU 0 instructions: 60000003 cycles: 197641223 heartbeat IPC: 0.256458 cumulative IPC: 0.257306 (Simulation time: 2 hr 9 min 12 sec) 
Finished CPU 0 instructions: 50000003 cycles: 194321468 cumulative IPC: 0.257306 (Simulation time: 2 hr 9 min 12 sec) 

ChampSim completed all CPUs

Region of Interest Statistics

CPU 0 cumulative IPC: 0.257306 instructions: 50000003 cycles: 194321468
ITLB TOTAL     ACCESS:    9249659  HIT:    9249659  MISS:          0  HIT %:        100  MISS %:          0   MPKI: 0
ITLB LOAD TRANSLATION ACCESS:    9249659  HIT:    9249659  MISS:          0  HIT %:        100  MISS %:          0   MPKI: 0
ITLB PREFETCH  REQUESTED:          0  ISSUED:          0  USEFUL:          0  USELESS:          0
ITLB USEFUL LOAD PREFETCHES:          0 PREFETCH ISSUED TO LOWER LEVEL:          0  ACCURACY: -nan
ITLB TIMELY PREFETCHES:          0 LATE PREFETCHES: 0 DROPPED PREFETCHES: 0
ITLB PREFETCHES SAME FILL-ORIGIN LEVEL: 0 DIFFERENT FILL-ORIGIN LEVEL: 0
ITLB AVERAGE MISS LATENCY: -nan cycles
ITLB RQ	ACCESS:    9676412	FORWARD:          0	MERGED:     426754	TO_CACHE:    9249658

DTLB TOTAL     ACCESS:   15476376  HIT:   14582003  MISS:     894373  HIT %:     94.221  MISS %:    5.77896   MPKI: 17.8875
DTLB LOAD TRANSLATION ACCESS:   15476376  HIT:   14582003  MISS:     894373  HIT %:     94.221  MISS %:    5.77896   MPKI: 17.8875
DTLB PREFETCH  REQUESTED:          0  ISSUED:          0  USEFUL:          0  USELESS:          0
DTLB USEFUL LOAD PREFETCHES:          0 PREFETCH ISSUED TO LOWER LEVEL:          0  ACCURACY: -nan
DTLB TIMELY PREFETCHES:          0 LATE PREFETCHES: 0 DROPPED PREFETCHES: 0
DTLB PREFETCHES SAME FILL-ORIGIN LEVEL: 0 DIFFERENT FILL-ORIGIN LEVEL: 0
DTLB AVERAGE MISS LATENCY: 10.8944 cycles
DTLB RQ	ACCESS:   18882457	FORWARD:          0	MERGED:    3305001	TO_CACHE:   15577456

STLB TOTAL     ACCESS:    4071257  HIT:    4057720  MISS:      13537  HIT %:    99.6675  MISS %:   0.332502   MPKI: 0.27074
STLB LOAD TRANSLATION ACCESS:     894373  HIT:     880836  MISS:      13537  HIT %:    98.4864  MISS %:    1.51357   MPKI: 0.27074
STLB TRANSLATION FROM L1D PREFETCHER ACCESS:    3176884  HIT:    3176884  MISS:          0  HIT %:        100  MISS %:          0   MPKI: 0
STLB PREFETCH  REQUESTED:          0  ISSUED:          0  USEFUL:          0  USELESS:          0
STLB USEFUL LOAD PREFETCHES:          0 PREFETCH ISSUED TO LOWER LEVEL:          0  ACCURACY: -nan
STLB TIMELY PREFETCHES:          0 LATE PREFETCHES: 0 DROPPED PREFETCHES: 0
STLB PREFETCHES SAME FILL-ORIGIN LEVEL: 0 DIFFERENT FILL-ORIGIN LEVEL: 0
STLB AVERAGE MISS LATENCY: 110.925 cycles
STLB RQ	ACCESS:    4656572	FORWARD:          0	MERGED:     585314	TO_CACHE:    4071258

STLB Hit, L1D data hit: 0
STLB Hit, L2C data hit: 0
STLB Hit, LLC data hit: 0
STLB Hit, LLC data miss: 0
STLB STLB hints to L2: 0
L1D TOTAL     ACCESS:   22175631  HIT:   18655470  MISS:    3520161  HIT %:     84.126  MISS %:     15.874   MPKI: 70.4032
L1D LOAD      ACCESS:   13142533  HIT:   11698205  MISS:    1444328  HIT %:    89.0103  MISS %:    10.9897   MPKI: 28.8866
L1D RFO       ACCESS:    5408619  HIT:    5219346  MISS:     189273  HIT %:    96.5005  MISS %:    3.49947   MPKI: 3.78546
L1D PREFETCH  ACCESS:    3624479  HIT:    1737919  MISS:    1886560  HIT %:    47.9495  MISS %:    52.0505   MPKI: 37.7312
L1D PREFETCH  REQUESTED:    7528403  ISSUED:    7528403  USEFUL:     504127  USELESS:    1382471
L1D USEFUL LOAD PREFETCHES:     504127 PREFETCH ISSUED TO LOWER LEVEL:    1954821  ACCURACY: 25.7889
L1D TIMELY PREFETCHES:     504127 LATE PREFETCHES: 67859 DROPPED PREFETCHES: 0
L1D PREFETCHES SAME FILL-ORIGIN LEVEL: 1954821 DIFFERENT FILL-ORIGIN LEVEL: 0
L1D AVERAGE MISS LATENCY: 1.94679e+06 cycles
L1D RQ	ACCESS:   16801784	FORWARD:          0	MERGED:    3114763	TO_CACHE:   13157347
L1D WQ	ACCESS:    5753549	FORWARD:     533679	MERGED:      28439	TO_CACHE:    5725110
L1D PQ	ACCESS:    3766204	FORWARD:          0	MERGED:          0	TO_CACHE:    3762199

L1D UNIQUE REGIONS ACCESSED: 0
L1D REGIONS CONFLICTS: 0
L1D Cross Page Prefetch Requests: 0
L1D Same Page Prefetch Requests: 4508137
L1D ROI Sum of L1D PQ occupancy: 48847734
L1D PREFETCHES PUSHED FROM L2C: 0
L1I TOTAL     ACCESS:    9676413  HIT:    9676413  MISS:          0  HIT %:        100  MISS %:          0   MPKI: 0
L1I LOAD      ACCESS:    9676413  HIT:    9676413  MISS:          0  HIT %:        100  MISS %:          0   MPKI: 0
L1I PREFETCH  REQUESTED:          0  ISSUED:          0  USEFUL:          0  USELESS:          0
L1I USEFUL LOAD PREFETCHES:          0 PREFETCH ISSUED TO LOWER LEVEL:          0  ACCURACY: -nan
L1I TIMELY PREFETCHES:          0 LATE PREFETCHES: 0 DROPPED PREFETCHES: 0
L1I PREFETCHES SAME FILL-ORIGIN LEVEL: 0 DIFFERENT FILL-ORIGIN LEVEL: 0
L1I AVERAGE MISS LATENCY: -nan cycles
L1I RQ	ACCESS:   15073679	FORWARD:          0	MERGED:    5397267	TO_CACHE:    9676412

BTB TOTAL     ACCESS:   11942322  HIT:   11365508  MISS:     576814  HIT %:      95.17  MISS %:       4.83   MPKI: 11.5363
BTB BRANCH_DIRECT_JUMP	ACCESS:    1326301  HIT:    1326265  MISS:         36
BTB BRANCH_INDIRECT	ACCESS:          0  HIT:          0  MISS:          0
BTB BRANCH_CONDITIONAL	ACCESS:    7942778  HIT:    7942703  MISS:         75
BTB BRANCH_DIRECT_CALL	ACCESS:    1261742  HIT:    1261724  MISS:         18
BTB BRANCH_INDIRECT_CALL	ACCESS:      74878  HIT:      74870  MISS:          8
BTB BRANCH_RETURN	ACCESS:    1336623  HIT:     759946  MISS:     576677
BTB BRANCH_OTHER ACCESS:          0  HIT:          0  MISS:          0

L2C TOTAL     ACCESS:    4333151  HIT:    2034073  MISS:    2299078  HIT %:    46.9421  MISS %:    53.0579   MPKI: 45.9816
L2C LOAD      ACCESS:    1376457  HIT:     534272  MISS:     842185  HIT %:     38.815  MISS %:     61.185   MPKI: 16.8437
L2C DATA LOAD MPKI: 16.8437
L2C INSTRUCTION LOAD MPKI: 0
L2C RFO       ACCESS:     188870  HIT:      66440  MISS:     122430  HIT %:    35.1776  MISS %:    64.8224   MPKI: 2.4486
L2C PREFETCH  ACCESS:    2468033  HIT:    1139955  MISS:    1328078  HIT %:    46.1888  MISS %:    53.8112   MPKI: 26.5616
L2C DATA PREFETCH MPKI: 26.5616
L2C INSTRUCTION PREFETCH MPKI: 0
L2C WRITEBACK ACCESS:     286158  HIT:     285960  MISS:        198  HIT %:    99.9308  MISS %:  0.0691925   MPKI: 0.00396
L2C LOAD TRANSLATION ACCESS:      13633  HIT:       7446  MISS:       6187  HIT %:    54.6175  MISS %:    45.3825   MPKI: 0.12374
L2C PREFETCH  REQUESTED:     976806  ISSUED:     976806  USEFUL:     105037  USELESS:    1222761
L2C USEFUL LOAD PREFETCHES:     105037 PREFETCH ISSUED TO LOWER LEVEL:    1330825  ACCURACY: 7.89262
L2C TIMELY PREFETCHES:     105037 LATE PREFETCHES: 2747 DROPPED PREFETCHES: 0
L2C PREFETCHES SAME FILL-ORIGIN LEVEL: 349232 DIFFERENT FILL-ORIGIN LEVEL: 0
L2C AVERAGE MISS LATENCY: 102.159 cycles
L2C RQ	ACCESS:    1578974	FORWARD:          0	MERGED:          0	TO_CACHE:    1578960
L2C WQ	ACCESS:     286158	FORWARD:         19	MERGED:          0	TO_CACHE:     286158
L2C PQ	ACCESS:    2931627	FORWARD:          0	MERGED:     221426	TO_CACHE:    2710196

L2C Instructions Evicting Data 0
L2C Translations Evicting Data 6148
L2C Data Evicting Data 2286564
L2C Instructions Evicting Instructions 0
L2C Translations Evicting Instructions 0
L2C Data Evicting Instructions 0
L2C Instructions Evicting Translations 0
L2C Translations Evicting Translations 39
L2C Data Evicting Translations 6129
L2C Dense regions hint from L2: 0
PSCL5 TOTAL     ACCESS:      13537  HIT:      13537  MISS:          0  HIT %:        100  MISS %:          0   MPKI: 0
PSCL5 LOAD TRANSLATION ACCESS:      13537  HIT:      13537  MISS:          0  HIT %:        100  MISS %:          0   MPKI: 0
PSCL5 PREFETCH  REQUESTED:          0  ISSUED:          0  USEFUL:          0  USELESS:          0
PSCL5 USEFUL LOAD PREFETCHES:          0 PREFETCH ISSUED TO LOWER LEVEL:          0  ACCURACY: -nan
PSCL5 TIMELY PREFETCHES:          0 LATE PREFETCHES: 0 DROPPED PREFETCHES: 0
PSCL5 PREFETCHES SAME FILL-ORIGIN LEVEL: 0 DIFFERENT FILL-ORIGIN LEVEL: 0

PSCL4 TOTAL     ACCESS:      13537  HIT:      13537  MISS:          0  HIT %:        100  MISS %:          0   MPKI: 0
PSCL4 LOAD TRANSLATION ACCESS:      13537  HIT:      13537  MISS:          0  HIT %:        100  MISS %:          0   MPKI: 0
PSCL4 PREFETCH  REQUESTED:          0  ISSUED:          0  USEFUL:          0  USELESS:          0
PSCL4 USEFUL LOAD PREFETCHES:          0 PREFETCH ISSUED TO LOWER LEVEL:          0  ACCURACY: -nan
PSCL4 TIMELY PREFETCHES:          0 LATE PREFETCHES: 0 DROPPED PREFETCHES: 0
PSCL4 PREFETCHES SAME FILL-ORIGIN LEVEL: 0 DIFFERENT FILL-ORIGIN LEVEL: 0

PSCL3 TOTAL     ACCESS:      13537  HIT:      13537  MISS:          0  HIT %:        100  MISS %:          0   MPKI: 0
PSCL3 LOAD TRANSLATION ACCESS:      13537  HIT:      13537  MISS:          0  HIT %:        100  MISS %:          0   MPKI: 0
PSCL3 PREFETCH  REQUESTED:          0  ISSUED:          0  USEFUL:          0  USELESS:          0
PSCL3 USEFUL LOAD PREFETCHES:          0 PREFETCH ISSUED TO LOWER LEVEL:          0  ACCURACY: -nan
PSCL3 TIMELY PREFETCHES:          0 LATE PREFETCHES: 0 DROPPED PREFETCHES: 0
PSCL3 PREFETCHES SAME FILL-ORIGIN LEVEL: 0 DIFFERENT FILL-ORIGIN LEVEL: 0

PSCL2 TOTAL     ACCESS:      13537  HIT:      13374  MISS:        163  HIT %:    98.7959  MISS %:    1.20411   MPKI: 0.00326
PSCL2 LOAD TRANSLATION ACCESS:      13537  HIT:      13374  MISS:        163  HIT %:    98.7959  MISS %:    1.20411   MPKI: 0.00326
PSCL2 PREFETCH  REQUESTED:          0  ISSUED:          0  USEFUL:          0  USELESS:          0
PSCL2 USEFUL LOAD PREFETCHES:          0 PREFETCH ISSUED TO LOWER LEVEL:          0  ACCURACY: -nan
PSCL2 TIMELY PREFETCHES:          0 LATE PREFETCHES: 0 DROPPED PREFETCHES: 0
PSCL2 PREFETCHES SAME FILL-ORIGIN LEVEL: 0 DIFFERENT FILL-ORIGIN LEVEL: 0

LLC TOTAL     ACCESS:    2479202  HIT:    1563551  MISS:     915651  HIT %:    63.0667  MISS %:    36.9333   MPKI: 18.313
LLC LOAD      ACCESS:     839439  HIT:     605313  MISS:     234126  HIT %:    72.1092  MISS %:    27.8908   MPKI: 4.68252
LLC RFO       ACCESS:     122428  HIT:     122128  MISS:        300  HIT %:     99.755  MISS %:   0.245042   MPKI: 0.006
LLC PREFETCH  ACCESS:    1330825  HIT:     651752  MISS:     679073  HIT %:    48.9735  MISS %:    51.0265   MPKI: 13.5815
LLC WRITEBACK ACCESS:     180323  HIT:     180241  MISS:         82  HIT %:    99.9545  MISS %:   0.045474   MPKI: 0.00164
LLC LOAD TRANSLATION ACCESS:       6187  HIT:       4117  MISS:       2070  HIT %:    66.5428  MISS %:    33.4572   MPKI: 0.0414
LLC PREFETCH  REQUESTED:          0  ISSUED:          0  USEFUL:      63397  USELESS:     615954
LLC USEFUL LOAD PREFETCHES:      63397 PREFETCH ISSUED TO LOWER LEVEL:     679073  ACCURACY: 9.33582
LLC TIMELY PREFETCHES:      63397 LATE PREFETCHES: 0 DROPPED PREFETCHES: 0
LLC PREFETCHES SAME FILL-ORIGIN LEVEL: 0 DIFFERENT FILL-ORIGIN LEVEL: 0
LLC AVERAGE MISS LATENCY: 180.918 cycles
LLC RQ	ACCESS:     968055	FORWARD:          0	MERGED:          0	TO_CACHE:     968054
LLC WQ	ACCESS:     180323	FORWARD:          1	MERGED:          0	TO_CACHE:     180323
LLC PQ	ACCESS:    1330825	FORWARD:          0	MERGED:          0	TO_CACHE:    1330825

LLC Dense regions hint to LLC: 0

RAW hits: 724100
Loads Generated: 17525886
Loads sent to L1D: 16801784
Stores Generated: 5753549
Stores sent to L1D: 5753549
Major fault: 0 Minor fault: 9976
Allocated PAGES: 9976

stream: 
stream:times selected: 6222629
stream:pref_filled: 1552873
stream:pref_useful: 117889
stream:pref_late: 2240
stream:misses: 359519
stream:misses_by_poll: 0

CS: 
CS:times selected: 829497
CS:pref_filled: 474373
CS:pref_useful: 463471
CS:pref_late: 75912
CS:misses: 115629
CS:misses_by_poll: 2228

CPLX: 
CPLX:times selected: 5350476
CPLX:pref_filled: 223712
CPLX:pref_useful: 25988
CPLX:pref_late: 462
CPLX:misses: 1258373
CPLX:misses_by_poll: 442

NL_L1: 
NL:times selected: 41144
NL:pref_filled: 12766
NL:pref_useful: 1039
NL:pref_late: 13
NL:misses: 12586
NL:misses_by_poll: 1

total selections: 12443746
total_filled: 1886560
total_useful: 504127
total_late: 82087
total_polluted: 2671
total_misses_after_warmup: 1459144
conflicts: 87856
Degree Incremented Times: 77035
Degree Decremented Times: 192208

L1 IP Table Write Accesses: 12942677
L1 IP Table Read Accesses: 12854821
L1 RST Write Accesses: 5182047
L1 RST Read Accesses: 10364094
L1 CSPT Write Accesses: 5182047
L1 CSPT Read Accesses: 9651431
L1 RR Filter Tag Write Accesses: 3766204
L1 RR Filter Tag Read Accesses: 204306995
L1 IP Table Tag Write Accesses: 13157349
L1 IP Table Tag Read Accesses: 13157349
L1 RST Tag Write Accesses: 0
L1 RST Tag Read Accesses: 45393582
L1 RR Filter Write Accesses: 0
L1 RR Filter Read Accesses: 7550056
test: 2891784
L2 IP Table Read Accesses: 6352604
L2 IP Table Write Accesses: 4979601
L2 IP Table Tag Read Accesses: 3178287
L2 IP Table Tag Write Accesses: 3178287

DRAM Statistics
 CHANNEL 0
 RQ ROW_BUFFER_HIT:     173640  ROW_BUFFER_MISS:     741928
 DBUS_CONGESTED:         48
 WQ ROW_BUFFER_HIT:        469  ROW_BUFFER_MISS:       2914  FULL:          0

 AVG_CONGESTED_CYCLE: 5
 All warmup complete: 2
Channel 0 Bank busy for read cycles: 0
Channel 0 Bank busy for write cycles: 0
Channel 0
Rank 0
0banks busy for read cycles: 149685654
0banks busy for write cycles: 3062
1banks busy for read cycles: 13013761
1banks busy for write cycles: 677421
2banks busy for read cycles: 10628442
2banks busy for write cycles: 57132
3banks busy for read cycles: 7664651
3banks busy for write cycles: 5933
4banks busy for read cycles: 5537054
4banks busy for write cycles: 755
5banks busy for read cycles: 3584094
5banks busy for write cycles: 454
6banks busy for read cycles: 2040036
6banks busy for write cycles: 0
7banks busy for read cycles: 985014
7banks busy for write cycles: 0
8banks busy for read cycles: 438006
8banks busy for write cycles: 0

CPU 0 Branch Prediction Accuracy: 89.0487% MPKI: 27.313 Average ROB Occupancy at Mispredict: 12.844
Branch types
NOT_BRANCH: 37529454 75.0589%
BRANCH_DIRECT_JUMP: 1326301 2.6526%
BRANCH_INDIRECT: 0 0%
BRANCH_CONDITIONAL: 8470661 16.9413%
BRANCH_DIRECT_CALL: 1261742 2.52348%
BRANCH_INDIRECT_CALL: 74878 0.149756%
BRANCH_RETURN: 1336623 2.67325%
BRANCH_OTHER: 0 0%

@sumon_overall_L1D    504127     67859   1382471   1886560   7528403   7528403
@Sumon_Early_by_class_L1D     98669    381577     23026         6
@Sumon_Late_by_class_L1D      1424     63578       411         6

@Sumon_Early_by_cycle_L1D     70560     49277    126588     76700     24068     19499     23266     28108     29873     32631     15448      8109
@Sumon_Late_by_cycle_L1D     31657     32110      4039        53         0         0         0         0         0         0         0         0
@Sumon_Early_stream_L1D      7269      2715      3257      1238       938      4915      6184     10691     17722     25433     11742      6565
@Sumon_Early_CS_L1D     62613     45755    121595     73500     21414     11724     16263     15843      9254      2208       822       586
@Sumon_Early_CPLX_L1D       634       786      1724      1942      1687      2694       754      1482      2746      4816      2832       929
@Sumon_Late_stream_L1D      1163       225        34         2         0         0         0         0         0         0         0         0
@Sumon_Late_CS_L1D     27736     31792      3999        51         0         0         0         0         0         0         0         0
@Sumon_Late_CPLX_L1D       312        93         6         0         0         0         0         0         0         0         0         0
@sumon_overall_L2C    105037      2747   1222761   1328078    976806    976806
@Sumon_Early_by_class_L2C     46022     52639      5964         0
@Sumon_Late_by_class_L2C         0      2638         0         0

@Sumon_Early_by_cycle_L2C      1720      3598      3935      1329       439       308        11       160       719      6022      9986     76810
@Sumon_Late_by_cycle_L2C      1701       957        89         0         0         0         0         0         0         0         0         0
@Sumon_Early_stream_L2C         0         0         0         0         0         0         0       142       655      5475      8754     30996
@Sumon_Early_CS_L2C      1679      3595      3934      1328       439       308         7        10         2        94       515     40728
@Sumon_Early_CPLX_L2C         0         0         0         0         0         0         0         7        48       400       658      4851
@Sumon_Late_stream_L2C         0         0         0         0         0         0         0         0         0         0         0         0
@Sumon_Late_CS_L2C      1593       956        89         0         0         0         0         0         0         0         0         0
@Sumon_Late_CPLX_L2C         0         0         0         0         0         0         0         0         0         0         0         0
DRAM PAGES: 1048576
Allocated PAGES: 9976
