
*** ChampSim Multicore Out-of-Order Simulator ***

Warmup Instructions: 10000000
Simulation Instructions: 50000000
Number of CPUs: 1
LLC sets: 2048
LLC ways: 16
Off-chip DRAM Size: 4096 MB Channels: 1 Width: 64-bit Data Rate: 6400 MT/s
CPU 0 runs traces/SPEC2017/605.mcf_s-1554B.champsimtrace.xz
.xz
CPU 0 Bimodal branch predictor
BTB has LRU replacement policy
ITLB has LRU replacement policy
DTLB has LRU replacement policy
STLB has LRU replacement policy
L1I has LRU replacement policy
IP Table Entries: 256
L1D has LRU replacement policy
IP_Table L2 entries: 256
L2C has LRU replacement policy
Initialize SRRIP state
Heartbeat CPU 0 instructions: 10000001 cycles: 3512037 heartbeat IPC: 2.84735 cumulative IPC: 2.84735 (Simulation time: 0 hr 37 min 18 sec) 

Warmup complete CPU 0 instructions: 10000001 cycles: 3512037 (Simulation time: 0 hr 37 min 18 sec) 

Heartbeat CPU 0 instructions: 20000000 cycles: 38991522 heartbeat IPC: 0.281853 cumulative IPC: 0.281853 (Simulation time: 1 hr 28 min 48 sec) 
Heartbeat CPU 0 instructions: 30000002 cycles: 74062660 heartbeat IPC: 0.285135 cumulative IPC: 0.283484 (Simulation time: 2 hr 6 min 20 sec) 
Heartbeat CPU 0 instructions: 40000000 cycles: 109431794 heartbeat IPC: 0.282732 cumulative IPC: 0.283233 (Simulation time: 2 hr 21 min 3 sec) 
Heartbeat CPU 0 instructions: 50000001 cycles: 144684915 heartbeat IPC: 0.283663 cumulative IPC: 0.283341 (Simulation time: 2 hr 28 min 54 sec) 
Heartbeat CPU 0 instructions: 60000001 cycles: 180010983 heartbeat IPC: 0.283077 cumulative IPC: 0.283288 (Simulation time: 2 hr 32 min 9 sec) 
Finished CPU 0 instructions: 50000000 cycles: 176498946 cumulative IPC: 0.283288 (Simulation time: 2 hr 32 min 9 sec) 

ChampSim completed all CPUs

Region of Interest Statistics

CPU 0 cumulative IPC: 0.283288 instructions: 50000000 cycles: 176498946
ITLB TOTAL     ACCESS:   10550974  HIT:   10550974  MISS:          0  HIT %:        100  MISS %:          0   MPKI: 0
ITLB LOAD TRANSLATION ACCESS:   10550974  HIT:   10550974  MISS:          0  HIT %:        100  MISS %:          0   MPKI: 0
ITLB PREFETCH  REQUESTED:          0  ISSUED:          0  USEFUL:          0  USELESS:          0
ITLB USEFUL LOAD PREFETCHES:          0 PREFETCH ISSUED TO LOWER LEVEL:          0  ACCURACY: -nan
ITLB TIMELY PREFETCHES:          0 LATE PREFETCHES: 0 DROPPED PREFETCHES: 0
ITLB PREFETCHES SAME FILL-ORIGIN LEVEL: 0 DIFFERENT FILL-ORIGIN LEVEL: 0
ITLB AVERAGE MISS LATENCY: -nan cycles
ITLB RQ	ACCESS:   12794771	FORWARD:          0	MERGED:    2243797	TO_CACHE:   10550974

DTLB TOTAL     ACCESS:   16104318  HIT:   15907181  MISS:     197137  HIT %:    98.7759  MISS %:    1.22413   MPKI: 3.94274
DTLB LOAD TRANSLATION ACCESS:   16104318  HIT:   15907181  MISS:     197137  HIT %:    98.7759  MISS %:    1.22413   MPKI: 3.94274
DTLB PREFETCH  REQUESTED:          0  ISSUED:          0  USEFUL:          0  USELESS:          0
DTLB USEFUL LOAD PREFETCHES:          0 PREFETCH ISSUED TO LOWER LEVEL:          0  ACCURACY: -nan
DTLB TIMELY PREFETCHES:          0 LATE PREFETCHES: 0 DROPPED PREFETCHES: 0
DTLB PREFETCHES SAME FILL-ORIGIN LEVEL: 0 DIFFERENT FILL-ORIGIN LEVEL: 0
DTLB AVERAGE MISS LATENCY: 13.202 cycles
DTLB RQ	ACCESS:   19674448	FORWARD:          0	MERGED:    3564521	TO_CACHE:   16109927

STLB TOTAL     ACCESS:    6352824  HIT:    6348402  MISS:       4422  HIT %:    99.9304  MISS %:  0.0696068   MPKI: 0.08844
STLB LOAD TRANSLATION ACCESS:     197137  HIT:     192716  MISS:       4421  HIT %:    97.7574  MISS %:     2.2426   MPKI: 0.08842
STLB TRANSLATION FROM L1D PREFETCHER ACCESS:    6155687  HIT:    6155686  MISS:          1  HIT %:        100  MISS %: 1.62451e-05   MPKI: 2e-05
STLB PREFETCH  REQUESTED:          0  ISSUED:          0  USEFUL:          1  USELESS:          0
STLB USEFUL LOAD PREFETCHES:          1 PREFETCH ISSUED TO LOWER LEVEL:          0  ACCURACY: inf
STLB TIMELY PREFETCHES:          1 LATE PREFETCHES: 0 DROPPED PREFETCHES: 0
STLB PREFETCHES SAME FILL-ORIGIN LEVEL: 0 DIFFERENT FILL-ORIGIN LEVEL: 0
STLB AVERAGE MISS LATENCY: 186.757 cycles
STLB RQ	ACCESS:   19927320	FORWARD:          0	MERGED:   13574497	TO_CACHE:    6352823

STLB Hit, L1D data hit: 0
STLB Hit, L2C data hit: 0
STLB Hit, LLC data hit: 0
STLB Hit, LLC data miss: 0
STLB STLB hints to L2: 0
L1D TOTAL     ACCESS:   34737501  HIT:   22546855  MISS:   12190646  HIT %:    64.9064  MISS %:    35.0936   MPKI: 243.813
L1D LOAD      ACCESS:   16214078  HIT:   12735118  MISS:    3478960  HIT %:    78.5436  MISS %:    21.4564   MPKI: 69.5792
L1D RFO       ACCESS:    2531895  HIT:    2382534  MISS:     149361  HIT %:    94.1008  MISS %:    5.89918   MPKI: 2.98722
L1D PREFETCH  ACCESS:   15991528  HIT:    7429203  MISS:    8562325  HIT %:    46.4571  MISS %:    53.5429   MPKI: 171.246
L1D PREFETCH  REQUESTED:   44338573  ISSUED:   39510821  USEFUL:    4059988  USELESS:    4502341
L1D USEFUL LOAD PREFETCHES:    4059988 PREFETCH ISSUED TO LOWER LEVEL:   10344783  ACCURACY: 39.2467
L1D TIMELY PREFETCHES:    4059988 LATE PREFETCHES: 1782367 DROPPED PREFETCHES: 0
L1D PREFETCHES SAME FILL-ORIGIN LEVEL: 10344783 DIFFERENT FILL-ORIGIN LEVEL: 0
L1D AVERAGE MISS LATENCY: 1.34005e+07 cycles
L1D RQ	ACCESS:   20638971	FORWARD:          0	MERGED:    3939772	TO_CACHE:   16671102
L1D WQ	ACCESS:    3596625	FORWARD:      28097	MERGED:     593279	TO_CACHE:    3003346
L1D PQ	ACCESS:   19780638	FORWARD:          0	MERGED:      50455	TO_CACHE:   19730183

L1D UNIQUE REGIONS ACCESSED: 0
L1D REGIONS CONFLICTS: 0
L1D Cross Page Prefetch Requests: 0
L1D Same Page Prefetch Requests: 22630287
L1D ROI Sum of L1D PQ occupancy: 989151008
L1D PREFETCHES PUSHED FROM L2C: 0
L1I TOTAL     ACCESS:   12794767  HIT:   12794767  MISS:          0  HIT %:        100  MISS %:          0   MPKI: 0
L1I LOAD      ACCESS:   12794767  HIT:   12794767  MISS:          0  HIT %:        100  MISS %:          0   MPKI: 0
L1I PREFETCH  REQUESTED:          0  ISSUED:          0  USEFUL:          0  USELESS:          0
L1I USEFUL LOAD PREFETCHES:          0 PREFETCH ISSUED TO LOWER LEVEL:          0  ACCURACY: -nan
L1I TIMELY PREFETCHES:          0 LATE PREFETCHES: 0 DROPPED PREFETCHES: 0
L1I PREFETCHES SAME FILL-ORIGIN LEVEL: 0 DIFFERENT FILL-ORIGIN LEVEL: 0
L1I AVERAGE MISS LATENCY: -nan cycles
L1I RQ	ACCESS:   17592851	FORWARD:          0	MERGED:    4798080	TO_CACHE:   12794771

BTB TOTAL     ACCESS:    8799468  HIT:    8799436  MISS:         32  HIT %:    99.9996  MISS %: 0.000363658   MPKI: 0.00064
BTB BRANCH_DIRECT_JUMP	ACCESS:    2054756  HIT:    2054750  MISS:          6
BTB BRANCH_INDIRECT	ACCESS:          0  HIT:          0  MISS:          0
BTB BRANCH_CONDITIONAL	ACCESS:    6743908  HIT:    6743886  MISS:         22
BTB BRANCH_DIRECT_CALL	ACCESS:        402  HIT:        400  MISS:          2
BTB BRANCH_INDIRECT_CALL	ACCESS:          0  HIT:          0  MISS:          0
BTB BRANCH_RETURN	ACCESS:        402  HIT:        400  MISS:          2
BTB BRANCH_OTHER ACCESS:          0  HIT:          0  MISS:          0

L2C TOTAL     ACCESS:   12487470  HIT:     305032  MISS:   12182438  HIT %:     2.4427  MISS %:    97.5573   MPKI: 243.649
L2C LOAD      ACCESS:    1696589  HIT:      11818  MISS:    1684771  HIT %:   0.696574  MISS %:    99.3034   MPKI: 33.6954
L2C DATA LOAD MPKI: 33.6954
L2C INSTRUCTION LOAD MPKI: 0
L2C RFO       ACCESS:     149305  HIT:        896  MISS:     148409  HIT %:   0.600114  MISS %:    99.3999   MPKI: 2.96818
L2C PREFETCH  ACCESS:   10452014  HIT:     104517  MISS:   10347497  HIT %:    0.99997  MISS %:         99   MPKI: 206.95
L2C DATA PREFETCH MPKI: 206.95
L2C INSTRUCTION PREFETCH MPKI: 0
L2C WRITEBACK ACCESS:     185140  HIT:     184574  MISS:        566  HIT %:    99.6943  MISS %:   0.305715   MPKI: 0.01132
L2C LOAD TRANSLATION ACCESS:       4421  HIT:       3227  MISS:       1194  HIT %:    72.9925  MISS %:    27.0075   MPKI: 0.02388
L2C TRANSLATION FROM L1D PREFETCHER ACCESS:          1  HIT:          0  MISS:          1  HIT %:          0  MISS %:        100   MPKI: 2e-05
L2C PREFETCH  REQUESTED:     178116  ISSUED:     178113  USEFUL:      11484  USELESS:   10336957
L2C USEFUL LOAD PREFETCHES:      11484 PREFETCH ISSUED TO LOWER LEVEL:   10347759  ACCURACY: 0.110981
L2C TIMELY PREFETCHES:      11484 LATE PREFETCHES: 253 DROPPED PREFETCHES: 0
L2C PREFETCHES SAME FILL-ORIGIN LEVEL: 67578 DIFFERENT FILL-ORIGIN LEVEL: 0
L2C AVERAGE MISS LATENCY: 159.706 cycles
L2C RQ	ACCESS:    1850325	FORWARD:          0	MERGED:          0	TO_CACHE:    1850319
L2C WQ	ACCESS:     185140	FORWARD:         14	MERGED:          0	TO_CACHE:     185140
L2C PQ	ACCESS:   10522871	FORWARD:          0	MERGED:      62441	TO_CACHE:   10460422

L2C Instructions Evicting Data 0
L2C Translations Evicting Data 1195
L2C Data Evicting Data 12179482
L2C Instructions Evicting Instructions 0
L2C Translations Evicting Instructions 0
L2C Data Evicting Instructions 0
L2C Instructions Evicting Translations 0
L2C Translations Evicting Translations 0
L2C Data Evicting Translations 1195
L2C Dense regions hint from L2: 0
PSCL5 TOTAL     ACCESS:       4422  HIT:       4422  MISS:          0  HIT %:        100  MISS %:          0   MPKI: 0
PSCL5 LOAD TRANSLATION ACCESS:       4421  HIT:       4421  MISS:          0  HIT %:        100  MISS %:          0   MPKI: 0
PSCL5 TRANSLATION FROM L1D PREFETCHER ACCESS:          1  HIT:          1  MISS:          0  HIT %:        100  MISS %:          0   MPKI: 0
PSCL5 PREFETCH  REQUESTED:          0  ISSUED:          0  USEFUL:          0  USELESS:          0
PSCL5 USEFUL LOAD PREFETCHES:          0 PREFETCH ISSUED TO LOWER LEVEL:          0  ACCURACY: -nan
PSCL5 TIMELY PREFETCHES:          0 LATE PREFETCHES: 0 DROPPED PREFETCHES: 0
PSCL5 PREFETCHES SAME FILL-ORIGIN LEVEL: 0 DIFFERENT FILL-ORIGIN LEVEL: 0

PSCL4 TOTAL     ACCESS:       4422  HIT:       4422  MISS:          0  HIT %:        100  MISS %:          0   MPKI: 0
PSCL4 LOAD TRANSLATION ACCESS:       4421  HIT:       4421  MISS:          0  HIT %:        100  MISS %:          0   MPKI: 0
PSCL4 TRANSLATION FROM L1D PREFETCHER ACCESS:          1  HIT:          1  MISS:          0  HIT %:        100  MISS %:          0   MPKI: 0
PSCL4 PREFETCH  REQUESTED:          0  ISSUED:          0  USEFUL:          0  USELESS:          0
PSCL4 USEFUL LOAD PREFETCHES:          0 PREFETCH ISSUED TO LOWER LEVEL:          0  ACCURACY: -nan
PSCL4 TIMELY PREFETCHES:          0 LATE PREFETCHES: 0 DROPPED PREFETCHES: 0
PSCL4 PREFETCHES SAME FILL-ORIGIN LEVEL: 0 DIFFERENT FILL-ORIGIN LEVEL: 0

PSCL3 TOTAL     ACCESS:       4422  HIT:       4422  MISS:          0  HIT %:        100  MISS %:          0   MPKI: 0
PSCL3 LOAD TRANSLATION ACCESS:       4421  HIT:       4421  MISS:          0  HIT %:        100  MISS %:          0   MPKI: 0
PSCL3 TRANSLATION FROM L1D PREFETCHER ACCESS:          1  HIT:          1  MISS:          0  HIT %:        100  MISS %:          0   MPKI: 0
PSCL3 PREFETCH  REQUESTED:          0  ISSUED:          0  USEFUL:          0  USELESS:          0
PSCL3 USEFUL LOAD PREFETCHES:          0 PREFETCH ISSUED TO LOWER LEVEL:          0  ACCURACY: -nan
PSCL3 TIMELY PREFETCHES:          0 LATE PREFETCHES: 0 DROPPED PREFETCHES: 0
PSCL3 PREFETCHES SAME FILL-ORIGIN LEVEL: 0 DIFFERENT FILL-ORIGIN LEVEL: 0

PSCL2 TOTAL     ACCESS:       4422  HIT:       4413  MISS:          9  HIT %:    99.7965  MISS %:   0.203528   MPKI: 0.00018
PSCL2 LOAD TRANSLATION ACCESS:       4421  HIT:       4412  MISS:          9  HIT %:    99.7964  MISS %:   0.203574   MPKI: 0.00018
PSCL2 TRANSLATION FROM L1D PREFETCHER ACCESS:          1  HIT:          1  MISS:          0  HIT %:        100  MISS %:          0   MPKI: 0
PSCL2 PREFETCH  REQUESTED:          0  ISSUED:          0  USEFUL:          0  USELESS:          0
PSCL2 USEFUL LOAD PREFETCHES:          0 PREFETCH ISSUED TO LOWER LEVEL:          0  ACCURACY: -nan
PSCL2 TIMELY PREFETCHES:          0 LATE PREFETCHES: 0 DROPPED PREFETCHES: 0
PSCL2 PREFETCHES SAME FILL-ORIGIN LEVEL: 0 DIFFERENT FILL-ORIGIN LEVEL: 0

LLC TOTAL     ACCESS:   12366341  HIT:     218631  MISS:   12147710  HIT %:    1.76795  MISS %:     98.232   MPKI: 242.954
LLC LOAD      ACCESS:    1684529  HIT:      22694  MISS:    1661835  HIT %:     1.3472  MISS %:    98.6528   MPKI: 33.2367
LLC RFO       ACCESS:     148398  HIT:        853  MISS:     147545  HIT %:   0.574806  MISS %:    99.4252   MPKI: 2.9509
LLC PREFETCH  ACCESS:   10347750  HIT:      10932  MISS:   10336818  HIT %:   0.105646  MISS %:    99.8944   MPKI: 206.736
LLC WRITEBACK ACCESS:     184469  HIT:     183999  MISS:        470  HIT %:    99.7452  MISS %:   0.254785   MPKI: 0.0094
LLC LOAD TRANSLATION ACCESS:       1194  HIT:        153  MISS:       1041  HIT %:    12.8141  MISS %:    87.1859   MPKI: 0.02082
LLC TRANSLATION FROM L1D PREFETCHER ACCESS:          1  HIT:          0  MISS:          1  HIT %:          0  MISS %:        100   MPKI: 2e-05
LLC PREFETCH  REQUESTED:          0  ISSUED:          0  USEFUL:        158  USELESS:   10339236
LLC USEFUL LOAD PREFETCHES:        158 PREFETCH ISSUED TO LOWER LEVEL:   10336825  ACCURACY: 0.00152852
LLC TIMELY PREFETCHES:        158 LATE PREFETCHES: 0 DROPPED PREFETCHES: 0
LLC PREFETCHES SAME FILL-ORIGIN LEVEL: 0 DIFFERENT FILL-ORIGIN LEVEL: 0
LLC AVERAGE MISS LATENCY: 130.01 cycles
LLC RQ	ACCESS:    1834125	FORWARD:          0	MERGED:          0	TO_CACHE:    1834125
LLC WQ	ACCESS:     184469	FORWARD:          0	MERGED:          0	TO_CACHE:     184469
LLC PQ	ACCESS:   10347759	FORWARD:          0	MERGED:          0	TO_CACHE:   10347759

LLC Dense regions hint to LLC: 0

RAW hits: 2029354
Loads Generated: 22668330
Loads sent to L1D: 20638971
Stores Generated: 3596625
Stores sent to L1D: 3596625
Major fault: 0 Minor fault: 6307
Allocated PAGES: 6307

stream: 
stream:times selected: 12262543
stream:pref_filled: 9146479
stream:pref_useful: 4166142
stream:pref_late: 1368201
stream:misses: 282780
stream:misses_by_poll: 0

CS: 
CS:times selected: 1715444
CS:pref_filled: 81432
CS:pref_useful: 62017
CS:pref_late: 1316
CS:misses: 58741
CS:misses_by_poll: 356

CPLX: 
CPLX:times selected: 10546517
CPLX:pref_filled: 1459096
CPLX:pref_useful: 1069409
CPLX:pref_late: 432396
CPLX:misses: 3798069
CPLX:misses_by_poll: 16268

NL_L1: 
NL:times selected: 29351
NL:pref_filled: 232
NL:pref_useful: 138
NL:pref_late: 1
NL:misses: 19147
NL:misses_by_poll: 0

total selections: 24553855
total_filled: 8562325
total_useful: 4059988
total_late: 1840389
total_polluted: 16624
total_misses_after_warmup: 3935988
conflicts: 20543
Degree Incremented Times: 81884
Degree Decremented Times: 0

L1 IP Table Write Accesses: 16540027
L1 IP Table Read Accesses: 16519484
L1 RST Write Accesses: 10368100
L1 RST Read Accesses: 20736200
L1 CSPT Write Accesses: 10368100
L1 CSPT Read Accesses: 35435995
L1 RR Filter Tag Write Accesses: 24608390
L1 RR Filter Tag Read Accesses: 1786295879
L1 IP Table Tag Write Accesses: 16671106
L1 IP Table Tag Read Accesses: 16671106
L1 RST Tag Write Accesses: 0
L1 RST Tag Read Accesses: 93220181
L1 RR Filter Write Accesses: 0
L1 RR Filter Read Accesses: 76043781
test: 602492
L2 IP Table Read Accesses: 24041917
L2 IP Table Write Accesses: 22345504
L2 IP Table Tag Read Accesses: 12021048
L2 IP Table Tag Write Accesses: 12021048

DRAM Statistics
 CHANNEL 0
 RQ ROW_BUFFER_HIT:    9760948  ROW_BUFFER_MISS:    2386263
 DBUS_CONGESTED:       5805
 WQ ROW_BUFFER_HIT:      29460  ROW_BUFFER_MISS:     154236  FULL:          0

 AVG_CONGESTED_CYCLE: 4
 All warmup complete: 2
Channel 0 Bank busy for read cycles: 0
Channel 0 Bank busy for write cycles: 0
Channel 0
Rank 0
0banks busy for read cycles: 2916017
0banks busy for write cycles: 257
1banks busy for read cycles: 11012595
1banks busy for write cycles: 724210
2banks busy for read cycles: 11664621
2banks busy for write cycles: 703565
3banks busy for read cycles: 12268410
3banks busy for write cycles: 362040
4banks busy for read cycles: 15755447
4banks busy for write cycles: 245488
5banks busy for read cycles: 25457249
5banks busy for write cycles: 251590
6banks busy for read cycles: 33934372
6banks busy for write cycles: 268064
7banks busy for read cycles: 30114649
7banks busy for write cycles: 538785
8banks busy for read cycles: 21437630
8banks busy for write cycles: 8843958

CPU 0 Branch Prediction Accuracy: 97.7265% MPKI: 4.14186 Average ROB Occupancy at Mispredict: 47.8131
Branch types
NOT_BRANCH: 40890864 81.7817%
BRANCH_DIRECT_JUMP: 2054756 4.10951%
BRANCH_INDIRECT: 0 0%
BRANCH_CONDITIONAL: 7053558 14.1071%
BRANCH_DIRECT_CALL: 402 0.000804%
BRANCH_INDIRECT_CALL: 0 0%
BRANCH_RETURN: 402 0.000804%
BRANCH_OTHER: 0 0%

@sumon_overall_L1D   4059988   1782367   4502341   8562325  39510821  44338573
@Sumon_Early_by_class_L1D   3268396     52147    739445         0
@Sumon_Late_by_class_L1D   1319434      1259    423207         0

@Sumon_Early_by_cycle_L1D   1216545   1109405    922241    416502    155184    212743     20187      5702      1399        79         1         0
@Sumon_Late_by_cycle_L1D    925493    722315    132441      2030        85         2         0         0         0         0         0         0
@Sumon_Early_stream_L1D   1023846    854774    739036    355390    126122    158894      7549      2342       404        38         1         0
@Sumon_Early_CS_L1D      1884      2664      4179      4656      4478     21707      9572      2599       401         7         0         0
@Sumon_Early_CPLX_L1D    190815    251967    179026     56456     24584     32142      3066       761       594        34         0         0
@Sumon_Late_stream_L1D    694674    533752     89370      1573        63         2         0         0         0         0         0         0
@Sumon_Late_CS_L1D       826       390        43         0         0         0         0         0         0         0         0         0
@Sumon_Late_CPLX_L1D    191527    188173     43028       457        22         0         0         0         0         0         0         0
@sumon_overall_L2C     11484       253  10336957  10347498    178113    178116
@Sumon_Early_by_class_L2C       332     10954       198         0
@Sumon_Late_by_class_L2C         0       243         0         0

@Sumon_Early_by_cycle_L2C       178       299       558       533       478      3141      3006      1687       931       569        81        23
@Sumon_Late_by_cycle_L2C       148        85        17         3         0         0         0         0         0         0         0         0
@Sumon_Early_stream_L2C         0         0         0         0         0         0         0         2        97       187        37         9
@Sumon_Early_CS_L2C       178       299       558       533       478      3141      3006      1685       793       276         7         0
@Sumon_Early_CPLX_L2C         0         0         0         0         0         0         0         0        41       106        37        14
@Sumon_Late_stream_L2C         0         0         0         0         0         0         0         0         0         0         0         0
@Sumon_Late_CS_L2C       138        85        17         3         0         0         0         0         0         0         0         0
@Sumon_Late_CPLX_L2C         0         0         0         0         0         0         0         0         0         0         0         0
DRAM PAGES: 1048576
Allocated PAGES: 6307
