
*** ChampSim Multicore Out-of-Order Simulator ***

Warmup Instructions: 10000000
Simulation Instructions: 50000000
Number of CPUs: 1
LLC sets: 2048
LLC ways: 16
Off-chip DRAM Size: 4096 MB Channels: 1 Width: 64-bit Data Rate: 6400 MT/s
CPU 0 runs traces/SPEC2017/620.omnetpp_s-874B.champsimtrace.xz
.xz
CPU 0 Bimodal branch predictor
BTB has LRU replacement policy
ITLB has LRU replacement policy
DTLB has LRU replacement policy
STLB has LRU replacement policy
L1I has LRU replacement policy
IP Table Entries: 256
L1D has LRU replacement policy
IP_Table L2 entries: 256
L2C has LRU replacement policy
Initialize SHIP state
Assign rand_sets[0]: 454  LLC: 2048
rand_sets[0]: 454
Assign rand_sets[1]: 1662  LLC: 2048
rand_sets[1]: 1662
Assign rand_sets[2]: 1921  LLC: 2048
rand_sets[2]: 1921
Assign rand_sets[3]: 1131  LLC: 2048
rand_sets[3]: 1131
Assign rand_sets[4]: 331  LLC: 2048
rand_sets[4]: 331
Assign rand_sets[5]: 1531  LLC: 2048
rand_sets[5]: 1531
Assign rand_sets[6]: 482  LLC: 2048
rand_sets[6]: 482
Assign rand_sets[7]: 1275  LLC: 2048
rand_sets[7]: 1275
Assign rand_sets[8]: 1876  LLC: 2048
rand_sets[8]: 1876
Assign rand_sets[9]: 2038  LLC: 2048
rand_sets[9]: 2038
Assign rand_sets[10]: 701  LLC: 2048
rand_sets[10]: 701
Assign rand_sets[11]: 479  LLC: 2048
rand_sets[11]: 479
Assign rand_sets[12]: 892  LLC: 2048
rand_sets[12]: 892
Assign rand_sets[13]: 1820  LLC: 2048
rand_sets[13]: 1820
Assign rand_sets[14]: 1505  LLC: 2048
rand_sets[14]: 1505
Assign rand_sets[15]: 1159  LLC: 2048
rand_sets[15]: 1159
Assign rand_sets[16]: 513  LLC: 2048
rand_sets[16]: 513
Assign rand_sets[17]: 703  LLC: 2048
rand_sets[17]: 703
Assign rand_sets[18]: 561  LLC: 2048
rand_sets[18]: 561
Assign rand_sets[19]: 990  LLC: 2048
rand_sets[19]: 990
Assign rand_sets[20]: 342  LLC: 2048
rand_sets[20]: 342
Assign rand_sets[21]: 882  LLC: 2048
rand_sets[21]: 882
Assign rand_sets[22]: 15  LLC: 2048
rand_sets[22]: 15
Assign rand_sets[23]: 71  LLC: 2048
rand_sets[23]: 71
Assign rand_sets[24]: 1127  LLC: 2048
rand_sets[24]: 1127
Assign rand_sets[25]: 1382  LLC: 2048
rand_sets[25]: 1382
Assign rand_sets[26]: 647  LLC: 2048
rand_sets[26]: 647
Assign rand_sets[27]: 857  LLC: 2048
rand_sets[27]: 857
Assign rand_sets[28]: 1450  LLC: 2048
rand_sets[28]: 1450
Assign rand_sets[29]: 1160  LLC: 2048
rand_sets[29]: 1160
Assign rand_sets[30]: 1852  LLC: 2048
rand_sets[30]: 1852
Assign rand_sets[31]: 1881  LLC: 2048
rand_sets[31]: 1881
Assign rand_sets[32]: 1770  LLC: 2048
rand_sets[32]: 1770
Assign rand_sets[33]: 1622  LLC: 2048
rand_sets[33]: 1622
Assign rand_sets[34]: 275  LLC: 2048
rand_sets[34]: 275
Assign rand_sets[35]: 635  LLC: 2048
rand_sets[35]: 635
Assign rand_sets[36]: 466  LLC: 2048
rand_sets[36]: 466
Assign rand_sets[37]: 1413  LLC: 2048
rand_sets[37]: 1413
Assign rand_sets[38]: 417  LLC: 2048
rand_sets[38]: 417
Assign rand_sets[39]: 472  LLC: 2048
rand_sets[39]: 472
Assign rand_sets[40]: 1340  LLC: 2048
rand_sets[40]: 1340
Assign rand_sets[41]: 852  LLC: 2048
rand_sets[41]: 852
Assign rand_sets[42]: 1365  LLC: 2048
rand_sets[42]: 1365
Assign rand_sets[43]: 47  LLC: 2048
rand_sets[43]: 47
Assign rand_sets[44]: 823  LLC: 2048
rand_sets[44]: 823
Assign rand_sets[45]: 686  LLC: 2048
rand_sets[45]: 686
Assign rand_sets[46]: 1637  LLC: 2048
rand_sets[46]: 1637
Assign rand_sets[47]: 1115  LLC: 2048
rand_sets[47]: 1115
Assign rand_sets[48]: 986  LLC: 2048
rand_sets[48]: 986
Assign rand_sets[49]: 258  LLC: 2048
rand_sets[49]: 258
Assign rand_sets[50]: 633  LLC: 2048
rand_sets[50]: 633
Assign rand_sets[51]: 920  LLC: 2048
rand_sets[51]: 920
Assign rand_sets[52]: 204  LLC: 2048
rand_sets[52]: 204
Assign rand_sets[53]: 227  LLC: 2048
rand_sets[53]: 227
Assign rand_sets[54]: 1818  LLC: 2048
rand_sets[54]: 1818
Assign rand_sets[55]: 886  LLC: 2048
rand_sets[55]: 886
Assign rand_sets[56]: 1422  LLC: 2048
rand_sets[56]: 1422
Assign rand_sets[57]: 607  LLC: 2048
rand_sets[57]: 607
Assign rand_sets[58]: 217  LLC: 2048
rand_sets[58]: 217
Assign rand_sets[59]: 1945  LLC: 2048
rand_sets[59]: 1945
Assign rand_sets[60]: 143  LLC: 2048
rand_sets[60]: 143
Assign rand_sets[61]: 1311  LLC: 2048
rand_sets[61]: 1311
Assign rand_sets[62]: 319  LLC: 2048
rand_sets[62]: 319
Assign rand_sets[63]: 1846  LLC: 2048
rand_sets[63]: 1846
Assign rand_sets[64]: 238  LLC: 2048
rand_sets[64]: 238
Assign rand_sets[65]: 67  LLC: 2048
rand_sets[65]: 67
Assign rand_sets[66]: 1912  LLC: 2048
rand_sets[66]: 1912
Assign rand_sets[67]: 1613  LLC: 2048
rand_sets[67]: 1613
Assign rand_sets[68]: 1293  LLC: 2048
rand_sets[68]: 1293
Assign rand_sets[69]: 1018  LLC: 2048
rand_sets[69]: 1018
Assign rand_sets[70]: 1982  LLC: 2048
rand_sets[70]: 1982
Assign rand_sets[71]: 1702  LLC: 2048
rand_sets[71]: 1702
Assign rand_sets[72]: 1498  LLC: 2048
rand_sets[72]: 1498
Assign rand_sets[73]: 228  LLC: 2048
rand_sets[73]: 228
Assign rand_sets[74]: 1414  LLC: 2048
rand_sets[74]: 1414
Assign rand_sets[75]: 1166  LLC: 2048
rand_sets[75]: 1166
Assign rand_sets[76]: 732  LLC: 2048
rand_sets[76]: 732
Assign rand_sets[77]: 297  LLC: 2048
rand_sets[77]: 297
Assign rand_sets[78]: 1133  LLC: 2048
rand_sets[78]: 1133
Assign rand_sets[79]: 846  LLC: 2048
rand_sets[79]: 846
Assign rand_sets[80]: 767  LLC: 2048
rand_sets[80]: 767
Assign rand_sets[81]: 1878  LLC: 2048
rand_sets[81]: 1878
Assign rand_sets[82]: 993  LLC: 2048
rand_sets[82]: 993
Assign rand_sets[83]: 1392  LLC: 2048
rand_sets[83]: 1392
Assign rand_sets[84]: 1568  LLC: 2048
rand_sets[84]: 1568
Assign rand_sets[85]: 1787  LLC: 2048
rand_sets[85]: 1787
Assign rand_sets[86]: 399  LLC: 2048
rand_sets[86]: 399
Assign rand_sets[87]: 1201  LLC: 2048
rand_sets[87]: 1201
Assign rand_sets[88]: 856  LLC: 2048
rand_sets[88]: 856
Assign rand_sets[89]: 773  LLC: 2048
rand_sets[89]: 773
Assign rand_sets[90]: 1680  LLC: 2048
rand_sets[90]: 1680
Assign rand_sets[91]: 1477  LLC: 2048
rand_sets[91]: 1477
Assign rand_sets[92]: 9  LLC: 2048
rand_sets[92]: 9
Assign rand_sets[93]: 1500  LLC: 2048
rand_sets[93]: 1500
Assign rand_sets[94]: 851  LLC: 2048
rand_sets[94]: 851
Assign rand_sets[95]: 973  LLC: 2048
rand_sets[95]: 973
Assign rand_sets[96]: 938  LLC: 2048
rand_sets[96]: 938
Assign rand_sets[97]: 1851  LLC: 2048
rand_sets[97]: 1851
Assign rand_sets[98]: 1608  LLC: 2048
rand_sets[98]: 1608
Assign rand_sets[99]: 1945  LLC: 2048
Assign rand_sets[99]: 1106  LLC: 2048
rand_sets[99]: 1106
Assign rand_sets[100]: 979  LLC: 2048
rand_sets[100]: 979
Assign rand_sets[101]: 338  LLC: 2048
rand_sets[101]: 338
Assign rand_sets[102]: 1693  LLC: 2048
rand_sets[102]: 1693
Assign rand_sets[103]: 6  LLC: 2048
rand_sets[103]: 6
Assign rand_sets[104]: 671  LLC: 2048
rand_sets[104]: 671
Assign rand_sets[105]: 490  LLC: 2048
rand_sets[105]: 490
Assign rand_sets[106]: 1461  LLC: 2048
rand_sets[106]: 1461
Assign rand_sets[107]: 1730  LLC: 2048
rand_sets[107]: 1730
Assign rand_sets[108]: 1030  LLC: 2048
rand_sets[108]: 1030
Assign rand_sets[109]: 19  LLC: 2048
rand_sets[109]: 19
Assign rand_sets[110]: 920  LLC: 2048
Assign rand_sets[110]: 329  LLC: 2048
rand_sets[110]: 329
Assign rand_sets[111]: 1714  LLC: 2048
rand_sets[111]: 1714
Assign rand_sets[112]: 1  LLC: 2048
rand_sets[112]: 1
Assign rand_sets[113]: 1822  LLC: 2048
rand_sets[113]: 1822
Assign rand_sets[114]: 172  LLC: 2048
rand_sets[114]: 172
Assign rand_sets[115]: 1586  LLC: 2048
rand_sets[115]: 1586
Assign rand_sets[116]: 648  LLC: 2048
rand_sets[116]: 648
Assign rand_sets[117]: 1329  LLC: 2048
rand_sets[117]: 1329
Assign rand_sets[118]: 668  LLC: 2048
rand_sets[118]: 668
Assign rand_sets[119]: 1874  LLC: 2048
rand_sets[119]: 1874
Assign rand_sets[120]: 70  LLC: 2048
rand_sets[120]: 70
Assign rand_sets[121]: 661  LLC: 2048
rand_sets[121]: 661
Assign rand_sets[122]: 1649  LLC: 2048
rand_sets[122]: 1649
Assign rand_sets[123]: 1590  LLC: 2048
rand_sets[123]: 1590
Assign rand_sets[124]: 911  LLC: 2048
rand_sets[124]: 911
Assign rand_sets[125]: 1367  LLC: 2048
rand_sets[125]: 1367
Assign rand_sets[126]: 1782  LLC: 2048
rand_sets[126]: 1782
Assign rand_sets[127]: 569  LLC: 2048
rand_sets[127]: 569
Assign rand_sets[128]: 1309  LLC: 2048
rand_sets[128]: 1309
Assign rand_sets[129]: 534  LLC: 2048
rand_sets[129]: 534
Assign rand_sets[130]: 1274  LLC: 2048
rand_sets[130]: 1274
Assign rand_sets[131]: 904  LLC: 2048
rand_sets[131]: 904
Assign rand_sets[132]: 1908  LLC: 2048
rand_sets[132]: 1908
Assign rand_sets[133]: 245  LLC: 2048
rand_sets[133]: 245
Assign rand_sets[134]: 1688  LLC: 2048
rand_sets[134]: 1688
Assign rand_sets[135]: 1660  LLC: 2048
rand_sets[135]: 1660
Assign rand_sets[136]: 1303  LLC: 2048
rand_sets[136]: 1303
Assign rand_sets[137]: 1628  LLC: 2048
rand_sets[137]: 1628
Assign rand_sets[138]: 1857  LLC: 2048
rand_sets[138]: 1857
Assign rand_sets[139]: 187  LLC: 2048
rand_sets[139]: 187
Assign rand_sets[140]: 1389  LLC: 2048
rand_sets[140]: 1389
Assign rand_sets[141]: 881  LLC: 2048
rand_sets[141]: 881
Assign rand_sets[142]: 1166  LLC: 2048
Assign rand_sets[142]: 1039  LLC: 2048
rand_sets[142]: 1039
Assign rand_sets[143]: 1136  LLC: 2048
rand_sets[143]: 1136
Assign rand_sets[144]: 601  LLC: 2048
rand_sets[144]: 601
Assign rand_sets[145]: 967  LLC: 2048
rand_sets[145]: 967
Assign rand_sets[146]: 769  LLC: 2048
rand_sets[146]: 769
Assign rand_sets[147]: 283  LLC: 2048
rand_sets[147]: 283
Assign rand_sets[148]: 559  LLC: 2048
rand_sets[148]: 559
Assign rand_sets[149]: 1075  LLC: 2048
rand_sets[149]: 1075
Assign rand_sets[150]: 829  LLC: 2048
rand_sets[150]: 829
Assign rand_sets[151]: 1681  LLC: 2048
rand_sets[151]: 1681
Assign rand_sets[152]: 1728  LLC: 2048
rand_sets[152]: 1728
Assign rand_sets[153]: 541  LLC: 2048
rand_sets[153]: 541
Assign rand_sets[154]: 421  LLC: 2048
rand_sets[154]: 421
Assign rand_sets[155]: 1037  LLC: 2048
rand_sets[155]: 1037
Assign rand_sets[156]: 13  LLC: 2048
rand_sets[156]: 13
Assign rand_sets[157]: 1707  LLC: 2048
rand_sets[157]: 1707
Assign rand_sets[158]: 1075  LLC: 2048
Assign rand_sets[158]: 1933  LLC: 2048
rand_sets[158]: 1933
Assign rand_sets[159]: 1406  LLC: 2048
rand_sets[159]: 1406
Assign rand_sets[160]: 94  LLC: 2048
rand_sets[160]: 94
Assign rand_sets[161]: 1423  LLC: 2048
rand_sets[161]: 1423
Assign rand_sets[162]: 1854  LLC: 2048
rand_sets[162]: 1854
Assign rand_sets[163]: 230  LLC: 2048
rand_sets[163]: 230
Assign rand_sets[164]: 104  LLC: 2048
rand_sets[164]: 104
Assign rand_sets[165]: 1652  LLC: 2048
rand_sets[165]: 1652
Assign rand_sets[166]: 1446  LLC: 2048
rand_sets[166]: 1446
Assign rand_sets[167]: 1338  LLC: 2048
rand_sets[167]: 1338
Assign rand_sets[168]: 177  LLC: 2048
rand_sets[168]: 177
Assign rand_sets[169]: 195  LLC: 2048
rand_sets[169]: 195
Assign rand_sets[170]: 1171  LLC: 2048
rand_sets[170]: 1171
Assign rand_sets[171]: 1297  LLC: 2048
rand_sets[171]: 1297
Assign rand_sets[172]: 1704  LLC: 2048
rand_sets[172]: 1704
Assign rand_sets[173]: 100  LLC: 2048
rand_sets[173]: 100
Assign rand_sets[174]: 711  LLC: 2048
rand_sets[174]: 711
Assign rand_sets[175]: 1243  LLC: 2048
rand_sets[175]: 1243
Assign rand_sets[176]: 1738  LLC: 2048
rand_sets[176]: 1738
Assign rand_sets[177]: 1504  LLC: 2048
rand_sets[177]: 1504
Assign rand_sets[178]: 96  LLC: 2048
rand_sets[178]: 96
Assign rand_sets[179]: 1249  LLC: 2048
rand_sets[179]: 1249
Assign rand_sets[180]: 1267  LLC: 2048
rand_sets[180]: 1267
Assign rand_sets[181]: 1727  LLC: 2048
rand_sets[181]: 1727
Assign rand_sets[182]: 1545  LLC: 2048
rand_sets[182]: 1545
Assign rand_sets[183]: 1792  LLC: 2048
rand_sets[183]: 1792
Assign rand_sets[184]: 1383  LLC: 2048
rand_sets[184]: 1383
Assign rand_sets[185]: 1954  LLC: 2048
rand_sets[185]: 1954
Assign rand_sets[186]: 739  LLC: 2048
rand_sets[186]: 739
Assign rand_sets[187]: 1061  LLC: 2048
rand_sets[187]: 1061
Assign rand_sets[188]: 672  LLC: 2048
rand_sets[188]: 672
Assign rand_sets[189]: 1057  LLC: 2048
rand_sets[189]: 1057
Assign rand_sets[190]: 1329  LLC: 2048
Assign rand_sets[190]: 1415  LLC: 2048
rand_sets[190]: 1415
Assign rand_sets[191]: 981  LLC: 2048
rand_sets[191]: 981
Assign rand_sets[192]: 98  LLC: 2048
rand_sets[192]: 98
Assign rand_sets[193]: 453  LLC: 2048
rand_sets[193]: 453
Assign rand_sets[194]: 1448  LLC: 2048
rand_sets[194]: 1448
Assign rand_sets[195]: 79  LLC: 2048
rand_sets[195]: 79
Assign rand_sets[196]: 126  LLC: 2048
rand_sets[196]: 126
Assign rand_sets[197]: 1582  LLC: 2048
rand_sets[197]: 1582
Assign rand_sets[198]: 1289  LLC: 2048
rand_sets[198]: 1289
Assign rand_sets[199]: 875  LLC: 2048
rand_sets[199]: 875
Assign rand_sets[200]: 404  LLC: 2048
rand_sets[200]: 404
Assign rand_sets[201]: 415  LLC: 2048
rand_sets[201]: 415
Assign rand_sets[202]: 1712  LLC: 2048
rand_sets[202]: 1712
Assign rand_sets[203]: 1389  LLC: 2048
Assign rand_sets[203]: 169  LLC: 2048
rand_sets[203]: 169
Assign rand_sets[204]: 158  LLC: 2048
rand_sets[204]: 158
Assign rand_sets[205]: 90  LLC: 2048
rand_sets[205]: 90
Assign rand_sets[206]: 1291  LLC: 2048
rand_sets[206]: 1291
Assign rand_sets[207]: 838  LLC: 2048
rand_sets[207]: 838
Assign rand_sets[208]: 1904  LLC: 2048
rand_sets[208]: 1904
Assign rand_sets[209]: 640  LLC: 2048
rand_sets[209]: 640
Assign rand_sets[210]: 1462  LLC: 2048
rand_sets[210]: 1462
Assign rand_sets[211]: 1487  LLC: 2048
rand_sets[211]: 1487
Assign rand_sets[212]: 1863  LLC: 2048
rand_sets[212]: 1863
Assign rand_sets[213]: 1036  LLC: 2048
rand_sets[213]: 1036
Assign rand_sets[214]: 1702  LLC: 2048
Assign rand_sets[214]: 933  LLC: 2048
rand_sets[214]: 933
Assign rand_sets[215]: 554  LLC: 2048
rand_sets[215]: 554
Assign rand_sets[216]: 1496  LLC: 2048
rand_sets[216]: 1496
Assign rand_sets[217]: 1708  LLC: 2048
rand_sets[217]: 1708
Assign rand_sets[218]: 1275  LLC: 2048
Assign rand_sets[218]: 416  LLC: 2048
rand_sets[218]: 416
Assign rand_sets[219]: 491  LLC: 2048
rand_sets[219]: 491
Assign rand_sets[220]: 183  LLC: 2048
rand_sets[220]: 183
Assign rand_sets[221]: 1657  LLC: 2048
rand_sets[221]: 1657
Assign rand_sets[222]: 1060  LLC: 2048
rand_sets[222]: 1060
Assign rand_sets[223]: 626  LLC: 2048
rand_sets[223]: 626
Assign rand_sets[224]: 1315  LLC: 2048
rand_sets[224]: 1315
Assign rand_sets[225]: 1682  LLC: 2048
rand_sets[225]: 1682
Assign rand_sets[226]: 1352  LLC: 2048
rand_sets[226]: 1352
Assign rand_sets[227]: 1152  LLC: 2048
rand_sets[227]: 1152
Assign rand_sets[228]: 965  LLC: 2048
rand_sets[228]: 965
Assign rand_sets[229]: 1190  LLC: 2048
rand_sets[229]: 1190
Assign rand_sets[230]: 1191  LLC: 2048
rand_sets[230]: 1191
Assign rand_sets[231]: 645  LLC: 2048
rand_sets[231]: 645
Assign rand_sets[232]: 695  LLC: 2048
rand_sets[232]: 695
Assign rand_sets[233]: 1495  LLC: 2048
rand_sets[233]: 1495
Assign rand_sets[234]: 1932  LLC: 2048
rand_sets[234]: 1932
Assign rand_sets[235]: 656  LLC: 2048
rand_sets[235]: 656
Assign rand_sets[236]: 1508  LLC: 2048
rand_sets[236]: 1508
Assign rand_sets[237]: 939  LLC: 2048
rand_sets[237]: 939
Assign rand_sets[238]: 355  LLC: 2048
rand_sets[238]: 355
Assign rand_sets[239]: 1092  LLC: 2048
rand_sets[239]: 1092
Assign rand_sets[240]: 850  LLC: 2048
rand_sets[240]: 850
Assign rand_sets[241]: 102  LLC: 2048
rand_sets[241]: 102
Assign rand_sets[242]: 1763  LLC: 2048
rand_sets[242]: 1763
Assign rand_sets[243]: 668  LLC: 2048
Assign rand_sets[243]: 51  LLC: 2048
rand_sets[243]: 51
Assign rand_sets[244]: 1317  LLC: 2048
rand_sets[244]: 1317
Assign rand_sets[245]: 2041  LLC: 2048
rand_sets[245]: 2041
Assign rand_sets[246]: 1374  LLC: 2048
rand_sets[246]: 1374
Assign rand_sets[247]: 682  LLC: 2048
rand_sets[247]: 682
Assign rand_sets[248]: 1466  LLC: 2048
rand_sets[248]: 1466
Assign rand_sets[249]: 1139  LLC: 2048
rand_sets[249]: 1139
Assign rand_sets[250]: 1632  LLC: 2048
rand_sets[250]: 1632
Assign rand_sets[251]: 1117  LLC: 2048
rand_sets[251]: 1117
Assign rand_sets[252]: 1611  LLC: 2048
rand_sets[252]: 1611
Assign rand_sets[253]: 1905  LLC: 2048
rand_sets[253]: 1905
Assign rand_sets[254]: 1662  LLC: 2048
Assign rand_sets[254]: 446  LLC: 2048
rand_sets[254]: 446
Assign rand_sets[255]: 1705  LLC: 2048
rand_sets[255]: 1705
Heartbeat CPU 0 instructions: 10000001 cycles: 3906854 heartbeat IPC: 2.5596 cumulative IPC: 2.5596 (Simulation time: 0 hr 26 min 29 sec) 

Warmup complete CPU 0 instructions: 10000001 cycles: 3906854 (Simulation time: 0 hr 26 min 29 sec) 

Heartbeat CPU 0 instructions: 20000000 cycles: 49059839 heartbeat IPC: 0.221469 cumulative IPC: 0.221469 (Simulation time: 0 hr 52 min 10 sec) 
Heartbeat CPU 0 instructions: 30000002 cycles: 94347502 heartbeat IPC: 0.220811 cumulative IPC: 0.22114 (Simulation time: 1 hr 17 min 53 sec) 
Heartbeat CPU 0 instructions: 40000000 cycles: 139958190 heartbeat IPC: 0.219247 cumulative IPC: 0.220505 (Simulation time: 1 hr 43 min 4 sec) 
Heartbeat CPU 0 instructions: 50000001 cycles: 185652986 heartbeat IPC: 0.218843 cumulative IPC: 0.220087 (Simulation time: 1 hr 57 min 8 sec) 
Heartbeat CPU 0 instructions: 60000001 cycles: 230980653 heartbeat IPC: 0.220616 cumulative IPC: 0.220193 (Simulation time: 2 hr 4 min 27 sec) 
Finished CPU 0 instructions: 50000000 cycles: 227073799 cumulative IPC: 0.220193 (Simulation time: 2 hr 4 min 27 sec) 

ChampSim completed all CPUs

Region of Interest Statistics

CPU 0 cumulative IPC: 0.220193 instructions: 50000000 cycles: 227073799
ITLB TOTAL     ACCESS:    8265932  HIT:    8186305  MISS:      79627  HIT %:    99.0367  MISS %:   0.963315   MPKI: 1.59254
ITLB LOAD TRANSLATION ACCESS:    8265932  HIT:    8186305  MISS:      79627  HIT %:    99.0367  MISS %:   0.963315   MPKI: 1.59254
ITLB PREFETCH  REQUESTED:          0  ISSUED:          0  USEFUL:          0  USELESS:          0
ITLB USEFUL LOAD PREFETCHES:          0 PREFETCH ISSUED TO LOWER LEVEL:          0  ACCURACY: -nan
ITLB TIMELY PREFETCHES:          0 LATE PREFETCHES: 0 DROPPED PREFETCHES: 0
ITLB PREFETCHES SAME FILL-ORIGIN LEVEL: 0 DIFFERENT FILL-ORIGIN LEVEL: 0
ITLB AVERAGE MISS LATENCY: 9.94772 cycles
ITLB RQ	ACCESS:    9321157	FORWARD:          0	MERGED:    1030858	TO_CACHE:    8290299

DTLB TOTAL     ACCESS:   19542781  HIT:   18583353  MISS:     959428  HIT %:    95.0906  MISS %:    4.90937   MPKI: 19.1886
DTLB LOAD TRANSLATION ACCESS:   19542781  HIT:   18583353  MISS:     959428  HIT %:    95.0906  MISS %:    4.90937   MPKI: 19.1886
DTLB PREFETCH  REQUESTED:          0  ISSUED:          0  USEFUL:          0  USELESS:          0
DTLB USEFUL LOAD PREFETCHES:          0 PREFETCH ISSUED TO LOWER LEVEL:          0  ACCURACY: -nan
DTLB TIMELY PREFETCHES:          0 LATE PREFETCHES: 0 DROPPED PREFETCHES: 0
DTLB PREFETCHES SAME FILL-ORIGIN LEVEL: 0 DIFFERENT FILL-ORIGIN LEVEL: 0
DTLB AVERAGE MISS LATENCY: 30.0018 cycles
DTLB RQ	ACCESS:   22021547	FORWARD:          0	MERGED:    2463773	TO_CACHE:   19557774

STLB TOTAL     ACCESS:    2862825  HIT:    2647073  MISS:     215752  HIT %:    92.4637  MISS %:    7.53633   MPKI: 4.31504
STLB LOAD TRANSLATION ACCESS:    1039055  HIT:     823303  MISS:     215752  HIT %:    79.2357  MISS %:    20.7643   MPKI: 4.31504
STLB TRANSLATION FROM L1D PREFETCHER ACCESS:    1823770  HIT:    1823770  MISS:          0  HIT %:        100  MISS %:          0   MPKI: 0
STLB PREFETCH  REQUESTED:          0  ISSUED:          0  USEFUL:          0  USELESS:          0
STLB USEFUL LOAD PREFETCHES:          0 PREFETCH ISSUED TO LOWER LEVEL:          0  ACCURACY: -nan
STLB TIMELY PREFETCHES:          0 LATE PREFETCHES: 0 DROPPED PREFETCHES: 0
STLB PREFETCHES SAME FILL-ORIGIN LEVEL: 0 DIFFERENT FILL-ORIGIN LEVEL: 0
STLB AVERAGE MISS LATENCY: 93.448 cycles
STLB RQ	ACCESS:    3289723	FORWARD:          0	MERGED:     426897	TO_CACHE:    2862826

STLB Hit, L1D data hit: 0
STLB Hit, L2C data hit: 0
STLB Hit, LLC data hit: 0
STLB Hit, LLC data miss: 0
STLB STLB hints to L2: 0
L1D TOTAL     ACCESS:   23932347  HIT:   22273497  MISS:    1658850  HIT %:    93.0686  MISS %:    6.93141   MPKI: 33.177
L1D LOAD      ACCESS:   12714713  HIT:   11969885  MISS:     744828  HIT %:     94.142  MISS %:      5.858   MPKI: 14.8966
L1D RFO       ACCESS:    9034274  HIT:    8925845  MISS:     108429  HIT %:    98.7998  MISS %:     1.2002   MPKI: 2.16858
L1D PREFETCH  ACCESS:    2183360  HIT:    1377767  MISS:     805593  HIT %:    63.1031  MISS %:    36.8969   MPKI: 16.1119
L1D PREFETCH  REQUESTED:    4501760  ISSUED:    4501758  USEFUL:     114690  USELESS:     690848
L1D USEFUL LOAD PREFETCHES:     114690 PREFETCH ISSUED TO LOWER LEVEL:     809657  ACCURACY: 14.1653
L1D TIMELY PREFETCHES:     114690 LATE PREFETCHES: 19961 DROPPED PREFETCHES: 0
L1D PREFETCHES SAME FILL-ORIGIN LEVEL: 809657 DIFFERENT FILL-ORIGIN LEVEL: 0
L1D AVERAGE MISS LATENCY: 290291 cycles
L1D RQ	ACCESS:   16240411	FORWARD:          0	MERGED:    2800739	TO_CACHE:   12815451
L1D WQ	ACCESS:    9281775	FORWARD:     624645	MERGED:      75679	TO_CACHE:    9206096
L1D PQ	ACCESS:    2251091	FORWARD:          0	MERGED:          0	TO_CACHE:    2250667

L1D UNIQUE REGIONS ACCESSED: 0
L1D REGIONS CONFLICTS: 0
L1D Cross Page Prefetch Requests: 0
L1D Same Page Prefetch Requests: 2672896
L1D ROI Sum of L1D PQ occupancy: 29228628
L1D PREFETCHES PUSHED FROM L2C: 0
L1I TOTAL     ACCESS:    9314671  HIT:    9296097  MISS:      18574  HIT %:    99.8006  MISS %:   0.199406   MPKI: 0.37148
L1I LOAD      ACCESS:    9314671  HIT:    9296097  MISS:      18574  HIT %:    99.8006  MISS %:   0.199406   MPKI: 0.37148
L1I PREFETCH  REQUESTED:          0  ISSUED:          0  USEFUL:          0  USELESS:          0
L1I USEFUL LOAD PREFETCHES:          0 PREFETCH ISSUED TO LOWER LEVEL:          0  ACCURACY: -nan
L1I TIMELY PREFETCHES:          0 LATE PREFETCHES: 0 DROPPED PREFETCHES: 0
L1I PREFETCHES SAME FILL-ORIGIN LEVEL: 0 DIFFERENT FILL-ORIGIN LEVEL: 0
L1I AVERAGE MISS LATENCY: 27.8961 cycles
L1I RQ	ACCESS:   14346839	FORWARD:          0	MERGED:    5025682	TO_CACHE:    9321157

BTB TOTAL     ACCESS:    7896296  HIT:    7421687  MISS:     474609  HIT %:    93.9895  MISS %:    6.01053   MPKI: 9.49218
BTB BRANCH_DIRECT_JUMP	ACCESS:     569513  HIT:     569409  MISS:        104
BTB BRANCH_INDIRECT	ACCESS:     168336  HIT:     146852  MISS:      21484
BTB BRANCH_CONDITIONAL	ACCESS:    4189086  HIT:    4188659  MISS:        427
BTB BRANCH_DIRECT_CALL	ACCESS:     886019  HIT:     885794  MISS:        225
BTB BRANCH_INDIRECT_CALL	ACCESS:     598662  HIT:     596661  MISS:       2001
BTB BRANCH_RETURN	ACCESS:    1484680  HIT:    1034312  MISS:     450368
BTB BRANCH_OTHER ACCESS:          0  HIT:          0  MISS:          0

L2C TOTAL     ACCESS:    2541437  HIT:    1202357  MISS:    1339080  HIT %:    47.3101  MISS %:    52.6899   MPKI: 26.7816
L2C LOAD      ACCESS:     763378  HIT:     262150  MISS:     501228  HIT %:    34.3408  MISS %:    65.6592   MPKI: 10.0246
L2C DATA LOAD MPKI: 9.92118
L2C INSTRUCTION LOAD MPKI: 0.10338
L2C RFO       ACCESS:     104358  HIT:      24199  MISS:      80159  HIT %:    23.1884  MISS %:    76.8116   MPKI: 1.60318
L2C PREFETCH  ACCESS:     890191  HIT:     271888  MISS:     618303  HIT %:    30.5427  MISS %:    69.4573   MPKI: 12.3661
L2C DATA PREFETCH MPKI: 12.3661
L2C INSTRUCTION PREFETCH MPKI: 0
L2C WRITEBACK ACCESS:     477883  HIT:     475947  MISS:       1936  HIT %:    99.5949  MISS %:    0.40512   MPKI: 0.03872
L2C LOAD TRANSLATION ACCESS:     305627  HIT:     168173  MISS:     137454  HIT %:    55.0256  MISS %:    44.9744   MPKI: 2.74908
L2C PREFETCH  REQUESTED:      85762  ISSUED:      85762  USEFUL:      42573  USELESS:     575641
L2C USEFUL LOAD PREFETCHES:      42573 PREFETCH ISSUED TO LOWER LEVEL:     619037  ACCURACY: 6.87729
L2C TIMELY PREFETCHES:      42573 LATE PREFETCHES: 735 DROPPED PREFETCHES: 0
L2C PREFETCHES SAME FILL-ORIGIN LEVEL: 47574 DIFFERENT FILL-ORIGIN LEVEL: 0
L2C AVERAGE MISS LATENCY: 141.64 cycles
L2C RQ	ACCESS:    1173393	FORWARD:          0	MERGED:          0	TO_CACHE:    1173363
L2C WQ	ACCESS:     477883	FORWARD:         37	MERGED:          0	TO_CACHE:     477883
L2C PQ	ACCESS:     895419	FORWARD:          0	MERGED:       1712	TO_CACHE:     893700

L2C Instructions Evicting Data 4576
L2C Translations Evicting Data 124390
L2C Data Evicting Data 1065569
L2C Instructions Evicting Instructions 147
L2C Translations Evicting Instructions 490
L2C Data Evicting Instructions 4536
L2C Instructions Evicting Translations 446
L2C Translations Evicting Translations 12574
L2C Data Evicting Translations 124416
L2C Dense regions hint from L2: 0
PSCL5 TOTAL     ACCESS:     215752  HIT:     215752  MISS:          0  HIT %:        100  MISS %:          0   MPKI: 0
PSCL5 LOAD TRANSLATION ACCESS:     215752  HIT:     215752  MISS:          0  HIT %:        100  MISS %:          0   MPKI: 0
PSCL5 PREFETCH  REQUESTED:          0  ISSUED:          0  USEFUL:          0  USELESS:          0
PSCL5 USEFUL LOAD PREFETCHES:          0 PREFETCH ISSUED TO LOWER LEVEL:          0  ACCURACY: -nan
PSCL5 TIMELY PREFETCHES:          0 LATE PREFETCHES: 0 DROPPED PREFETCHES: 0
PSCL5 PREFETCHES SAME FILL-ORIGIN LEVEL: 0 DIFFERENT FILL-ORIGIN LEVEL: 0

PSCL4 TOTAL     ACCESS:     215752  HIT:     215752  MISS:          0  HIT %:        100  MISS %:          0   MPKI: 0
PSCL4 LOAD TRANSLATION ACCESS:     215752  HIT:     215752  MISS:          0  HIT %:        100  MISS %:          0   MPKI: 0
PSCL4 PREFETCH  REQUESTED:          0  ISSUED:          0  USEFUL:          0  USELESS:          0
PSCL4 USEFUL LOAD PREFETCHES:          0 PREFETCH ISSUED TO LOWER LEVEL:          0  ACCURACY: -nan
PSCL4 TIMELY PREFETCHES:          0 LATE PREFETCHES: 0 DROPPED PREFETCHES: 0
PSCL4 PREFETCHES SAME FILL-ORIGIN LEVEL: 0 DIFFERENT FILL-ORIGIN LEVEL: 0

PSCL3 TOTAL     ACCESS:     215752  HIT:     215752  MISS:          0  HIT %:        100  MISS %:          0   MPKI: 0
PSCL3 LOAD TRANSLATION ACCESS:     215752  HIT:     215752  MISS:          0  HIT %:        100  MISS %:          0   MPKI: 0
PSCL3 PREFETCH  REQUESTED:          0  ISSUED:          0  USEFUL:          0  USELESS:          0
PSCL3 USEFUL LOAD PREFETCHES:          0 PREFETCH ISSUED TO LOWER LEVEL:          0  ACCURACY: -nan
PSCL3 TIMELY PREFETCHES:          0 LATE PREFETCHES: 0 DROPPED PREFETCHES: 0
PSCL3 PREFETCHES SAME FILL-ORIGIN LEVEL: 0 DIFFERENT FILL-ORIGIN LEVEL: 0

PSCL2 TOTAL     ACCESS:     215752  HIT:     125877  MISS:      89875  HIT %:    58.3434  MISS %:    41.6566   MPKI: 1.7975
PSCL2 LOAD TRANSLATION ACCESS:     215752  HIT:     125877  MISS:      89875  HIT %:    58.3434  MISS %:    41.6566   MPKI: 1.7975
PSCL2 PREFETCH  REQUESTED:          0  ISSUED:          0  USEFUL:          0  USELESS:          0
PSCL2 USEFUL LOAD PREFETCHES:          0 PREFETCH ISSUED TO LOWER LEVEL:          0  ACCURACY: -nan
PSCL2 TIMELY PREFETCHES:          0 LATE PREFETCHES: 0 DROPPED PREFETCHES: 0
PSCL2 PREFETCHES SAME FILL-ORIGIN LEVEL: 0 DIFFERENT FILL-ORIGIN LEVEL: 0

LLC TOTAL     ACCESS:    1693732  HIT:     678489  MISS:    1015243  HIT %:    40.0588  MISS %:    59.9412   MPKI: 20.3049
LLC LOAD      ACCESS:     500557  HIT:     150210  MISS:     350347  HIT %:    30.0086  MISS %:    69.9914   MPKI: 7.00694
LLC RFO       ACCESS:      80094  HIT:      33544  MISS:      46550  HIT %:    41.8808  MISS %:    58.1192   MPKI: 0.931
LLC PREFETCH  ACCESS:     619036  HIT:     140003  MISS:     479033  HIT %:    22.6163  MISS %:    77.3837   MPKI: 9.58066
LLC WRITEBACK ACCESS:     356591  HIT:     256323  MISS:     100268  HIT %:    71.8815  MISS %:    28.1185   MPKI: 2.00536
LLC LOAD TRANSLATION ACCESS:     137454  HIT:      98409  MISS:      39045  HIT %:    71.5941  MISS %:    28.4059   MPKI: 0.7809
LLC PREFETCH  REQUESTED:          0  ISSUED:          0  USEFUL:      17650  USELESS:     461821
LLC USEFUL LOAD PREFETCHES:      17650 PREFETCH ISSUED TO LOWER LEVEL:     479033  ACCURACY: 3.68451
LLC TIMELY PREFETCHES:      17650 LATE PREFETCHES: 0 DROPPED PREFETCHES: 0
LLC PREFETCHES SAME FILL-ORIGIN LEVEL: 0 DIFFERENT FILL-ORIGIN LEVEL: 0
LLC AVERAGE MISS LATENCY: 146.95 cycles
LLC RQ	ACCESS:     718106	FORWARD:          0	MERGED:          0	TO_CACHE:     718105
LLC WQ	ACCESS:     356591	FORWARD:          3	MERGED:          0	TO_CACHE:     356591
LLC PQ	ACCESS:     619037	FORWARD:          0	MERGED:          0	TO_CACHE:     619035

LLC Dense regions hint to LLC: 0

RAW hits: 648649
Loads Generated: 16889060
Loads sent to L1D: 16240411
Stores Generated: 9281774
Stores sent to L1D: 9281775
Major fault: 0 Minor fault: 45883
Allocated PAGES: 45883

stream: 
stream:times selected: 4002061
stream:pref_filled: 633577
stream:pref_useful: 118456
stream:pref_late: 13182
stream:misses: 150498
stream:misses_by_poll: 0

CS: 
CS:times selected: 32442
CS:pref_filled: 12276
CS:pref_useful: 1924
CS:pref_late: 1
CS:misses: 738
CS:misses_by_poll: 0

CPLX: 
CPLX:times selected: 3972759
CPLX:pref_filled: 302833
CPLX:pref_useful: 14474
CPLX:pref_late: 593
CPLX:misses: 485315
CPLX:misses_by_poll: 758

NL_L1: 
NL:times selected: 17337
NL:pref_filled: 6261
NL:pref_useful: 1245
NL:pref_late: 173
NL:misses: 5252
NL:misses_by_poll: 0

total selections: 8024599
total_filled: 805593
total_useful: 114690
total_late: 14027
total_polluted: 758
total_misses_after_warmup: 845564
conflicts: 1770030
Degree Incremented Times: 0
Degree Decremented Times: 249679

L1 IP Table Write Accesses: 9537574
L1 IP Table Read Accesses: 7767544
L1 RST Write Accesses: 3427849
L1 RST Read Accesses: 6855698
L1 CSPT Write Accesses: 3427849
L1 CSPT Read Accesses: 6829836
L1 RR Filter Tag Write Accesses: 2251093
L1 RR Filter Tag Read Accesses: 127708430
L1 IP Table Tag Write Accesses: 12815449
L1 IP Table Tag Read Accesses: 12815449
L1 RST Tag Write Accesses: 0
L1 RST Tag Read Accesses: 29528262
L1 RR Filter Write Accesses: 0
L1 RR Filter Read Accesses: 4405292
test: 1931652
L2 IP Table Read Accesses: 3015944
L2 IP Table Write Accesses: 2375251
L2 IP Table Tag Read Accesses: 1551351
L2 IP Table Tag Write Accesses: 1551351

DRAM Statistics
 CHANNEL 0
 RQ ROW_BUFFER_HIT:     116315  ROW_BUFFER_MISS:     798659
 DBUS_CONGESTED:        242
 WQ ROW_BUFFER_HIT:      48248  ROW_BUFFER_MISS:     183950  FULL:          0

 AVG_CONGESTED_CYCLE: 5
 All warmup complete: 2
Channel 0 Bank busy for read cycles: 0
Channel 0 Bank busy for write cycles: 0
Channel 0
Rank 0
0banks busy for read cycles: 121160916
0banks busy for write cycles: 129843
1banks busy for read cycles: 42246654
1banks busy for write cycles: 19306008
2banks busy for read cycles: 22770327
2banks busy for write cycles: 7074450
3banks busy for read cycles: 7359202
3banks busy for write cycles: 2369505
4banks busy for read cycles: 2693045
4banks busy for write cycles: 729418
5banks busy for read cycles: 766386
5banks busy for write cycles: 209734
6banks busy for read cycles: 160853
6banks busy for write cycles: 58630
7banks busy for read cycles: 23250
7banks busy for write cycles: 10915
8banks busy for read cycles: 2404
8banks busy for write cycles: 2260

CPU 0 Branch Prediction Accuracy: 95.851% MPKI: 8.63412 Average ROB Occupancy at Mispredict: 29.4445
Branch types
NOT_BRANCH: 39594523 79.189%
BRANCH_DIRECT_JUMP: 569513 1.13903%
BRANCH_INDIRECT: 168336 0.336672%
BRANCH_CONDITIONAL: 6697939 13.3959%
BRANCH_DIRECT_CALL: 886019 1.77204%
BRANCH_INDIRECT_CALL: 598662 1.19732%
BRANCH_RETURN: 1484680 2.96936%
BRANCH_OTHER: 0 0%

@sumon_overall_L1D    114690     19961     19961    690848    805593   4501758   4501760
@Sumon_Early_by_class_L1D     98943      1565     12373       114
@Sumon_Late_by_class_L1D     10003         0       516       114

@Sumon_Early_by_cycle_L1D     21165      8000      5895      4719      2114     15473     17141      8256      5990     11584      8155      6198
@Sumon_Late_by_cycle_L1D       765      1946       562      1814      5607         0
@Sumon_Early_stream_L1D     20131      7170      5058      4120      1775     13509     14993      6783      4623      9251      6371      5159
@Sumon_Early_CS_L1D         2        21        50        28         6         4       795       103       377       111        31        37
@Sumon_Early_CPLX_L1D       603       499       698       480       303      1707      1103      1280       944      2108      1692       956
@Sumon_Late_stream_L1D       702      1801       476      1698      5326         0
@Sumon_Late_CS_L1D         0         0         0         0         0         0
@Sumon_Late_CPLX_L1D        47       101        78        87       203         0
@sumon_overall_L2C     42573       735         0    575641    618303     85762     85762
@Sumon_Early_by_class_L2C     23816        83      7330         0
@Sumon_Late_by_class_L2C         0         0         0         0

@Sumon_Early_by_cycle_L2C       889      1004       458       660       339      2476      2528       570      1165       318      1932     30234
@Sumon_Late_by_cycle_L2C        31        32       216       148       308         0
@Sumon_Early_stream_L2C         0         0         0         0         0         0         0         0         1        88      1325     22402
@Sumon_Early_CS_L2C         0         0         0         0         0         0         0         0         0         0        12        71
@Sumon_Early_CPLX_L2C         0         0         0         0         0         0         0         0         0        24       386      6920
@Sumon_Late_stream_L2C         0         0         0         0         0         0
@Sumon_Late_CS_L2C         0         0         0         0         0         0
@Sumon_Late_CPLX_L2C         0         0         0         0         0         0
DRAM PAGES: 1048576
Allocated PAGES: 45883
