
*** ChampSim Multicore Out-of-Order Simulator ***

Warmup Instructions: 10000000
Simulation Instructions: 50000000
Number of CPUs: 1
LLC sets: 2048
LLC ways: 16
Off-chip DRAM Size: 4096 MB Channels: 1 Width: 64-bit Data Rate: 6400 MT/s
CPU 0 runs traces/SPEC2017/603.bwaves_s-2609B.champsimtrace.xz
.xz
CPU 0 Bimodal branch predictor
BTB has LRU replacement policy
ITLB has LRU replacement policy
DTLB has LRU replacement policy
STLB has LRU replacement policy
L1I has LRU replacement policy
L1D has LRU replacement policy
L2C has LRU replacement policy
LLC has LRU replacement policy
Heartbeat CPU 0 instructions: 10000001 cycles: 3316983 heartbeat IPC: 3.01479 cumulative IPC: 3.01479 (Simulation time: 0 hr 15 min 49 sec) 

Warmup complete CPU 0 instructions: 10000001 cycles: 3316983 (Simulation time: 0 hr 15 min 50 sec) 

Heartbeat CPU 0 instructions: 20000000 cycles: 20300509 heartbeat IPC: 0.588806 cumulative IPC: 0.588806 (Simulation time: 0 hr 35 min 52 sec) 
Heartbeat CPU 0 instructions: 30000001 cycles: 37463786 heartbeat IPC: 0.582639 cumulative IPC: 0.585706 (Simulation time: 0 hr 55 min 49 sec) 
Heartbeat CPU 0 instructions: 40000000 cycles: 54617564 heartbeat IPC: 0.582962 cumulative IPC: 0.584789 (Simulation time: 1 hr 15 min 53 sec) 
Heartbeat CPU 0 instructions: 50000002 cycles: 71802051 heartbeat IPC: 0.58192 cumulative IPC: 0.584069 (Simulation time: 1 hr 35 min 53 sec) 
Heartbeat CPU 0 instructions: 60000000 cycles: 88945383 heartbeat IPC: 0.583317 cumulative IPC: 0.583918 (Simulation time: 1 hr 54 min 31 sec) 
Finished CPU 0 instructions: 50000001 cycles: 85628401 cumulative IPC: 0.583918 (Simulation time: 1 hr 54 min 31 sec) 

ChampSim completed all CPUs

Region of Interest Statistics

CPU 0 cumulative IPC: 0.583918 instructions: 50000001 cycles: 85628401
ITLB TOTAL     ACCESS:    6356233  HIT:    6356233  MISS:          0  HIT %:        100  MISS %:          0   MPKI: 0
ITLB LOAD TRANSLATION ACCESS:    6356233  HIT:    6356233  MISS:          0  HIT %:        100  MISS %:          0   MPKI: 0
ITLB PREFETCH  REQUESTED:          0  ISSUED:          0  USEFUL:          0  USELESS:          0
ITLB USEFUL LOAD PREFETCHES:          0 PREFETCH ISSUED TO LOWER LEVEL:          0  ACCURACY: -nan
ITLB TIMELY PREFETCHES:          0 LATE PREFETCHES: 0 DROPPED PREFETCHES: 0
ITLB PREFETCHES SAME FILL-ORIGIN LEVEL: 0 DIFFERENT FILL-ORIGIN LEVEL: 0
ITLB AVERAGE MISS LATENCY: -nan cycles
ITLB RQ	ACCESS:    8462578	FORWARD:          0	MERGED:    2106346	TO_CACHE:    6356232

DTLB TOTAL     ACCESS:   16110711  HIT:   16076841  MISS:      33870  HIT %:    99.7898  MISS %:   0.210233   MPKI: 0.6774
DTLB LOAD TRANSLATION ACCESS:   16110711  HIT:   16076841  MISS:      33870  HIT %:    99.7898  MISS %:   0.210233   MPKI: 0.6774
DTLB PREFETCH  REQUESTED:          0  ISSUED:          0  USEFUL:          0  USELESS:          0
DTLB USEFUL LOAD PREFETCHES:          0 PREFETCH ISSUED TO LOWER LEVEL:          0  ACCURACY: -nan
DTLB TIMELY PREFETCHES:          0 LATE PREFETCHES: 0 DROPPED PREFETCHES: 0
DTLB PREFETCHES SAME FILL-ORIGIN LEVEL: 0 DIFFERENT FILL-ORIGIN LEVEL: 0
DTLB AVERAGE MISS LATENCY: 219.084 cycles
DTLB RQ	ACCESS:   18779951	FORWARD:          0	MERGED:    2664235	TO_CACHE:   16115716

STLB TOTAL     ACCESS:      33870  HIT:      19027  MISS:      14843  HIT %:    56.1766  MISS %:    43.8234   MPKI: 0.29686
STLB LOAD TRANSLATION ACCESS:      33870  HIT:      19027  MISS:      14843  HIT %:    56.1766  MISS %:    43.8234   MPKI: 0.29686
STLB PREFETCH  REQUESTED:          0  ISSUED:          0  USEFUL:          0  USELESS:          0
STLB USEFUL LOAD PREFETCHES:          0 PREFETCH ISSUED TO LOWER LEVEL:          0  ACCURACY: -nan
STLB TIMELY PREFETCHES:          0 LATE PREFETCHES: 0 DROPPED PREFETCHES: 0
STLB PREFETCHES SAME FILL-ORIGIN LEVEL: 0 DIFFERENT FILL-ORIGIN LEVEL: 0
STLB AVERAGE MISS LATENCY: 457.355 cycles
STLB RQ	ACCESS:      33870	FORWARD:          0	MERGED:          0	TO_CACHE:      33870

STLB Hit, L1D data hit: 0
STLB Hit, L2C data hit: 0
STLB Hit, LLC data hit: 0
STLB Hit, LLC data miss: 0
STLB STLB hints to L2: 0
L1D TOTAL     ACCESS:   18485733  HIT:   17486144  MISS:     999589  HIT %:    94.5926  MISS %:    5.40735   MPKI: 19.9918
L1D LOAD      ACCESS:   15676569  HIT:   14701342  MISS:     975227  HIT %:    93.7791  MISS %:    6.22092   MPKI: 19.5045
L1D RFO       ACCESS:    2809164  HIT:    2784802  MISS:      24362  HIT %:    99.1328  MISS %:   0.867233   MPKI: 0.48724
L1D PREFETCH  REQUESTED:          0  ISSUED:          0  USEFUL:          0  USELESS:          0
L1D USEFUL LOAD PREFETCHES:          0 PREFETCH ISSUED TO LOWER LEVEL:          0  ACCURACY: -nan
L1D TIMELY PREFETCHES:          0 LATE PREFETCHES: 0 DROPPED PREFETCHES: 0
L1D PREFETCHES SAME FILL-ORIGIN LEVEL: 0 DIFFERENT FILL-ORIGIN LEVEL: 0
L1D AVERAGE MISS LATENCY: 305.002 cycles
L1D RQ	ACCESS:   21207639	FORWARD:          0	MERGED:    5178028	TO_CACHE:   15963271
L1D WQ	ACCESS:    2816699	FORWARD:      66340	MERGED:         19	TO_CACHE:    2816680

L1D UNIQUE REGIONS ACCESSED: 0
L1D REGIONS CONFLICTS: 0
L1D Cross Page Prefetch Requests: 0
L1D Same Page Prefetch Requests: 0
L1D ROI Sum of L1D PQ occupancy: 0
L1D PREFETCHES PUSHED FROM L2C: 0
L1I TOTAL     ACCESS:    8462580  HIT:    8462580  MISS:          0  HIT %:        100  MISS %:          0   MPKI: 0
L1I LOAD      ACCESS:    8462580  HIT:    8462580  MISS:          0  HIT %:        100  MISS %:          0   MPKI: 0
L1I PREFETCH  REQUESTED:          0  ISSUED:          0  USEFUL:          0  USELESS:          0
L1I USEFUL LOAD PREFETCHES:          0 PREFETCH ISSUED TO LOWER LEVEL:          0  ACCURACY: -nan
L1I TIMELY PREFETCHES:          0 LATE PREFETCHES: 0 DROPPED PREFETCHES: 0
L1I PREFETCHES SAME FILL-ORIGIN LEVEL: 0 DIFFERENT FILL-ORIGIN LEVEL: 0
L1I AVERAGE MISS LATENCY: -nan cycles
L1I RQ	ACCESS:   11737769	FORWARD:          0	MERGED:    3275191	TO_CACHE:    8462578

BTB TOTAL     ACCESS:    1208719  HIT:    1208714  MISS:          5  HIT %:    99.9996  MISS %: 0.000413661   MPKI: 0.0001
BTB BRANCH_DIRECT_JUMP	ACCESS:          0  HIT:          0  MISS:          0
BTB BRANCH_INDIRECT	ACCESS:          0  HIT:          0  MISS:          0
BTB BRANCH_CONDITIONAL	ACCESS:    1208719  HIT:    1208714  MISS:          5
BTB BRANCH_DIRECT_CALL	ACCESS:          0  HIT:          0  MISS:          0
BTB BRANCH_INDIRECT_CALL	ACCESS:          0  HIT:          0  MISS:          0
BTB BRANCH_RETURN	ACCESS:          0  HIT:          0  MISS:          0
BTB BRANCH_OTHER ACCESS:          0  HIT:          0  MISS:          0

L2C TOTAL     ACCESS:    1039170  HIT:      87156  MISS:     952014  HIT %:    8.38708  MISS %:    91.6129   MPKI: 19.0403
L2C LOAD      ACCESS:     975227  HIT:      49462  MISS:     925765  HIT %:    5.07184  MISS %:    94.9282   MPKI: 18.5153
L2C DATA LOAD MPKI: 18.5153
L2C INSTRUCTION LOAD MPKI: 0
L2C RFO       ACCESS:      24362  HIT:          0  MISS:      24362  HIT %:          0  MISS %:        100   MPKI: 0.48724
L2C WRITEBACK ACCESS:      24736  HIT:      24736  MISS:          0  HIT %:        100  MISS %:          0   MPKI: 0
L2C LOAD TRANSLATION ACCESS:      14845  HIT:      12958  MISS:       1887  HIT %:    87.2886  MISS %:    12.7114   MPKI: 0.03774
L2C PREFETCH  REQUESTED:          0  ISSUED:          0  USEFUL:          0  USELESS:          0
L2C USEFUL LOAD PREFETCHES:          0 PREFETCH ISSUED TO LOWER LEVEL:          0  ACCURACY: -nan
L2C TIMELY PREFETCHES:          0 LATE PREFETCHES: 0 DROPPED PREFETCHES: 0
L2C PREFETCHES SAME FILL-ORIGIN LEVEL: 0 DIFFERENT FILL-ORIGIN LEVEL: 0
L2C AVERAGE MISS LATENCY: 302.847 cycles
L2C RQ	ACCESS:    1014433	FORWARD:          0	MERGED:          0	TO_CACHE:    1014433
L2C WQ	ACCESS:      24736	FORWARD:          0	MERGED:          0	TO_CACHE:      24736

L2C Instructions Evicting Data 0
L2C Translations Evicting Data 1886
L2C Data Evicting Data 948242
L2C Instructions Evicting Instructions 0
L2C Translations Evicting Instructions 0
L2C Data Evicting Instructions 0
L2C Instructions Evicting Translations 0
L2C Translations Evicting Translations 1
L2C Data Evicting Translations 1885
L2C Dense regions hint from L2: 0
PSCL5 TOTAL     ACCESS:      14843  HIT:      14843  MISS:          0  HIT %:        100  MISS %:          0   MPKI: 0
PSCL5 LOAD TRANSLATION ACCESS:      14843  HIT:      14843  MISS:          0  HIT %:        100  MISS %:          0   MPKI: 0
PSCL5 PREFETCH  REQUESTED:          0  ISSUED:          0  USEFUL:          0  USELESS:          0
PSCL5 USEFUL LOAD PREFETCHES:          0 PREFETCH ISSUED TO LOWER LEVEL:          0  ACCURACY: -nan
PSCL5 TIMELY PREFETCHES:          0 LATE PREFETCHES: 0 DROPPED PREFETCHES: 0
PSCL5 PREFETCHES SAME FILL-ORIGIN LEVEL: 0 DIFFERENT FILL-ORIGIN LEVEL: 0

PSCL4 TOTAL     ACCESS:      14843  HIT:      14843  MISS:          0  HIT %:        100  MISS %:          0   MPKI: 0
PSCL4 LOAD TRANSLATION ACCESS:      14843  HIT:      14843  MISS:          0  HIT %:        100  MISS %:          0   MPKI: 0
PSCL4 PREFETCH  REQUESTED:          0  ISSUED:          0  USEFUL:          0  USELESS:          0
PSCL4 USEFUL LOAD PREFETCHES:          0 PREFETCH ISSUED TO LOWER LEVEL:          0  ACCURACY: -nan
PSCL4 TIMELY PREFETCHES:          0 LATE PREFETCHES: 0 DROPPED PREFETCHES: 0
PSCL4 PREFETCHES SAME FILL-ORIGIN LEVEL: 0 DIFFERENT FILL-ORIGIN LEVEL: 0

PSCL3 TOTAL     ACCESS:      14843  HIT:      14843  MISS:          0  HIT %:        100  MISS %:          0   MPKI: 0
PSCL3 LOAD TRANSLATION ACCESS:      14843  HIT:      14843  MISS:          0  HIT %:        100  MISS %:          0   MPKI: 0
PSCL3 PREFETCH  REQUESTED:          0  ISSUED:          0  USEFUL:          0  USELESS:          0
PSCL3 USEFUL LOAD PREFETCHES:          0 PREFETCH ISSUED TO LOWER LEVEL:          0  ACCURACY: -nan
PSCL3 TIMELY PREFETCHES:          0 LATE PREFETCHES: 0 DROPPED PREFETCHES: 0
PSCL3 PREFETCHES SAME FILL-ORIGIN LEVEL: 0 DIFFERENT FILL-ORIGIN LEVEL: 0

PSCL2 TOTAL     ACCESS:      14843  HIT:      14812  MISS:         31  HIT %:    99.7911  MISS %:   0.208853   MPKI: 0.00062
PSCL2 LOAD TRANSLATION ACCESS:      14843  HIT:      14812  MISS:         31  HIT %:    99.7911  MISS %:   0.208853   MPKI: 0.00062
PSCL2 PREFETCH  REQUESTED:          0  ISSUED:          0  USEFUL:          0  USELESS:          0
PSCL2 USEFUL LOAD PREFETCHES:          0 PREFETCH ISSUED TO LOWER LEVEL:          0  ACCURACY: -nan
PSCL2 TIMELY PREFETCHES:          0 LATE PREFETCHES: 0 DROPPED PREFETCHES: 0
PSCL2 PREFETCHES SAME FILL-ORIGIN LEVEL: 0 DIFFERENT FILL-ORIGIN LEVEL: 0

LLC TOTAL     ACCESS:     976367  HIT:      24353  MISS:     952014  HIT %:    2.49425  MISS %:    97.5058   MPKI: 19.0403
LLC LOAD      ACCESS:     925765  HIT:          0  MISS:     925765  HIT %:          0  MISS %:        100   MPKI: 18.5153
LLC RFO       ACCESS:      24362  HIT:          0  MISS:      24362  HIT %:          0  MISS %:        100   MPKI: 0.48724
LLC WRITEBACK ACCESS:      24353  HIT:      24353  MISS:          0  HIT %:        100  MISS %:          0   MPKI: 0
LLC LOAD TRANSLATION ACCESS:       1887  HIT:          0  MISS:       1887  HIT %:          0  MISS %:        100   MPKI: 0.03774
LLC PREFETCH  REQUESTED:          0  ISSUED:          0  USEFUL:          0  USELESS:          0
LLC USEFUL LOAD PREFETCHES:          0 PREFETCH ISSUED TO LOWER LEVEL:          0  ACCURACY: -nan
LLC TIMELY PREFETCHES:          0 LATE PREFETCHES: 0 DROPPED PREFETCHES: 0
LLC PREFETCHES SAME FILL-ORIGIN LEVEL: 0 DIFFERENT FILL-ORIGIN LEVEL: 0
LLC AVERAGE MISS LATENCY: 272.135 cycles
LLC RQ	ACCESS:     952013	FORWARD:          0	MERGED:          0	TO_CACHE:     952013
LLC WQ	ACCESS:      24353	FORWARD:          0	MERGED:          0	TO_CACHE:      24353

LLC Dense regions hint to LLC: 0

RAW hits: 282378
Loads Generated: 21490015
Loads sent to L1D: 21207639
Stores Generated: 2816699
Stores sent to L1D: 2816699
Major fault: 0 Minor fault: 17250
Allocated PAGES: 17250

DRAM Statistics
 CHANNEL 0
 RQ ROW_BUFFER_HIT:     727553  ROW_BUFFER_MISS:     224460
 DBUS_CONGESTED:         25
 WQ ROW_BUFFER_HIT:       3259  ROW_BUFFER_MISS:      21131  FULL:          0

 AVG_CONGESTED_CYCLE: 5
 All warmup complete: 2
Channel 0 Bank busy for read cycles: 0
Channel 0 Bank busy for write cycles: 0
Channel 0
Rank 0
0banks busy for read cycles: 39948761
0banks busy for write cycles: 12465
1banks busy for read cycles: 24842989
1banks busy for write cycles: 1259367
2banks busy for read cycles: 11196564
2banks busy for write cycles: 572538
3banks busy for read cycles: 6060145
3banks busy for write cycles: 587182
4banks busy for read cycles: 1039704
4banks busy for write cycles: 14023
5banks busy for read cycles: 94370
5banks busy for write cycles: 192
6banks busy for read cycles: 102
6banks busy for write cycles: 0
7banks busy for read cycles: 0
7banks busy for write cycles: 0
8banks busy for read cycles: 0
8banks busy for write cycles: 0

CPU 0 Branch Prediction Accuracy: 81.2316% MPKI: 4.68482 Average ROB Occupancy at Mispredict: 98.3778
Branch types
NOT_BRANCH: 48751587 97.5032%
BRANCH_DIRECT_JUMP: 0 0%
BRANCH_INDIRECT: 0 0%
BRANCH_CONDITIONAL: 1248063 2.49613%
BRANCH_DIRECT_CALL: 0 0%
BRANCH_INDIRECT_CALL: 0 0%
BRANCH_RETURN: 0 0%
BRANCH_OTHER: 0 0%

@sumon_overall_L1D         0         0         0         0         0         0
@Sumon_Early_by_class_L1D         0         0         0         0
@Sumon_Late_by_class_L1D         0         0         0         0

@Sumon_Early_by_cycle_L1D         0         0         0         0         0         0         0         0         0         0         0         0
@Sumon_Late_by_cycle_L1D         0         0         0         0         0         0         0         0         0         0         0         0
@Sumon_Early_stream_L1D         0         0         0         0         0         0         0         0         0         0         0         0
@Sumon_Early_CS_L1D         0         0         0         0         0         0         0         0         0         0         0         0
@Sumon_Early_CPLX_L1D         0         0         0         0         0         0         0         0         0         0         0         0
@Sumon_Late_stream_L1D         0         0         0         0         0         0         0         0         0         0         0         0
@Sumon_Late_CS_L1D         0         0         0         0         0         0         0         0         0         0         0         0
@Sumon_Late_CPLX_L1D         0         0         0         0         0         0         0         0         0         0         0         0
@sumon_overall_L2C         0         0         0         0         0         0
@Sumon_Early_by_class_L2C         0         0         0         0
@Sumon_Late_by_class_L2C         0         0         0         0

@Sumon_Early_by_cycle_L2C         0         0         0         0         0         0         0         0         0         0         0         0
@Sumon_Late_by_cycle_L2C         0         0         0         0         0         0         0         0         0         0         0         0
@Sumon_Early_stream_L2C         0         0         0         0         0         0         0         0         0         0         0         0
@Sumon_Early_CS_L2C         0         0         0         0         0         0         0         0         0         0         0         0
@Sumon_Early_CPLX_L2C         0         0         0         0         0         0         0         0         0         0         0         0
@Sumon_Late_stream_L2C         0         0         0         0         0         0         0         0         0         0         0         0
@Sumon_Late_CS_L2C         0         0         0         0         0         0         0         0         0         0         0         0
@Sumon_Late_CPLX_L2C         0         0         0         0         0         0         0         0         0         0         0         0
DRAM PAGES: 1048576
Allocated PAGES: 17250
