
*** ChampSim Multicore Out-of-Order Simulator ***

Warmup Instructions: 10000000
Simulation Instructions: 50000000
Number of CPUs: 1
LLC sets: 2048
LLC ways: 16
Off-chip DRAM Size: 4096 MB Channels: 1 Width: 64-bit Data Rate: 6400 MT/s
CPU 0 runs traces/SPEC2017/603.bwaves_s-891B.champsimtrace.xz
.xz
CPU 0 Bimodal branch predictor
BTB has LRU replacement policy
ITLB has LRU replacement policy
DTLB has LRU replacement policy
STLB has LRU replacement policy
L1I has LRU replacement policy
L1D has LRU replacement policy
L2C has LRU replacement policy
LLC has LRU replacement policy
Heartbeat CPU 0 instructions: 10000003 cycles: 2716414 heartbeat IPC: 3.68133 cumulative IPC: 3.68133 (Simulation time: 0 hr 5 min 9 sec) 

Warmup complete CPU 0 instructions: 10000003 cycles: 2716414 (Simulation time: 0 hr 5 min 9 sec) 

Heartbeat CPU 0 instructions: 20000000 cycles: 32265245 heartbeat IPC: 0.338423 cumulative IPC: 0.338423 (Simulation time: 0 hr 31 min 13 sec) 
Heartbeat CPU 0 instructions: 30000000 cycles: 61956832 heartbeat IPC: 0.336796 cumulative IPC: 0.337607 (Simulation time: 0 hr 56 min 49 sec) 
Heartbeat CPU 0 instructions: 40000001 cycles: 91804188 heartbeat IPC: 0.335038 cumulative IPC: 0.336747 (Simulation time: 1 hr 22 min 47 sec) 
Heartbeat CPU 0 instructions: 50000002 cycles: 114221125 heartbeat IPC: 0.446091 cumulative IPC: 0.358729 (Simulation time: 1 hr 42 min 15 sec) 
Heartbeat CPU 0 instructions: 60000003 cycles: 133005638 heartbeat IPC: 0.532353 cumulative IPC: 0.383762 (Simulation time: 1 hr 57 min 13 sec) 
Finished CPU 0 instructions: 50000000 cycles: 130289224 cumulative IPC: 0.383762 (Simulation time: 1 hr 57 min 13 sec) 

ChampSim completed all CPUs

Region of Interest Statistics

CPU 0 cumulative IPC: 0.383762 instructions: 50000000 cycles: 130289224
ITLB TOTAL     ACCESS:    7208765  HIT:    7208765  MISS:          0  HIT %:        100  MISS %:          0   MPKI: 0
ITLB LOAD TRANSLATION ACCESS:    7208765  HIT:    7208765  MISS:          0  HIT %:        100  MISS %:          0   MPKI: 0
ITLB PREFETCH  REQUESTED:          0  ISSUED:          0  USEFUL:          0  USELESS:          0
ITLB USEFUL LOAD PREFETCHES:          0 PREFETCH ISSUED TO LOWER LEVEL:          0  ACCURACY: -nan
ITLB TIMELY PREFETCHES:          0 LATE PREFETCHES: 0 DROPPED PREFETCHES: 0
ITLB PREFETCHES SAME FILL-ORIGIN LEVEL: 0 DIFFERENT FILL-ORIGIN LEVEL: 0
ITLB AVERAGE MISS LATENCY: -nan cycles
ITLB RQ	ACCESS:    9708406	FORWARD:          0	MERGED:    2499642	TO_CACHE:    7208764

DTLB TOTAL     ACCESS:    8392283  HIT:    8374111  MISS:      18172  HIT %:    99.7835  MISS %:   0.216532   MPKI: 0.36344
DTLB LOAD TRANSLATION ACCESS:    8392283  HIT:    8374111  MISS:      18172  HIT %:    99.7835  MISS %:   0.216532   MPKI: 0.36344
DTLB PREFETCH  REQUESTED:          0  ISSUED:          0  USEFUL:          0  USELESS:          0
DTLB USEFUL LOAD PREFETCHES:          0 PREFETCH ISSUED TO LOWER LEVEL:          0  ACCURACY: -nan
DTLB TIMELY PREFETCHES:          0 LATE PREFETCHES: 0 DROPPED PREFETCHES: 0
DTLB PREFETCHES SAME FILL-ORIGIN LEVEL: 0 DIFFERENT FILL-ORIGIN LEVEL: 0
DTLB AVERAGE MISS LATENCY: 275.134 cycles
DTLB RQ	ACCESS:    8760452	FORWARD:          0	MERGED:     367410	TO_CACHE:    8393042

STLB TOTAL     ACCESS:      18172  HIT:         56  MISS:      18116  HIT %:   0.308166  MISS %:    99.6918   MPKI: 0.36232
STLB LOAD TRANSLATION ACCESS:      18172  HIT:         56  MISS:      18116  HIT %:   0.308166  MISS %:    99.6918   MPKI: 0.36232
STLB PREFETCH  REQUESTED:          0  ISSUED:          0  USEFUL:          0  USELESS:          0
STLB USEFUL LOAD PREFETCHES:          0 PREFETCH ISSUED TO LOWER LEVEL:          0  ACCURACY: -nan
STLB TIMELY PREFETCHES:          0 LATE PREFETCHES: 0 DROPPED PREFETCHES: 0
STLB PREFETCHES SAME FILL-ORIGIN LEVEL: 0 DIFFERENT FILL-ORIGIN LEVEL: 0
STLB AVERAGE MISS LATENCY: 264.65 cycles
STLB RQ	ACCESS:      18172	FORWARD:          0	MERGED:          0	TO_CACHE:      18172

STLB Hit, L1D data hit: 0
STLB Hit, L2C data hit: 0
STLB Hit, LLC data hit: 0
STLB Hit, LLC data miss: 0
STLB STLB hints to L2: 0
L1D TOTAL     ACCESS:    5946104  HIT:    4786610  MISS:    1159494  HIT %:    80.4999  MISS %:    19.5001   MPKI: 23.1899
L1D LOAD      ACCESS:    3489508  HIT:    2330015  MISS:    1159493  HIT %:     66.772  MISS %:     33.228   MPKI: 23.1899
L1D RFO       ACCESS:    2456596  HIT:    2456595  MISS:          1  HIT %:        100  MISS %: 4.07067e-05   MPKI: 2e-05
L1D PREFETCH  REQUESTED:          0  ISSUED:          0  USEFUL:          0  USELESS:          0
L1D USEFUL LOAD PREFETCHES:          0 PREFETCH ISSUED TO LOWER LEVEL:          0  ACCURACY: -nan
L1D TIMELY PREFETCHES:          0 LATE PREFETCHES: 0 DROPPED PREFETCHES: 0
L1D PREFETCHES SAME FILL-ORIGIN LEVEL: 0 DIFFERENT FILL-ORIGIN LEVEL: 0
L1D AVERAGE MISS LATENCY: 242.404 cycles
L1D RQ	ACCESS:    7956107	FORWARD:          0	MERGED:    1651987	TO_CACHE:    6303856
L1D WQ	ACCESS:    2590179	FORWARD:        264	MERGED:     133583	TO_CACHE:    2456596

L1D UNIQUE REGIONS ACCESSED: 0
L1D REGIONS CONFLICTS: 0
L1D Cross Page Prefetch Requests: 0
L1D Same Page Prefetch Requests: 0
L1D ROI Sum of L1D PQ occupancy: 0
L1D PREFETCHES PUSHED FROM L2C: 0
L1I TOTAL     ACCESS:    9708406  HIT:    9708402  MISS:          4  HIT %:        100  MISS %: 4.12014e-05   MPKI: 8e-05
L1I LOAD      ACCESS:    9708406  HIT:    9708402  MISS:          4  HIT %:        100  MISS %: 4.12014e-05   MPKI: 8e-05
L1I PREFETCH  REQUESTED:          0  ISSUED:          0  USEFUL:          0  USELESS:          0
L1I USEFUL LOAD PREFETCHES:          0 PREFETCH ISSUED TO LOWER LEVEL:          0  ACCURACY: -nan
L1I TIMELY PREFETCHES:          0 LATE PREFETCHES: 0 DROPPED PREFETCHES: 0
L1I PREFETCHES SAME FILL-ORIGIN LEVEL: 0 DIFFERENT FILL-ORIGIN LEVEL: 0
L1I AVERAGE MISS LATENCY: 214 cycles
L1I RQ	ACCESS:   13132584	FORWARD:          0	MERGED:    3424178	TO_CACHE:    9708406

BTB TOTAL     ACCESS:    3628115  HIT:    3628107  MISS:          8  HIT %:    99.9998  MISS %:  0.0002205   MPKI: 0.00016
BTB BRANCH_DIRECT_JUMP	ACCESS:          0  HIT:          0  MISS:          0
BTB BRANCH_INDIRECT	ACCESS:          0  HIT:          0  MISS:          0
BTB BRANCH_CONDITIONAL	ACCESS:    3628115  HIT:    3628107  MISS:          8
BTB BRANCH_DIRECT_CALL	ACCESS:          0  HIT:          0  MISS:          0
BTB BRANCH_INDIRECT_CALL	ACCESS:          0  HIT:          0  MISS:          0
BTB BRANCH_RETURN	ACCESS:          0  HIT:          0  MISS:          0
BTB BRANCH_OTHER ACCESS:          0  HIT:          0  MISS:          0

L2C TOTAL     ACCESS:    1624999  HIT:     463198  MISS:    1161801  HIT %:    28.5045  MISS %:    71.4955   MPKI: 23.236
L2C LOAD      ACCESS:    1159497  HIT:          0  MISS:    1159497  HIT %:          0  MISS %:        100   MPKI: 23.1899
L2C DATA LOAD MPKI: 23.1899
L2C INSTRUCTION LOAD MPKI: 8e-05
L2C RFO       ACCESS:          1  HIT:          0  MISS:          1  HIT %:          0  MISS %:        100   MPKI: 2e-05
L2C WRITEBACK ACCESS:     447385  HIT:     447383  MISS:          2  HIT %:    99.9996  MISS %: 0.000447042   MPKI: 4e-05
L2C LOAD TRANSLATION ACCESS:      18116  HIT:      15815  MISS:       2301  HIT %:    87.2985  MISS %:    12.7015   MPKI: 0.04602
L2C PREFETCH  REQUESTED:          0  ISSUED:          0  USEFUL:          0  USELESS:          0
L2C USEFUL LOAD PREFETCHES:          0 PREFETCH ISSUED TO LOWER LEVEL:          0  ACCURACY: -nan
L2C TIMELY PREFETCHES:          0 LATE PREFETCHES: 0 DROPPED PREFETCHES: 0
L2C PREFETCHES SAME FILL-ORIGIN LEVEL: 0 DIFFERENT FILL-ORIGIN LEVEL: 0
L2C AVERAGE MISS LATENCY: 226.459 cycles
L2C RQ	ACCESS:    1177613	FORWARD:          0	MERGED:          0	TO_CACHE:    1177613
L2C WQ	ACCESS:     447385	FORWARD:          0	MERGED:          0	TO_CACHE:     447385

L2C Instructions Evicting Data 4
L2C Translations Evicting Data 2301
L2C Data Evicting Data 1157183
L2C Instructions Evicting Instructions 0
L2C Translations Evicting Instructions 0
L2C Data Evicting Instructions 4
L2C Instructions Evicting Translations 0
L2C Translations Evicting Translations 0
L2C Data Evicting Translations 2307
L2C Dense regions hint from L2: 0
PSCL5 TOTAL     ACCESS:      18116  HIT:      18116  MISS:          0  HIT %:        100  MISS %:          0   MPKI: 0
PSCL5 LOAD TRANSLATION ACCESS:      18116  HIT:      18116  MISS:          0  HIT %:        100  MISS %:          0   MPKI: 0
PSCL5 PREFETCH  REQUESTED:          0  ISSUED:          0  USEFUL:          0  USELESS:          0
PSCL5 USEFUL LOAD PREFETCHES:          0 PREFETCH ISSUED TO LOWER LEVEL:          0  ACCURACY: -nan
PSCL5 TIMELY PREFETCHES:          0 LATE PREFETCHES: 0 DROPPED PREFETCHES: 0
PSCL5 PREFETCHES SAME FILL-ORIGIN LEVEL: 0 DIFFERENT FILL-ORIGIN LEVEL: 0

PSCL4 TOTAL     ACCESS:      18116  HIT:      18116  MISS:          0  HIT %:        100  MISS %:          0   MPKI: 0
PSCL4 LOAD TRANSLATION ACCESS:      18116  HIT:      18116  MISS:          0  HIT %:        100  MISS %:          0   MPKI: 0
PSCL4 PREFETCH  REQUESTED:          0  ISSUED:          0  USEFUL:          0  USELESS:          0
PSCL4 USEFUL LOAD PREFETCHES:          0 PREFETCH ISSUED TO LOWER LEVEL:          0  ACCURACY: -nan
PSCL4 TIMELY PREFETCHES:          0 LATE PREFETCHES: 0 DROPPED PREFETCHES: 0
PSCL4 PREFETCHES SAME FILL-ORIGIN LEVEL: 0 DIFFERENT FILL-ORIGIN LEVEL: 0

PSCL3 TOTAL     ACCESS:      18116  HIT:      18116  MISS:          0  HIT %:        100  MISS %:          0   MPKI: 0
PSCL3 LOAD TRANSLATION ACCESS:      18116  HIT:      18116  MISS:          0  HIT %:        100  MISS %:          0   MPKI: 0
PSCL3 PREFETCH  REQUESTED:          0  ISSUED:          0  USEFUL:          0  USELESS:          0
PSCL3 USEFUL LOAD PREFETCHES:          0 PREFETCH ISSUED TO LOWER LEVEL:          0  ACCURACY: -nan
PSCL3 TIMELY PREFETCHES:          0 LATE PREFETCHES: 0 DROPPED PREFETCHES: 0
PSCL3 PREFETCHES SAME FILL-ORIGIN LEVEL: 0 DIFFERENT FILL-ORIGIN LEVEL: 0

PSCL2 TOTAL     ACCESS:      18116  HIT:      18080  MISS:         36  HIT %:    99.8013  MISS %:   0.198719   MPKI: 0.00072
PSCL2 LOAD TRANSLATION ACCESS:      18116  HIT:      18080  MISS:         36  HIT %:    99.8013  MISS %:   0.198719   MPKI: 0.00072
PSCL2 PREFETCH  REQUESTED:          0  ISSUED:          0  USEFUL:          0  USELESS:          0
PSCL2 USEFUL LOAD PREFETCHES:          0 PREFETCH ISSUED TO LOWER LEVEL:          0  ACCURACY: -nan
PSCL2 TIMELY PREFETCHES:          0 LATE PREFETCHES: 0 DROPPED PREFETCHES: 0
PSCL2 PREFETCHES SAME FILL-ORIGIN LEVEL: 0 DIFFERENT FILL-ORIGIN LEVEL: 0

LLC TOTAL     ACCESS:    1612869  HIT:     451134  MISS:    1161735  HIT %:    27.9709  MISS %:    72.0291   MPKI: 23.2347
LLC LOAD      ACCESS:    1159497  HIT:         62  MISS:    1159435  HIT %: 0.00534715  MISS %:    99.9947   MPKI: 23.1887
LLC RFO       ACCESS:          1  HIT:          0  MISS:          1  HIT %:          0  MISS %:        100   MPKI: 2e-05
LLC WRITEBACK ACCESS:     451070  HIT:     451068  MISS:          2  HIT %:    99.9996  MISS %: 0.00044339   MPKI: 4e-05
LLC LOAD TRANSLATION ACCESS:       2301  HIT:          4  MISS:       2297  HIT %:   0.173837  MISS %:    99.8262   MPKI: 0.04594
LLC PREFETCH  REQUESTED:          0  ISSUED:          0  USEFUL:          0  USELESS:          0
LLC USEFUL LOAD PREFETCHES:          0 PREFETCH ISSUED TO LOWER LEVEL:          0  ACCURACY: -nan
LLC TIMELY PREFETCHES:          0 LATE PREFETCHES: 0 DROPPED PREFETCHES: 0
LLC PREFETCHES SAME FILL-ORIGIN LEVEL: 0 DIFFERENT FILL-ORIGIN LEVEL: 0
LLC AVERAGE MISS LATENCY: 196.204 cycles
LLC RQ	ACCESS:    1161798	FORWARD:          0	MERGED:          0	TO_CACHE:    1161798
LLC WQ	ACCESS:     451070	FORWARD:          0	MERGED:          0	TO_CACHE:     451070

LLC Dense regions hint to LLC: 0

RAW hits: 14024
Loads Generated: 7970131
Loads sent to L1D: 7956107
Stores Generated: 2590179
Stores sent to L1D: 2590179
Major fault: 0 Minor fault: 22421
Allocated PAGES: 22421

DRAM Statistics
 CHANNEL 0
 RQ ROW_BUFFER_HIT:     862640  ROW_BUFFER_MISS:     299092
 DBUS_CONGESTED:         39
 WQ ROW_BUFFER_HIT:     362536  ROW_BUFFER_MISS:     100861  FULL:          0

 AVG_CONGESTED_CYCLE: 4
 All warmup complete: 2
Channel 0 Bank busy for read cycles: 0
Channel 0 Bank busy for write cycles: 0
Channel 0
Rank 0
0banks busy for read cycles: 19505427
0banks busy for write cycles: 35682
1banks busy for read cycles: 78070427
1banks busy for write cycles: 5831661
2banks busy for read cycles: 4925422
2banks busy for write cycles: 9639338
3banks busy for read cycles: 24132
3banks busy for write cycles: 5872040
4banks busy for read cycles: 575
4banks busy for write cycles: 3403421
5banks busy for read cycles: 0
5banks busy for write cycles: 2017272
6banks busy for read cycles: 0
6banks busy for write cycles: 433978
7banks busy for read cycles: 0
7banks busy for write cycles: 261609
8banks busy for read cycles: 0
8banks busy for write cycles: 268241

CPU 0 Branch Prediction Accuracy: 85.6192% MPKI: 15.7911 Average ROB Occupancy at Mispredict: 84.9001
Branch types
NOT_BRANCH: 44509659 89.0193%
BRANCH_DIRECT_JUMP: 0 0%
BRANCH_INDIRECT: 0 0%
BRANCH_CONDITIONAL: 5490332 10.9807%
BRANCH_DIRECT_CALL: 0 0%
BRANCH_INDIRECT_CALL: 0 0%
BRANCH_RETURN: 0 0%
BRANCH_OTHER: 0 0%

@sumon_overall_L1D         0         0         0         0         0         0
@Sumon_Early_by_class_L1D         0         0         0         0
@Sumon_Late_by_class_L1D         0         0         0         0

@Sumon_Early_by_cycle_L1D         0         0         0         0         0         0         0         0         0         0         0         0
@Sumon_Late_by_cycle_L1D         0         0         0         0         0         0         0         0         0         0         0         0
@Sumon_Early_stream_L1D         0         0         0         0         0         0         0         0         0         0         0         0
@Sumon_Early_CS_L1D         0         0         0         0         0         0         0         0         0         0         0         0
@Sumon_Early_CPLX_L1D         0         0         0         0         0         0         0         0         0         0         0         0
@Sumon_Late_stream_L1D         0         0         0         0         0         0         0         0         0         0         0         0
@Sumon_Late_CS_L1D         0         0         0         0         0         0         0         0         0         0         0         0
@Sumon_Late_CPLX_L1D         0         0         0         0         0         0         0         0         0         0         0         0
@sumon_overall_L2C         0         0         0         0         0         0
@Sumon_Early_by_class_L2C         0         0         0         0
@Sumon_Late_by_class_L2C         0         0         0         0

@Sumon_Early_by_cycle_L2C         0         0         0         0         0         0         0         0         0         0         0         0
@Sumon_Late_by_cycle_L2C         0         0         0         0         0         0         0         0         0         0         0         0
@Sumon_Early_stream_L2C         0         0         0         0         0         0         0         0         0         0         0         0
@Sumon_Early_CS_L2C         0         0         0         0         0         0         0         0         0         0         0         0
@Sumon_Early_CPLX_L2C         0         0         0         0         0         0         0         0         0         0         0         0
@Sumon_Late_stream_L2C         0         0         0         0         0         0         0         0         0         0         0         0
@Sumon_Late_CS_L2C         0         0         0         0         0         0         0         0         0         0         0         0
@Sumon_Late_CPLX_L2C         0         0         0         0         0         0         0         0         0         0         0         0
DRAM PAGES: 1048576
Allocated PAGES: 22421
