
*** ChampSim Multicore Out-of-Order Simulator ***

Warmup Instructions: 10000000
Simulation Instructions: 50000000
Number of CPUs: 1
LLC sets: 2048
LLC ways: 16
Off-chip DRAM Size: 4096 MB Channels: 1 Width: 64-bit Data Rate: 6400 MT/s
CPU 0 runs traces/SPEC2017/605.mcf_s-665B.champsimtrace.xz
.xz
CPU 0 Bimodal branch predictor
BTB has LRU replacement policy
ITLB has LRU replacement policy
DTLB has LRU replacement policy
STLB has LRU replacement policy
L1I has LRU replacement policy
L1D has LRU replacement policy
L2C has LRU replacement policy
LLC has LRU replacement policy
Heartbeat CPU 0 instructions: 10000000 cycles: 3309294 heartbeat IPC: 3.02179 cumulative IPC: 3.02179 (Simulation time: 0 hr 16 min 16 sec) 

Warmup complete CPU 0 instructions: 10000004 cycles: 3309295 (Simulation time: 0 hr 16 min 16 sec) 

Heartbeat CPU 0 instructions: 20000002 cycles: 45157309 heartbeat IPC: 0.23896 cumulative IPC: 0.23896 (Simulation time: 0 hr 38 min 18 sec) 
Heartbeat CPU 0 instructions: 30000000 cycles: 86606681 heartbeat IPC: 0.241258 cumulative IPC: 0.240104 (Simulation time: 1 hr 0 min 17 sec) 
Heartbeat CPU 0 instructions: 40000000 cycles: 128467043 heartbeat IPC: 0.238889 cumulative IPC: 0.239697 (Simulation time: 1 hr 22 min 22 sec) 
Heartbeat CPU 0 instructions: 50000000 cycles: 170073580 heartbeat IPC: 0.240347 cumulative IPC: 0.239859 (Simulation time: 1 hr 43 min 48 sec) 
Heartbeat CPU 0 instructions: 60000003 cycles: 212083917 heartbeat IPC: 0.238037 cumulative IPC: 0.239493 (Simulation time: 2 hr 2 min 41 sec) 
Finished CPU 0 instructions: 50000002 cycles: 208774623 cumulative IPC: 0.239493 (Simulation time: 2 hr 2 min 41 sec) 

ChampSim completed all CPUs

Region of Interest Statistics

CPU 0 cumulative IPC: 0.239493 instructions: 50000002 cycles: 208774623
ITLB TOTAL     ACCESS:    9251114  HIT:    9251114  MISS:          0  HIT %:        100  MISS %:          0   MPKI: 0
ITLB LOAD TRANSLATION ACCESS:    9251114  HIT:    9251114  MISS:          0  HIT %:        100  MISS %:          0   MPKI: 0
ITLB PREFETCH  REQUESTED:          0  ISSUED:          0  USEFUL:          0  USELESS:          0
ITLB USEFUL LOAD PREFETCHES:          0 PREFETCH ISSUED TO LOWER LEVEL:          0  ACCURACY: -nan
ITLB TIMELY PREFETCHES:          0 LATE PREFETCHES: 0 DROPPED PREFETCHES: 0
ITLB PREFETCHES SAME FILL-ORIGIN LEVEL: 0 DIFFERENT FILL-ORIGIN LEVEL: 0
ITLB AVERAGE MISS LATENCY: -nan cycles
ITLB RQ	ACCESS:    9677665	FORWARD:          0	MERGED:     426552	TO_CACHE:    9251113

DTLB TOTAL     ACCESS:   15478801  HIT:   14584391  MISS:     894410  HIT %:    94.2217  MISS %:    5.77829   MPKI: 17.8882
DTLB LOAD TRANSLATION ACCESS:   15478801  HIT:   14584391  MISS:     894410  HIT %:    94.2217  MISS %:    5.77829   MPKI: 17.8882
DTLB PREFETCH  REQUESTED:          0  ISSUED:          0  USEFUL:          0  USELESS:          0
DTLB USEFUL LOAD PREFETCHES:          0 PREFETCH ISSUED TO LOWER LEVEL:          0  ACCURACY: -nan
DTLB TIMELY PREFETCHES:          0 LATE PREFETCHES: 0 DROPPED PREFETCHES: 0
DTLB PREFETCHES SAME FILL-ORIGIN LEVEL: 0 DIFFERENT FILL-ORIGIN LEVEL: 0
DTLB AVERAGE MISS LATENCY: 10.5904 cycles
DTLB RQ	ACCESS:   18892521	FORWARD:          0	MERGED:    3313526	TO_CACHE:   15578995

STLB TOTAL     ACCESS:     894410  HIT:     880864  MISS:      13546  HIT %:    98.4855  MISS %:    1.51452   MPKI: 0.27092
STLB LOAD TRANSLATION ACCESS:     894410  HIT:     880864  MISS:      13546  HIT %:    98.4855  MISS %:    1.51452   MPKI: 0.27092
STLB PREFETCH  REQUESTED:          0  ISSUED:          0  USEFUL:          0  USELESS:          0
STLB USEFUL LOAD PREFETCHES:          0 PREFETCH ISSUED TO LOWER LEVEL:          0  ACCURACY: -nan
STLB TIMELY PREFETCHES:          0 LATE PREFETCHES: 0 DROPPED PREFETCHES: 0
STLB PREFETCHES SAME FILL-ORIGIN LEVEL: 0 DIFFERENT FILL-ORIGIN LEVEL: 0
STLB AVERAGE MISS LATENCY: 101.567 cycles
STLB RQ	ACCESS:     894410	FORWARD:          0	MERGED:          0	TO_CACHE:     894410

STLB Hit, L1D data hit: 0
STLB Hit, L2C data hit: 0
STLB Hit, LLC data hit: 0
STLB Hit, LLC data miss: 0
STLB STLB hints to L2: 0
L1D TOTAL     ACCESS:   18510515  HIT:   16560410  MISS:    1950105  HIT %:    89.4649  MISS %:    10.5351   MPKI: 39.0021
L1D LOAD      ACCESS:   13098803  HIT:   11336129  MISS:    1762674  HIT %:    86.5432  MISS %:    13.4568   MPKI: 35.2535
L1D RFO       ACCESS:    5411712  HIT:    5224281  MISS:     187431  HIT %:    96.5366  MISS %:    3.46343   MPKI: 3.74862
L1D PREFETCH  REQUESTED:          0  ISSUED:          0  USEFUL:          0  USELESS:          0
L1D USEFUL LOAD PREFETCHES:          0 PREFETCH ISSUED TO LOWER LEVEL:          0  ACCURACY: -nan
L1D TIMELY PREFETCHES:          0 LATE PREFETCHES: 0 DROPPED PREFETCHES: 0
L1D PREFETCHES SAME FILL-ORIGIN LEVEL: 0 DIFFERENT FILL-ORIGIN LEVEL: 0
L1D AVERAGE MISS LATENCY: 77.041 cycles
L1D RQ	ACCESS:   16801623	FORWARD:          0	MERGED:    3110448	TO_CACHE:   13162274
L1D WQ	ACCESS:    5753549	FORWARD:     528901	MERGED:      23302	TO_CACHE:    5730247

L1D UNIQUE REGIONS ACCESSED: 0
L1D REGIONS CONFLICTS: 0
L1D Cross Page Prefetch Requests: 0
L1D Same Page Prefetch Requests: 0
L1D ROI Sum of L1D PQ occupancy: 0
L1D PREFETCHES PUSHED FROM L2C: 0
L1I TOTAL     ACCESS:    9677666  HIT:    9677666  MISS:          0  HIT %:        100  MISS %:          0   MPKI: 0
L1I LOAD      ACCESS:    9677666  HIT:    9677666  MISS:          0  HIT %:        100  MISS %:          0   MPKI: 0
L1I PREFETCH  REQUESTED:          0  ISSUED:          0  USEFUL:          0  USELESS:          0
L1I USEFUL LOAD PREFETCHES:          0 PREFETCH ISSUED TO LOWER LEVEL:          0  ACCURACY: -nan
L1I TIMELY PREFETCHES:          0 LATE PREFETCHES: 0 DROPPED PREFETCHES: 0
L1I PREFETCHES SAME FILL-ORIGIN LEVEL: 0 DIFFERENT FILL-ORIGIN LEVEL: 0
L1I AVERAGE MISS LATENCY: -nan cycles
L1I RQ	ACCESS:   15074790	FORWARD:          0	MERGED:    5397125	TO_CACHE:    9677665

BTB TOTAL     ACCESS:   11942322  HIT:   11365508  MISS:     576814  HIT %:      95.17  MISS %:       4.83   MPKI: 11.5363
BTB BRANCH_DIRECT_JUMP	ACCESS:    1326301  HIT:    1326265  MISS:         36
BTB BRANCH_INDIRECT	ACCESS:          0  HIT:          0  MISS:          0
BTB BRANCH_CONDITIONAL	ACCESS:    7942778  HIT:    7942703  MISS:         75
BTB BRANCH_DIRECT_CALL	ACCESS:    1261742  HIT:    1261724  MISS:         18
BTB BRANCH_INDIRECT_CALL	ACCESS:      74878  HIT:      74870  MISS:          8
BTB BRANCH_RETURN	ACCESS:    1336623  HIT:     759946  MISS:     576677
BTB BRANCH_OTHER ACCESS:          0  HIT:          0  MISS:          0

L2C TOTAL     ACCESS:    2223193  HIT:     896014  MISS:    1327179  HIT %:     40.303  MISS %:     59.697   MPKI: 26.5436
L2C LOAD      ACCESS:    1762668  HIT:     527565  MISS:    1235103  HIT %:    29.9299  MISS %:    70.0701   MPKI: 24.7021
L2C DATA LOAD MPKI: 24.7021
L2C INSTRUCTION LOAD MPKI: 0
L2C RFO       ACCESS:     187428  HIT:     101437  MISS:      85991  HIT %:    54.1205  MISS %:    45.8795   MPKI: 1.71982
L2C WRITEBACK ACCESS:     259452  HIT:     259271  MISS:        181  HIT %:    99.9302  MISS %:  0.0697624   MPKI: 0.00362
L2C LOAD TRANSLATION ACCESS:      13645  HIT:       7741  MISS:       5904  HIT %:    56.7314  MISS %:    43.2686   MPKI: 0.11808
L2C PREFETCH  REQUESTED:          0  ISSUED:          0  USEFUL:          0  USELESS:          0
L2C USEFUL LOAD PREFETCHES:          0 PREFETCH ISSUED TO LOWER LEVEL:          0  ACCURACY: -nan
L2C TIMELY PREFETCHES:          0 LATE PREFETCHES: 0 DROPPED PREFETCHES: 0
L2C PREFETCHES SAME FILL-ORIGIN LEVEL: 0 DIFFERENT FILL-ORIGIN LEVEL: 0
L2C AVERAGE MISS LATENCY: 91.3671 cycles
L2C RQ	ACCESS:    1963751	FORWARD:          0	MERGED:          0	TO_CACHE:    1963742
L2C WQ	ACCESS:     259452	FORWARD:          9	MERGED:          0	TO_CACHE:     259452

L2C Instructions Evicting Data 0
L2C Translations Evicting Data 5832
L2C Data Evicting Data 1315280
L2C Instructions Evicting Instructions 0
L2C Translations Evicting Instructions 0
L2C Data Evicting Instructions 0
L2C Instructions Evicting Translations 0
L2C Translations Evicting Translations 72
L2C Data Evicting Translations 5814
L2C Dense regions hint from L2: 0
PSCL5 TOTAL     ACCESS:      13546  HIT:      13546  MISS:          0  HIT %:        100  MISS %:          0   MPKI: 0
PSCL5 LOAD TRANSLATION ACCESS:      13546  HIT:      13546  MISS:          0  HIT %:        100  MISS %:          0   MPKI: 0
PSCL5 PREFETCH  REQUESTED:          0  ISSUED:          0  USEFUL:          0  USELESS:          0
PSCL5 USEFUL LOAD PREFETCHES:          0 PREFETCH ISSUED TO LOWER LEVEL:          0  ACCURACY: -nan
PSCL5 TIMELY PREFETCHES:          0 LATE PREFETCHES: 0 DROPPED PREFETCHES: 0
PSCL5 PREFETCHES SAME FILL-ORIGIN LEVEL: 0 DIFFERENT FILL-ORIGIN LEVEL: 0

PSCL4 TOTAL     ACCESS:      13546  HIT:      13546  MISS:          0  HIT %:        100  MISS %:          0   MPKI: 0
PSCL4 LOAD TRANSLATION ACCESS:      13546  HIT:      13546  MISS:          0  HIT %:        100  MISS %:          0   MPKI: 0
PSCL4 PREFETCH  REQUESTED:          0  ISSUED:          0  USEFUL:          0  USELESS:          0
PSCL4 USEFUL LOAD PREFETCHES:          0 PREFETCH ISSUED TO LOWER LEVEL:          0  ACCURACY: -nan
PSCL4 TIMELY PREFETCHES:          0 LATE PREFETCHES: 0 DROPPED PREFETCHES: 0
PSCL4 PREFETCHES SAME FILL-ORIGIN LEVEL: 0 DIFFERENT FILL-ORIGIN LEVEL: 0

PSCL3 TOTAL     ACCESS:      13546  HIT:      13546  MISS:          0  HIT %:        100  MISS %:          0   MPKI: 0
PSCL3 LOAD TRANSLATION ACCESS:      13546  HIT:      13546  MISS:          0  HIT %:        100  MISS %:          0   MPKI: 0
PSCL3 PREFETCH  REQUESTED:          0  ISSUED:          0  USEFUL:          0  USELESS:          0
PSCL3 USEFUL LOAD PREFETCHES:          0 PREFETCH ISSUED TO LOWER LEVEL:          0  ACCURACY: -nan
PSCL3 TIMELY PREFETCHES:          0 LATE PREFETCHES: 0 DROPPED PREFETCHES: 0
PSCL3 PREFETCHES SAME FILL-ORIGIN LEVEL: 0 DIFFERENT FILL-ORIGIN LEVEL: 0

PSCL2 TOTAL     ACCESS:      13546  HIT:      13380  MISS:        166  HIT %:    98.7745  MISS %:    1.22545   MPKI: 0.00332
PSCL2 LOAD TRANSLATION ACCESS:      13546  HIT:      13380  MISS:        166  HIT %:    98.7745  MISS %:    1.22545   MPKI: 0.00332
PSCL2 PREFETCH  REQUESTED:          0  ISSUED:          0  USEFUL:          0  USELESS:          0
PSCL2 USEFUL LOAD PREFETCHES:          0 PREFETCH ISSUED TO LOWER LEVEL:          0  ACCURACY: -nan
PSCL2 TIMELY PREFETCHES:          0 LATE PREFETCHES: 0 DROPPED PREFETCHES: 0
PSCL2 PREFETCHES SAME FILL-ORIGIN LEVEL: 0 DIFFERENT FILL-ORIGIN LEVEL: 0

LLC TOTAL     ACCESS:    1463477  HIT:     830224  MISS:     633253  HIT %:    56.7296  MISS %:    43.2704   MPKI: 12.6651
LLC LOAD      ACCESS:    1235103  HIT:     606792  MISS:     628311  HIT %:    49.1289  MISS %:    50.8711   MPKI: 12.5662
LLC RFO       ACCESS:      85989  HIT:      85155  MISS:        834  HIT %:    99.0301  MISS %:   0.969891   MPKI: 0.01668
LLC WRITEBACK ACCESS:     136481  HIT:     133987  MISS:       2494  HIT %:    98.1726  MISS %:    1.82736   MPKI: 0.04988
LLC LOAD TRANSLATION ACCESS:       5904  HIT:       4290  MISS:       1614  HIT %:    72.6626  MISS %:    27.3374   MPKI: 0.03228
LLC PREFETCH  REQUESTED:          0  ISSUED:          0  USEFUL:          0  USELESS:          0
LLC USEFUL LOAD PREFETCHES:          0 PREFETCH ISSUED TO LOWER LEVEL:          0  ACCURACY: -nan
LLC TIMELY PREFETCHES:          0 LATE PREFETCHES: 0 DROPPED PREFETCHES: 0
LLC PREFETCHES SAME FILL-ORIGIN LEVEL: 0 DIFFERENT FILL-ORIGIN LEVEL: 0
LLC AVERAGE MISS LATENCY: 128.035 cycles
LLC RQ	ACCESS:    1326998	FORWARD:          0	MERGED:          0	TO_CACHE:    1326996
LLC WQ	ACCESS:     136481	FORWARD:          2	MERGED:          0	TO_CACHE:     136481

LLC Dense regions hint to LLC: 0

RAW hits: 724261
Loads Generated: 17525886
Loads sent to L1D: 16801623
Stores Generated: 5753549
Stores sent to L1D: 5753549
Major fault: 0 Minor fault: 9976
Allocated PAGES: 9976

DRAM Statistics
 CHANNEL 0
 RQ ROW_BUFFER_HIT:     288099  ROW_BUFFER_MISS:     342660
 DBUS_CONGESTED:         49
 WQ ROW_BUFFER_HIT:       1192  ROW_BUFFER_MISS:       5764  FULL:          0

 AVG_CONGESTED_CYCLE: 4
 All warmup complete: 2
Channel 0 Bank busy for read cycles: 0
Channel 0 Bank busy for write cycles: 0
Channel 0
Rank 0
0banks busy for read cycles: 166905132
0banks busy for write cycles: 6425
1banks busy for read cycles: 24845947
1banks busy for write cycles: 1206682
2banks busy for read cycles: 9688759
2banks busy for write cycles: 82270
3banks busy for read cycles: 3905144
3banks busy for write cycles: 8111
4banks busy for read cycles: 1374164
4banks busy for write cycles: 856
5banks busy for read cycles: 428004
5banks busy for write cycles: 865
6banks busy for read cycles: 134484
6banks busy for write cycles: 270
7banks busy for read cycles: 77907
7banks busy for write cycles: 0
8banks busy for read cycles: 109604
8banks busy for write cycles: 0

CPU 0 Branch Prediction Accuracy: 89.0487% MPKI: 27.313 Average ROB Occupancy at Mispredict: 13.1386
Branch types
NOT_BRANCH: 37529454 75.0589%
BRANCH_DIRECT_JUMP: 1326301 2.6526%
BRANCH_INDIRECT: 0 0%
BRANCH_CONDITIONAL: 8470661 16.9413%
BRANCH_DIRECT_CALL: 1261742 2.52348%
BRANCH_INDIRECT_CALL: 74878 0.149756%
BRANCH_RETURN: 1336623 2.67325%
BRANCH_OTHER: 0 0%

@sumon_overall_L1D         0         0         0         0         0         0
@Sumon_Early_by_class_L1D         0         0         0         0
@Sumon_Late_by_class_L1D         0         0         0         0

@Sumon_Early_by_cycle_L1D         0         0         0         0         0         0         0         0         0         0         0         0
@Sumon_Late_by_cycle_L1D         0         0         0         0         0         0         0         0         0         0         0         0
@Sumon_Early_stream_L1D         0         0         0         0         0         0         0         0         0         0         0         0
@Sumon_Early_CS_L1D         0         0         0         0         0         0         0         0         0         0         0         0
@Sumon_Early_CPLX_L1D         0         0         0         0         0         0         0         0         0         0         0         0
@Sumon_Late_stream_L1D         0         0         0         0         0         0         0         0         0         0         0         0
@Sumon_Late_CS_L1D         0         0         0         0         0         0         0         0         0         0         0         0
@Sumon_Late_CPLX_L1D         0         0         0         0         0         0         0         0         0         0         0         0
@sumon_overall_L2C         0         0         0         0         0         0
@Sumon_Early_by_class_L2C         0         0         0         0
@Sumon_Late_by_class_L2C         0         0         0         0

@Sumon_Early_by_cycle_L2C         0         0         0         0         0         0         0         0         0         0         0         0
@Sumon_Late_by_cycle_L2C         0         0         0         0         0         0         0         0         0         0         0         0
@Sumon_Early_stream_L2C         0         0         0         0         0         0         0         0         0         0         0         0
@Sumon_Early_CS_L2C         0         0         0         0         0         0         0         0         0         0         0         0
@Sumon_Early_CPLX_L2C         0         0         0         0         0         0         0         0         0         0         0         0
@Sumon_Late_stream_L2C         0         0         0         0         0         0         0         0         0         0         0         0
@Sumon_Late_CS_L2C         0         0         0         0         0         0         0         0         0         0         0         0
@Sumon_Late_CPLX_L2C         0         0         0         0         0         0         0         0         0         0         0         0
DRAM PAGES: 1048576
Allocated PAGES: 9976
