
*** ChampSim Multicore Out-of-Order Simulator ***

Warmup Instructions: 10000000
Simulation Instructions: 50000000
Number of CPUs: 1
LLC sets: 2048
LLC ways: 16
Off-chip DRAM Size: 4096 MB Channels: 1 Width: 64-bit Data Rate: 6400 MT/s
CPU 0 runs traces/SPEC2017/605.mcf_s-472B.champsimtrace.xz
.xz
CPU 0 Bimodal branch predictor
BTB has LRU replacement policy
ITLB has LRU replacement policy
DTLB has LRU replacement policy
STLB has LRU replacement policy
L1I has LRU replacement policy
L1D has LRU replacement policy
L2C has LRU replacement policy
LLC has LRU replacement policy
Heartbeat CPU 0 instructions: 10000001 cycles: 3248425 heartbeat IPC: 3.07842 cumulative IPC: 3.07842 (Simulation time: 0 hr 17 min 39 sec) 

Warmup complete CPU 0 instructions: 10000001 cycles: 3248425 (Simulation time: 0 hr 17 min 39 sec) 

Heartbeat CPU 0 instructions: 20000000 cycles: 53126018 heartbeat IPC: 0.200491 cumulative IPC: 0.200491 (Simulation time: 0 hr 57 min 44 sec) 
Heartbeat CPU 0 instructions: 30000002 cycles: 109387610 heartbeat IPC: 0.177741 cumulative IPC: 0.188432 (Simulation time: 1 hr 41 min 22 sec) 
Heartbeat CPU 0 instructions: 40000000 cycles: 148264781 heartbeat IPC: 0.25722 cumulative IPC: 0.206873 (Simulation time: 2 hr 9 min 21 sec) 
Heartbeat CPU 0 instructions: 50000001 cycles: 188851121 heartbeat IPC: 0.246388 cumulative IPC: 0.215514 (Simulation time: 2 hr 26 min 23 sec) 
Heartbeat CPU 0 instructions: 60000001 cycles: 229253573 heartbeat IPC: 0.24751 cumulative IPC: 0.221234 (Simulation time: 2 hr 36 min 37 sec) 
Finished CPU 0 instructions: 50000000 cycles: 226005148 cumulative IPC: 0.221234 (Simulation time: 2 hr 36 min 37 sec) 

ChampSim completed all CPUs

Region of Interest Statistics

CPU 0 cumulative IPC: 0.221234 instructions: 50000000 cycles: 226005148
ITLB TOTAL     ACCESS:    8958197  HIT:    8958197  MISS:          0  HIT %:        100  MISS %:          0   MPKI: 0
ITLB LOAD TRANSLATION ACCESS:    8958197  HIT:    8958197  MISS:          0  HIT %:        100  MISS %:          0   MPKI: 0
ITLB PREFETCH  REQUESTED:          0  ISSUED:          0  USEFUL:          0  USELESS:          0
ITLB USEFUL LOAD PREFETCHES:          0 PREFETCH ISSUED TO LOWER LEVEL:          0  ACCURACY: -nan
ITLB TIMELY PREFETCHES:          0 LATE PREFETCHES: 0 DROPPED PREFETCHES: 0
ITLB PREFETCHES SAME FILL-ORIGIN LEVEL: 0 DIFFERENT FILL-ORIGIN LEVEL: 0
ITLB AVERAGE MISS LATENCY: -nan cycles
ITLB RQ	ACCESS:   11471034	FORWARD:          0	MERGED:    2512838	TO_CACHE:    8958196

DTLB TOTAL     ACCESS:   13970542  HIT:   13843720  MISS:     126822  HIT %:    99.0922  MISS %:   0.907782   MPKI: 2.53644
DTLB LOAD TRANSLATION ACCESS:   13970542  HIT:   13843720  MISS:     126822  HIT %:    99.0922  MISS %:   0.907782   MPKI: 2.53644
DTLB PREFETCH  REQUESTED:          0  ISSUED:          0  USEFUL:          0  USELESS:          0
DTLB USEFUL LOAD PREFETCHES:          0 PREFETCH ISSUED TO LOWER LEVEL:          0  ACCURACY: -nan
DTLB TIMELY PREFETCHES:          0 LATE PREFETCHES: 0 DROPPED PREFETCHES: 0
DTLB PREFETCHES SAME FILL-ORIGIN LEVEL: 0 DIFFERENT FILL-ORIGIN LEVEL: 0
DTLB AVERAGE MISS LATENCY: 45.8456 cycles
DTLB RQ	ACCESS:   22626614	FORWARD:          0	MERGED:    8629495	TO_CACHE:   13997119

STLB TOTAL     ACCESS:     126822  HIT:      52272  MISS:      74550  HIT %:    41.2168  MISS %:    58.7832   MPKI: 1.491
STLB LOAD TRANSLATION ACCESS:     126822  HIT:      52272  MISS:      74550  HIT %:    41.2168  MISS %:    58.7832   MPKI: 1.491
STLB PREFETCH  REQUESTED:          0  ISSUED:          0  USEFUL:          0  USELESS:          0
STLB USEFUL LOAD PREFETCHES:          0 PREFETCH ISSUED TO LOWER LEVEL:          0  ACCURACY: -nan
STLB TIMELY PREFETCHES:          0 LATE PREFETCHES: 0 DROPPED PREFETCHES: 0
STLB PREFETCHES SAME FILL-ORIGIN LEVEL: 0 DIFFERENT FILL-ORIGIN LEVEL: 0
STLB AVERAGE MISS LATENCY: 62.6677 cycles
STLB RQ	ACCESS:     126822	FORWARD:          0	MERGED:          0	TO_CACHE:     126822

STLB Hit, L1D data hit: 0
STLB Hit, L2C data hit: 0
STLB Hit, LLC data hit: 0
STLB Hit, LLC data miss: 0
STLB STLB hints to L2: 0
L1D TOTAL     ACCESS:   21893864  HIT:   19074921  MISS:    2818943  HIT %:    87.1245  MISS %:    12.8755   MPKI: 56.3789
L1D LOAD      ACCESS:   10594369  HIT:    7908446  MISS:    2685923  HIT %:    74.6476  MISS %:    25.3524   MPKI: 53.7185
L1D RFO       ACCESS:   11299495  HIT:   11166475  MISS:     133020  HIT %:    98.8228  MISS %:    1.17722   MPKI: 2.6604
L1D PREFETCH  REQUESTED:          0  ISSUED:          0  USEFUL:          0  USELESS:          0
L1D USEFUL LOAD PREFETCHES:          0 PREFETCH ISSUED TO LOWER LEVEL:          0  ACCURACY: -nan
L1D TIMELY PREFETCHES:          0 LATE PREFETCHES: 0 DROPPED PREFETCHES: 0
L1D PREFETCHES SAME FILL-ORIGIN LEVEL: 0 DIFFERENT FILL-ORIGIN LEVEL: 0
L1D AVERAGE MISS LATENCY: 178.091 cycles
L1D RQ	ACCESS:   17024433	FORWARD:          0	MERGED:    6058867	TO_CACHE:   10955265
L1D WQ	ACCESS:   11892813	FORWARD:      10301	MERGED:     221464	TO_CACHE:   11671349

L1D UNIQUE REGIONS ACCESSED: 0
L1D REGIONS CONFLICTS: 0
L1D Cross Page Prefetch Requests: 0
L1D Same Page Prefetch Requests: 0
L1D ROI Sum of L1D PQ occupancy: 0
L1D PREFETCHES PUSHED FROM L2C: 0
L1I TOTAL     ACCESS:   11471033  HIT:   11471033  MISS:          0  HIT %:        100  MISS %:          0   MPKI: 0
L1I LOAD      ACCESS:   11471033  HIT:   11471033  MISS:          0  HIT %:        100  MISS %:          0   MPKI: 0
L1I PREFETCH  REQUESTED:          0  ISSUED:          0  USEFUL:          0  USELESS:          0
L1I USEFUL LOAD PREFETCHES:          0 PREFETCH ISSUED TO LOWER LEVEL:          0  ACCURACY: -nan
L1I TIMELY PREFETCHES:          0 LATE PREFETCHES: 0 DROPPED PREFETCHES: 0
L1I PREFETCHES SAME FILL-ORIGIN LEVEL: 0 DIFFERENT FILL-ORIGIN LEVEL: 0
L1I AVERAGE MISS LATENCY: -nan cycles
L1I RQ	ACCESS:   15728339	FORWARD:          0	MERGED:    4257305	TO_CACHE:   11471034

BTB TOTAL     ACCESS:    5821401  HIT:    5821367  MISS:         34  HIT %:    99.9994  MISS %: 0.000584052   MPKI: 0.00068
BTB BRANCH_DIRECT_JUMP	ACCESS:     638582  HIT:     638576  MISS:          6
BTB BRANCH_INDIRECT	ACCESS:          0  HIT:          0  MISS:          0
BTB BRANCH_CONDITIONAL	ACCESS:    5182671  HIT:    5182647  MISS:         24
BTB BRANCH_DIRECT_CALL	ACCESS:         74  HIT:         72  MISS:          2
BTB BRANCH_INDIRECT_CALL	ACCESS:          0  HIT:          0  MISS:          0
BTB BRANCH_RETURN	ACCESS:         74  HIT:         72  MISS:          2
BTB BRANCH_OTHER ACCESS:          0  HIT:          0  MISS:          0

L2C TOTAL     ACCESS:    3179340  HIT:     384307  MISS:    2795033  HIT %:    12.0876  MISS %:    87.9124   MPKI: 55.9007
L2C LOAD      ACCESS:    2685920  HIT:      33619  MISS:    2652301  HIT %:    1.25168  MISS %:    98.7483   MPKI: 53.046
L2C DATA LOAD MPKI: 53.046
L2C INSTRUCTION LOAD MPKI: 0
L2C RFO       ACCESS:     133016  HIT:       2380  MISS:     130636  HIT %:    1.78926  MISS %:    98.2107   MPKI: 2.61272
L2C WRITEBACK ACCESS:     285810  HIT:     284364  MISS:       1446  HIT %:    99.4941  MISS %:   0.505931   MPKI: 0.02892
L2C LOAD TRANSLATION ACCESS:      74594  HIT:      63944  MISS:      10650  HIT %:    85.7227  MISS %:    14.2773   MPKI: 0.213
L2C PREFETCH  REQUESTED:          0  ISSUED:          0  USEFUL:          0  USELESS:          0
L2C USEFUL LOAD PREFETCHES:          0 PREFETCH ISSUED TO LOWER LEVEL:          0  ACCURACY: -nan
L2C TIMELY PREFETCHES:          0 LATE PREFETCHES: 0 DROPPED PREFETCHES: 0
L2C PREFETCHES SAME FILL-ORIGIN LEVEL: 0 DIFFERENT FILL-ORIGIN LEVEL: 0
L2C AVERAGE MISS LATENCY: 165.171 cycles
L2C RQ	ACCESS:    2893537	FORWARD:          0	MERGED:          0	TO_CACHE:    2893530
L2C WQ	ACCESS:     285810	FORWARD:          7	MERGED:          0	TO_CACHE:     285810

L2C Instructions Evicting Data 0
L2C Translations Evicting Data 10638
L2C Data Evicting Data 2772392
L2C Instructions Evicting Instructions 0
L2C Translations Evicting Instructions 0
L2C Data Evicting Instructions 0
L2C Instructions Evicting Translations 0
L2C Translations Evicting Translations 12
L2C Data Evicting Translations 10545
L2C Dense regions hint from L2: 0
PSCL5 TOTAL     ACCESS:      74550  HIT:      74550  MISS:          0  HIT %:        100  MISS %:          0   MPKI: 0
PSCL5 LOAD TRANSLATION ACCESS:      74550  HIT:      74550  MISS:          0  HIT %:        100  MISS %:          0   MPKI: 0
PSCL5 PREFETCH  REQUESTED:          0  ISSUED:          0  USEFUL:          0  USELESS:          0
PSCL5 USEFUL LOAD PREFETCHES:          0 PREFETCH ISSUED TO LOWER LEVEL:          0  ACCURACY: -nan
PSCL5 TIMELY PREFETCHES:          0 LATE PREFETCHES: 0 DROPPED PREFETCHES: 0
PSCL5 PREFETCHES SAME FILL-ORIGIN LEVEL: 0 DIFFERENT FILL-ORIGIN LEVEL: 0

PSCL4 TOTAL     ACCESS:      74550  HIT:      74550  MISS:          0  HIT %:        100  MISS %:          0   MPKI: 0
PSCL4 LOAD TRANSLATION ACCESS:      74550  HIT:      74550  MISS:          0  HIT %:        100  MISS %:          0   MPKI: 0
PSCL4 PREFETCH  REQUESTED:          0  ISSUED:          0  USEFUL:          0  USELESS:          0
PSCL4 USEFUL LOAD PREFETCHES:          0 PREFETCH ISSUED TO LOWER LEVEL:          0  ACCURACY: -nan
PSCL4 TIMELY PREFETCHES:          0 LATE PREFETCHES: 0 DROPPED PREFETCHES: 0
PSCL4 PREFETCHES SAME FILL-ORIGIN LEVEL: 0 DIFFERENT FILL-ORIGIN LEVEL: 0

PSCL3 TOTAL     ACCESS:      74550  HIT:      74550  MISS:          0  HIT %:        100  MISS %:          0   MPKI: 0
PSCL3 LOAD TRANSLATION ACCESS:      74550  HIT:      74550  MISS:          0  HIT %:        100  MISS %:          0   MPKI: 0
PSCL3 PREFETCH  REQUESTED:          0  ISSUED:          0  USEFUL:          0  USELESS:          0
PSCL3 USEFUL LOAD PREFETCHES:          0 PREFETCH ISSUED TO LOWER LEVEL:          0  ACCURACY: -nan
PSCL3 TIMELY PREFETCHES:          0 LATE PREFETCHES: 0 DROPPED PREFETCHES: 0
PSCL3 PREFETCHES SAME FILL-ORIGIN LEVEL: 0 DIFFERENT FILL-ORIGIN LEVEL: 0

PSCL2 TOTAL     ACCESS:      74550  HIT:      74474  MISS:         76  HIT %:    99.8981  MISS %:   0.101945   MPKI: 0.00152
PSCL2 LOAD TRANSLATION ACCESS:      74550  HIT:      74474  MISS:         76  HIT %:    99.8981  MISS %:   0.101945   MPKI: 0.00152
PSCL2 PREFETCH  REQUESTED:          0  ISSUED:          0  USEFUL:          0  USELESS:          0
PSCL2 USEFUL LOAD PREFETCHES:          0 PREFETCH ISSUED TO LOWER LEVEL:          0  ACCURACY: -nan
PSCL2 TIMELY PREFETCHES:          0 LATE PREFETCHES: 0 DROPPED PREFETCHES: 0
PSCL2 PREFETCHES SAME FILL-ORIGIN LEVEL: 0 DIFFERENT FILL-ORIGIN LEVEL: 0

LLC TOTAL     ACCESS:    3052582  HIT:     260918  MISS:    2791664  HIT %:    8.54745  MISS %:    91.4525   MPKI: 55.8333
LLC LOAD      ACCESS:    2652300  HIT:       2315  MISS:    2649985  HIT %:  0.0872827  MISS %:    99.9127   MPKI: 52.9997
LLC RFO       ACCESS:     130636  HIT:         98  MISS:     130538  HIT %:  0.0750176  MISS %:     99.925   MPKI: 2.61076
LLC WRITEBACK ACCESS:     258996  HIT:     258205  MISS:        791  HIT %:    99.6946  MISS %:    0.30541   MPKI: 0.01582
LLC LOAD TRANSLATION ACCESS:      10650  HIT:        300  MISS:      10350  HIT %:     2.8169  MISS %:    97.1831   MPKI: 0.207
LLC PREFETCH  REQUESTED:          0  ISSUED:          0  USEFUL:          0  USELESS:          0
LLC USEFUL LOAD PREFETCHES:          0 PREFETCH ISSUED TO LOWER LEVEL:          0  ACCURACY: -nan
LLC TIMELY PREFETCHES:          0 LATE PREFETCHES: 0 DROPPED PREFETCHES: 0
LLC PREFETCHES SAME FILL-ORIGIN LEVEL: 0 DIFFERENT FILL-ORIGIN LEVEL: 0
LLC AVERAGE MISS LATENCY: 135.328 cycles
LLC RQ	ACCESS:    2793587	FORWARD:          0	MERGED:          0	TO_CACHE:    2793586
LLC WQ	ACCESS:     258996	FORWARD:          1	MERGED:          0	TO_CACHE:     258996

LLC Dense regions hint to LLC: 0

RAW hits: 728492
Loads Generated: 17752925
Loads sent to L1D: 17024433
Stores Generated: 11892805
Stores sent to L1D: 11892813
Major fault: 0 Minor fault: 13946
Allocated PAGES: 13946

DRAM Statistics
 CHANNEL 0
 RQ ROW_BUFFER_HIT:    1424957  ROW_BUFFER_MISS:    1365916
 DBUS_CONGESTED:       7278
 WQ ROW_BUFFER_HIT:     145543  ROW_BUFFER_MISS:     111300  FULL:          0

 AVG_CONGESTED_CYCLE: 4
 All warmup complete: 2
Channel 0 Bank busy for read cycles: 0
Channel 0 Bank busy for write cycles: 0
Channel 0
Rank 0
0banks busy for read cycles: 66536077
0banks busy for write cycles: 15062
1banks busy for read cycles: 67453273
1banks busy for write cycles: 4315875
2banks busy for read cycles: 35636369
2banks busy for write cycles: 1861342
3banks busy for read cycles: 21872454
3banks busy for write cycles: 1226225
4banks busy for read cycles: 11196412
4banks busy for write cycles: 944458
5banks busy for read cycles: 3978933
5banks busy for write cycles: 842342
6banks busy for read cycles: 1009440
6banks busy for write cycles: 867858
7banks busy for read cycles: 176328
7banks busy for write cycles: 1525479
8banks busy for read cycles: 313
8banks busy for write cycles: 6546909

CPU 0 Branch Prediction Accuracy: 98.3401% MPKI: 1.96794 Average ROB Occupancy at Mispredict: 177.544
Branch types
NOT_BRANCH: 44071945 88.1439%
BRANCH_DIRECT_JUMP: 638582 1.27716%
BRANCH_INDIRECT: 0 0%
BRANCH_CONDITIONAL: 5289321 10.5786%
BRANCH_DIRECT_CALL: 74 0.000148%
BRANCH_INDIRECT_CALL: 0 0%
BRANCH_RETURN: 74 0.000148%
BRANCH_OTHER: 0 0%

@sumon_overall_L1D         0         0         0         0         0         0
@Sumon_Early_by_class_L1D         0         0         0         0
@Sumon_Late_by_class_L1D         0         0         0         0

@Sumon_Early_by_cycle_L1D         0         0         0         0         0         0         0         0         0         0         0         0
@Sumon_Late_by_cycle_L1D         0         0         0         0         0         0         0         0         0         0         0         0
@Sumon_Early_stream_L1D         0         0         0         0         0         0         0         0         0         0         0         0
@Sumon_Early_CS_L1D         0         0         0         0         0         0         0         0         0         0         0         0
@Sumon_Early_CPLX_L1D         0         0         0         0         0         0         0         0         0         0         0         0
@Sumon_Late_stream_L1D         0         0         0         0         0         0         0         0         0         0         0         0
@Sumon_Late_CS_L1D         0         0         0         0         0         0         0         0         0         0         0         0
@Sumon_Late_CPLX_L1D         0         0         0         0         0         0         0         0         0         0         0         0
@sumon_overall_L2C         0         0         0         0         0         0
@Sumon_Early_by_class_L2C         0         0         0         0
@Sumon_Late_by_class_L2C         0         0         0         0

@Sumon_Early_by_cycle_L2C         0         0         0         0         0         0         0         0         0         0         0         0
@Sumon_Late_by_cycle_L2C         0         0         0         0         0         0         0         0         0         0         0         0
@Sumon_Early_stream_L2C         0         0         0         0         0         0         0         0         0         0         0         0
@Sumon_Early_CS_L2C         0         0         0         0         0         0         0         0         0         0         0         0
@Sumon_Early_CPLX_L2C         0         0         0         0         0         0         0         0         0         0         0         0
@Sumon_Late_stream_L2C         0         0         0         0         0         0         0         0         0         0         0         0
@Sumon_Late_CS_L2C         0         0         0         0         0         0         0         0         0         0         0         0
@Sumon_Late_CPLX_L2C         0         0         0         0         0         0         0         0         0         0         0         0
DRAM PAGES: 1048576
Allocated PAGES: 13946
