
*** ChampSim Multicore Out-of-Order Simulator ***

Warmup Instructions: 10000000
Simulation Instructions: 50000000
Number of CPUs: 1
LLC sets: 2048
LLC ways: 16
Off-chip DRAM Size: 4096 MB Channels: 1 Width: 64-bit Data Rate: 6400 MT/s
CPU 0 runs dpc3_traces/603.bwaves_s-891B.champsimtrace.xz
.xz
CPU 0 Bimodal branch predictor
BTB has LRU replacement policy
ITLB has LRU replacement policy
DTLB has LRU replacement policy
STLB has LRU replacement policy
L1I has LRU replacement policy
IP Table Entries: 256
L1D has LRU replacement policy
IP_Table L2 entries: 256
L2C has LRU replacement policy
LLC has LRU replacement policy
Heartbeat CPU 0 instructions: 10000003 cycles: 2716412 heartbeat IPC: 3.68133 cumulative IPC: 3.68133 (Simulation time: 0 hr 3 min 51 sec) 

Warmup complete CPU 0 instructions: 10000003 cycles: 2716412 (Simulation time: 0 hr 3 min 51 sec) 

Heartbeat CPU 0 instructions: 20000000 cycles: 17320436 heartbeat IPC: 0.684743 cumulative IPC: 0.684743 (Simulation time: 0 hr 9 min 17 sec) 
Heartbeat CPU 0 instructions: 30000000 cycles: 31930703 heartbeat IPC: 0.68445 cumulative IPC: 0.684596 (Simulation time: 0 hr 14 min 43 sec) 
Heartbeat CPU 0 instructions: 40000001 cycles: 46539399 heartbeat IPC: 0.684524 cumulative IPC: 0.684572 (Simulation time: 0 hr 20 min 3 sec) 
Heartbeat CPU 0 instructions: 50000000 cycles: 62663615 heartbeat IPC: 0.620185 cumulative IPC: 0.667254 (Simulation time: 0 hr 24 min 48 sec) 
Heartbeat CPU 0 instructions: 60000001 cycles: 79402606 heartbeat IPC: 0.597408 cumulative IPC: 0.652008 (Simulation time: 0 hr 29 min 15 sec) 
Finished CPU 0 instructions: 50000002 cycles: 76686197 cumulative IPC: 0.652008 (Simulation time: 0 hr 29 min 15 sec) 

ChampSim completed all CPUs

Region of Interest Statistics

CPU 0 cumulative IPC: 0.652008 instructions: 50000002 cycles: 76686197
ITLB TOTAL     ACCESS:    7209157  HIT:    7209157  MISS:          0  HIT %:        100  MISS %:          0   MPKI: 0
ITLB LOAD TRANSLATION ACCESS:    7209157  HIT:    7209157  MISS:          0  HIT %:        100  MISS %:          0   MPKI: 0
ITLB PREFETCH  REQUESTED:          0  ISSUED:          0  USEFUL:          0  USELESS:          0
ITLB USEFUL LOAD PREFETCHES:          0 PREFETCH ISSUED TO LOWER LEVEL:          0  ACCURACY: -nan
ITLB TIMELY PREFETCHES:          0 LATE PREFETCHES: 0 DROPPED PREFETCHES: 0
ITLB PREFETCHES SAME FILL-ORIGIN LEVEL: 0 DIFFERENT FILL-ORIGIN LEVEL: 0
ITLB AVERAGE MISS LATENCY: -nan cycles
ITLB RQ	ACCESS:    9708825	FORWARD:          0	MERGED:    2499668	TO_CACHE:    7209157

DTLB TOTAL     ACCESS:    8603285  HIT:    8585113  MISS:      18172  HIT %:    99.7888  MISS %:   0.211222   MPKI: 0.36344
DTLB LOAD TRANSLATION ACCESS:    8603285  HIT:    8585113  MISS:      18172  HIT %:    99.7888  MISS %:   0.211222   MPKI: 0.36344
DTLB PREFETCH  REQUESTED:          0  ISSUED:          0  USEFUL:          0  USELESS:          0
DTLB USEFUL LOAD PREFETCHES:          0 PREFETCH ISSUED TO LOWER LEVEL:          0  ACCURACY: -nan
DTLB TIMELY PREFETCHES:          0 LATE PREFETCHES: 0 DROPPED PREFETCHES: 0
DTLB PREFETCHES SAME FILL-ORIGIN LEVEL: 0 DIFFERENT FILL-ORIGIN LEVEL: 0
DTLB AVERAGE MISS LATENCY: 283.471 cycles
DTLB RQ	ACCESS:    9089694	FORWARD:          0	MERGED:     485615	TO_CACHE:    8604079

STLB TOTAL     ACCESS:    1083685  HIT:    1065569  MISS:      18116  HIT %:    98.3283  MISS %:     1.6717   MPKI: 0.36232
STLB LOAD TRANSLATION ACCESS:      18172  HIT:         56  MISS:      18116  HIT %:   0.308166  MISS %:    99.6918   MPKI: 0.36232
STLB TRANSLATION FROM L1D PREFETCHER ACCESS:    1065513  HIT:    1065513  MISS:          0  HIT %:        100  MISS %:          0   MPKI: 0
STLB PREFETCH  REQUESTED:          0  ISSUED:          0  USEFUL:          0  USELESS:          0
STLB USEFUL LOAD PREFETCHES:          0 PREFETCH ISSUED TO LOWER LEVEL:          0  ACCURACY: -nan
STLB TIMELY PREFETCHES:          0 LATE PREFETCHES: 0 DROPPED PREFETCHES: 0
STLB PREFETCHES SAME FILL-ORIGIN LEVEL: 0 DIFFERENT FILL-ORIGIN LEVEL: 0
STLB AVERAGE MISS LATENCY: 270.229 cycles
STLB RQ	ACCESS:    1197867	FORWARD:          0	MERGED:     114183	TO_CACHE:    1083684

STLB Hit, L1D data hit: 0
STLB Hit, L2C data hit: 0
STLB Hit, LLC data hit: 0
STLB Hit, LLC data miss: 0
STLB STLB hints to L2: 0
L1D TOTAL     ACCESS:   10236548  HIT:    9077044  MISS:    1159504  HIT %:    88.6729  MISS %:    11.3271   MPKI: 23.1901
L1D LOAD      ACCESS:    6475701  HIT:    6452705  MISS:      22996  HIT %:    99.6449  MISS %:   0.355112   MPKI: 0.45992
L1D RFO       ACCESS:    2586086  HIT:    2586085  MISS:          1  HIT %:        100  MISS %: 3.86685e-05   MPKI: 2e-05
L1D PREFETCH  ACCESS:    1174761  HIT:      38254  MISS:    1136507  HIT %:    3.25632  MISS %:    96.7437   MPKI: 22.7301
L1D PREFETCH  REQUESTED:    2359390  ISSUED:    2359390  USEFUL:    1136496  USELESS:         28
L1D USEFUL LOAD PREFETCHES:    1136496 PREFETCH ISSUED TO LOWER LEVEL:    1140338  ACCURACY: 99.6631
L1D TIMELY PREFETCHES:    1136496 LATE PREFETCHES: 3819 DROPPED PREFETCHES: 0
L1D PREFETCHES SAME FILL-ORIGIN LEVEL: 1140338 DIFFERENT FILL-ORIGIN LEVEL: 0
L1D AVERAGE MISS LATENCY: 195595 cycles
L1D RQ	ACCESS:    7957241	FORWARD:          0	MERGED:    1453471	TO_CACHE:    6503608
L1D WQ	ACCESS:    2590179	FORWARD:        162	MERGED:       4093	TO_CACHE:    2586086
L1D PQ	ACCESS:    1179695	FORWARD:          0	MERGED:          0	TO_CACHE:    1179695

L1D UNIQUE REGIONS ACCESSED: 0
L1D REGIONS CONFLICTS: 0
L1D Cross Page Prefetch Requests: 0
L1D Same Page Prefetch Requests: 1454488
L1D ROI Sum of L1D PQ occupancy: 17725556
L1D PREFETCHES PUSHED FROM L2C: 0
L1I TOTAL     ACCESS:    9708822  HIT:    9708818  MISS:          4  HIT %:        100  MISS %: 4.11996e-05   MPKI: 8e-05
L1I LOAD      ACCESS:    9708822  HIT:    9708818  MISS:          4  HIT %:        100  MISS %: 4.11996e-05   MPKI: 8e-05
L1I PREFETCH  REQUESTED:          0  ISSUED:          0  USEFUL:          0  USELESS:          0
L1I USEFUL LOAD PREFETCHES:          0 PREFETCH ISSUED TO LOWER LEVEL:          0  ACCURACY: -nan
L1I TIMELY PREFETCHES:          0 LATE PREFETCHES: 0 DROPPED PREFETCHES: 0
L1I PREFETCHES SAME FILL-ORIGIN LEVEL: 0 DIFFERENT FILL-ORIGIN LEVEL: 0
L1I AVERAGE MISS LATENCY: 250.25 cycles
L1I RQ	ACCESS:   13133072	FORWARD:          0	MERGED:    3424247	TO_CACHE:    9708825

BTB TOTAL     ACCESS:    3628114  HIT:    3628106  MISS:          8  HIT %:    99.9998  MISS %:  0.0002205   MPKI: 0.00016
BTB BRANCH_DIRECT_JUMP	ACCESS:          0  HIT:          0  MISS:          0
BTB BRANCH_INDIRECT	ACCESS:          0  HIT:          0  MISS:          0
BTB BRANCH_CONDITIONAL	ACCESS:    3628114  HIT:    3628106  MISS:          8
BTB BRANCH_DIRECT_CALL	ACCESS:          0  HIT:          0  MISS:          0
BTB BRANCH_INDIRECT_CALL	ACCESS:          0  HIT:          0  MISS:          0
BTB BRANCH_RETURN	ACCESS:          0  HIT:          0  MISS:          0
BTB BRANCH_OTHER ACCESS:          0  HIT:          0  MISS:          0

L2C TOTAL     ACCESS:    5789856  HIT:    4628030  MISS:    1161826  HIT %:    79.9334  MISS %:    20.0666   MPKI: 23.2365
L2C LOAD      ACCESS:      19181  HIT:          0  MISS:      19181  HIT %:          0  MISS %:        100   MPKI: 0.38362
L2C DATA LOAD MPKI: 0.38354
L2C INSTRUCTION LOAD MPKI: 8e-05
L2C RFO       ACCESS:          1  HIT:          0  MISS:          1  HIT %:          0  MISS %:        100   MPKI: 2e-05
L2C PREFETCH  ACCESS:    5305185  HIT:    4164844  MISS:    1140341  HIT %:    78.5052  MISS %:    21.4948   MPKI: 22.8068
L2C DATA PREFETCH MPKI: 22.8068
L2C INSTRUCTION PREFETCH MPKI: 0
L2C WRITEBACK ACCESS:     447373  HIT:     447371  MISS:          2  HIT %:    99.9996  MISS %: 0.000447054   MPKI: 4e-05
L2C LOAD TRANSLATION ACCESS:      18116  HIT:      15815  MISS:       2301  HIT %:    87.2985  MISS %:    12.7015   MPKI: 0.04602
L2C PREFETCH  REQUESTED:    5764951  ISSUED:    4699194  USEFUL:          0  USELESS:    1140325
L2C USEFUL LOAD PREFETCHES:          0 PREFETCH ISSUED TO LOWER LEVEL:    1140342  ACCURACY: 0
L2C TIMELY PREFETCHES:          0 LATE PREFETCHES: 0 DROPPED PREFETCHES: 0
L2C PREFETCHES SAME FILL-ORIGIN LEVEL: 1038849 DIFFERENT FILL-ORIGIN LEVEL: 0
L2C AVERAGE MISS LATENCY: 205.073 cycles
L2C RQ	ACCESS:      37298	FORWARD:          0	MERGED:          0	TO_CACHE:      37298
L2C WQ	ACCESS:     447373	FORWARD:          0	MERGED:          0	TO_CACHE:     447373
L2C PQ	ACCESS:    5839520	FORWARD:          0	MERGED:      99340	TO_CACHE:    5740180

L2C Instructions Evicting Data 4
L2C Translations Evicting Data 2301
L2C Data Evicting Data 1157208
L2C Instructions Evicting Instructions 0
L2C Translations Evicting Instructions 0
L2C Data Evicting Instructions 4
L2C Instructions Evicting Translations 0
L2C Translations Evicting Translations 0
L2C Data Evicting Translations 2307
L2C Dense regions hint from L2: 0
PSCL5 TOTAL     ACCESS:      18116  HIT:      18116  MISS:          0  HIT %:        100  MISS %:          0   MPKI: 0
PSCL5 LOAD TRANSLATION ACCESS:      18116  HIT:      18116  MISS:          0  HIT %:        100  MISS %:          0   MPKI: 0
PSCL5 PREFETCH  REQUESTED:          0  ISSUED:          0  USEFUL:          0  USELESS:          0
PSCL5 USEFUL LOAD PREFETCHES:          0 PREFETCH ISSUED TO LOWER LEVEL:          0  ACCURACY: -nan
PSCL5 TIMELY PREFETCHES:          0 LATE PREFETCHES: 0 DROPPED PREFETCHES: 0
PSCL5 PREFETCHES SAME FILL-ORIGIN LEVEL: 0 DIFFERENT FILL-ORIGIN LEVEL: 0

PSCL4 TOTAL     ACCESS:      18116  HIT:      18116  MISS:          0  HIT %:        100  MISS %:          0   MPKI: 0
PSCL4 LOAD TRANSLATION ACCESS:      18116  HIT:      18116  MISS:          0  HIT %:        100  MISS %:          0   MPKI: 0
PSCL4 PREFETCH  REQUESTED:          0  ISSUED:          0  USEFUL:          0  USELESS:          0
PSCL4 USEFUL LOAD PREFETCHES:          0 PREFETCH ISSUED TO LOWER LEVEL:          0  ACCURACY: -nan
PSCL4 TIMELY PREFETCHES:          0 LATE PREFETCHES: 0 DROPPED PREFETCHES: 0
PSCL4 PREFETCHES SAME FILL-ORIGIN LEVEL: 0 DIFFERENT FILL-ORIGIN LEVEL: 0

PSCL3 TOTAL     ACCESS:      18116  HIT:      18116  MISS:          0  HIT %:        100  MISS %:          0   MPKI: 0
PSCL3 LOAD TRANSLATION ACCESS:      18116  HIT:      18116  MISS:          0  HIT %:        100  MISS %:          0   MPKI: 0
PSCL3 PREFETCH  REQUESTED:          0  ISSUED:          0  USEFUL:          0  USELESS:          0
PSCL3 USEFUL LOAD PREFETCHES:          0 PREFETCH ISSUED TO LOWER LEVEL:          0  ACCURACY: -nan
PSCL3 TIMELY PREFETCHES:          0 LATE PREFETCHES: 0 DROPPED PREFETCHES: 0
PSCL3 PREFETCHES SAME FILL-ORIGIN LEVEL: 0 DIFFERENT FILL-ORIGIN LEVEL: 0

PSCL2 TOTAL     ACCESS:      18116  HIT:      18080  MISS:         36  HIT %:    99.8013  MISS %:   0.198719   MPKI: 0.00072
PSCL2 LOAD TRANSLATION ACCESS:      18116  HIT:      18080  MISS:         36  HIT %:    99.8013  MISS %:   0.198719   MPKI: 0.00072
PSCL2 PREFETCH  REQUESTED:          0  ISSUED:          0  USEFUL:          0  USELESS:          0
PSCL2 USEFUL LOAD PREFETCHES:          0 PREFETCH ISSUED TO LOWER LEVEL:          0  ACCURACY: -nan
PSCL2 TIMELY PREFETCHES:          0 LATE PREFETCHES: 0 DROPPED PREFETCHES: 0
PSCL2 PREFETCHES SAME FILL-ORIGIN LEVEL: 0 DIFFERENT FILL-ORIGIN LEVEL: 0

LLC TOTAL     ACCESS:    1612882  HIT:     451124  MISS:    1161758  HIT %:    27.9701  MISS %:    72.0299   MPKI: 23.2352
LLC LOAD      ACCESS:      19181  HIT:         62  MISS:      19119  HIT %:   0.323237  MISS %:    99.6768   MPKI: 0.38238
LLC RFO       ACCESS:          1  HIT:          0  MISS:          1  HIT %:          0  MISS %:        100   MPKI: 2e-05
LLC PREFETCH  ACCESS:    1140341  HIT:          2  MISS:    1140339  HIT %: 0.000175386  MISS %:    99.9998   MPKI: 22.8068
LLC WRITEBACK ACCESS:     451058  HIT:     451056  MISS:          2  HIT %:    99.9996  MISS %: 0.000443402   MPKI: 4e-05
LLC LOAD TRANSLATION ACCESS:       2301  HIT:          4  MISS:       2297  HIT %:   0.173837  MISS %:    99.8262   MPKI: 0.04594
LLC PREFETCH  REQUESTED:          0  ISSUED:          0  USEFUL:          0  USELESS:    1140412
LLC USEFUL LOAD PREFETCHES:          0 PREFETCH ISSUED TO LOWER LEVEL:    1140340  ACCURACY: 0
LLC TIMELY PREFETCHES:          0 LATE PREFETCHES: 0 DROPPED PREFETCHES: 0
LLC PREFETCHES SAME FILL-ORIGIN LEVEL: 0 DIFFERENT FILL-ORIGIN LEVEL: 0
LLC AVERAGE MISS LATENCY: 174.502 cycles
LLC RQ	ACCESS:      21483	FORWARD:          0	MERGED:          0	TO_CACHE:      21483
LLC WQ	ACCESS:     451058	FORWARD:          0	MERGED:          0	TO_CACHE:     451058
LLC PQ	ACCESS:    1140342	FORWARD:          0	MERGED:          0	TO_CACHE:    1140342

LLC Dense regions hint to LLC: 0

RAW hits: 12886
Loads Generated: 7970129
Loads sent to L1D: 7957241
Stores Generated: 2590179
Stores sent to L1D: 2590179
Major fault: 0 Minor fault: 22421
Allocated PAGES: 22421

stream: 
stream:times selected: 2697184
stream:pref_filled: 1399942
stream:pref_useful: 1399908
stream:pref_late: 3802
stream:misses: 41
stream:misses_by_poll: 0

CS: 
CS:times selected: 2695799
CS:pref_filled: 2264
CS:pref_useful: 2264
CS:pref_late: 0
CS:misses: 56325
CS:misses_by_poll: 11

CPLX: 
CPLX:times selected: 1367
CPLX:pref_filled: 7
CPLX:pref_useful: 7
CPLX:pref_late: 0
CPLX:misses: 170
CPLX:misses_by_poll: 0

NL_L1: 
NL:times selected: 5
NL:pref_filled: 1
NL:pref_useful: 1
NL:pref_late: 0
NL:misses: 1
NL:misses_by_poll: 0

total selections: 5394355
total_filled: 1136507
total_useful: 1136496
total_late: 3819
total_polluted: 11
total_misses_after_warmup: 50904
conflicts: 14
Degree Incremented Times: 43241
Degree Decremented Times: 0

L1 IP Table Write Accesses: 6503607
L1 IP Table Read Accesses: 6503593
L1 RST Write Accesses: 2155124
L1 RST Read Accesses: 4310248
L1 CSPT Write Accesses: 2155124
L1 CSPT Read Accesses: 2158984
L1 RR Filter Tag Write Accesses: 1179695
L1 RR Filter Tag Read Accesses: 393362157
L1 IP Table Tag Write Accesses: 6503609
L1 IP Table Tag Read Accesses: 6503609
L1 RST Tag Write Accesses: 0
L1 RST Tag Read Accesses: 19394676
L1 RR Filter Write Accesses: 0
L1 RR Filter Read Accesses: 18463681
test: 40246
L2 IP Table Read Accesses: 2049313
L2 IP Table Write Accesses: 2030146
L2 IP Table Tag Read Accesses: 1024659
L2 IP Table Tag Write Accesses: 1024659

DRAM Statistics
 CHANNEL 0
 RQ ROW_BUFFER_HIT:     727994  ROW_BUFFER_MISS:     433762
 DBUS_CONGESTED:        250
 WQ ROW_BUFFER_HIT:     239318  ROW_BUFFER_MISS:     224067  FULL:          0

 AVG_CONGESTED_CYCLE: 5
 All warmup complete: 2
Channel 0 Bank busy for read cycles: 0
Channel 0 Bank busy for write cycles: 0
Channel 0
Rank 0
0banks busy for read cycles: 22943554
0banks busy for write cycles: 5213
1banks busy for read cycles: 23862331
1banks busy for write cycles: 300452
2banks busy for read cycles: 7469322
2banks busy for write cycles: 222195
3banks busy for read cycles: 3048815
3banks busy for write cycles: 249485
4banks busy for read cycles: 2772100
4banks busy for write cycles: 227152
5banks busy for read cycles: 1861586
5banks busy for write cycles: 224611
6banks busy for read cycles: 3156188
6banks busy for write cycles: 252349
7banks busy for read cycles: 1996893
7banks busy for write cycles: 882026
8banks busy for read cycles: 182845
8banks busy for write cycles: 7029081

CPU 0 Branch Prediction Accuracy: 85.6192% MPKI: 15.7911 Average ROB Occupancy at Mispredict: 24.202
Branch types
NOT_BRANCH: 44509664 89.0193%
BRANCH_DIRECT_JUMP: 0 0%
BRANCH_INDIRECT: 0 0%
BRANCH_CONDITIONAL: 5490333 10.9807%
BRANCH_DIRECT_CALL: 0 0%
BRANCH_INDIRECT_CALL: 0 0%
BRANCH_RETURN: 0 0%
BRANCH_OTHER: 0 0%

@sumon_overall_L1D   1136496      3819        28   1136507   2359390   2359390
@Sumon_Early_by_class_L1D   1134753      1737         6         0
@Sumon_Late_by_class_L1D      3802         0         0         0

@Sumon_Early_by_cycleL1D      7493     16708     29244    253714     30037    799300         0         0         0         0         0         0
@Sumon_Late_by_cycleL1D      3293       517         9         0         0         0         0         0         0         0         0         0
@Sumon_Early_stream_L1D      7492     16704     29156    252786     29365    799250         0         0         0         0         0         0
@Sumon_Early_CS_L1D         0         3        84       928       672        50         0         0         0         0         0         0
@Sumon_Early_CPLX_L1D         1         1         4         0         0         0         0         0         0         0         0         0
@Sumon_Late_stream_L1D      3276       517         9         0         0         0         0         0         0         0         0         0
@Sumon_Late_CS_L1D         0         0         0         0         0         0         0         0         0         0         0         0
@Sumon_Late_CPLX_L1D         0         0         0         0         0         0         0         0         0         0         0         0
@sumon_overall_L2C         0         0   1140325   1140341   4699194   5764951
@Sumon_Early_by_class_L2C         0         0         0         0
@Sumon_Late_by_class_L2C         0         0         0         0

@Sumon_Early_by_cycleL2C         0         0         0         0         0         0         0         0         0         0         0         0
@Sumon_Late_by_cycleL2C         0         0         0         0         0         0         0         0         0         0         0         0
@Sumon_Early_stream_L2C         0         0         0         0         0         0         0         0         0         0         0         0
@Sumon_Early_CS_L2C         0         0         0         0         0         0         0         0         0         0         0         0
@Sumon_Early_CPLX_L2C         0         0         0         0         0         0         0         0         0         0         0         0
@Sumon_Late_stream_L2C         0         0         0         0         0         0         0         0         0         0         0         0
@Sumon_Late_CS_L2C         0         0         0         0         0         0         0         0         0         0         0         0
@Sumon_Late_CPLX_L2C         0         0         0         0         0         0         0         0         0         0         0         0
DRAM PAGES: 1048576
Allocated PAGES: 22421
