
*** ChampSim Multicore Out-of-Order Simulator ***

Warmup Instructions: 50000000
Simulation Instructions: 50000000
Number of CPUs: 1
LLC sets: 2048
LLC ways: 16
Off-chip DRAM Size: 4096 MB Channels: 1 Width: 64-bit Data Rate: 6400 MT/s
CPU 0 runs ../../biswa/SPEC2017Traces/603.bwaves_s-2609B.champsimtrace.xz
.xz
CPU 0 Bimodal branch predictor
BTB has LRU replacement policy
ITLB has LRU replacement policy
DTLB has LRU replacement policy
STLB has LRU replacement policy
L1I has LRU replacement policy
IP Table Entries: 256
L1D has LRU replacement policy
IP_Table L2 entries: 256
Initialize DRRIP state for L2C
Initialize DRRIP state for LLC
epoch: 1000
next table: 1064
cur table: 1643
epoch: 1000
next table: 1073
cur table: 1064
epoch: 1000
next table: 1063
cur table: 1073
epoch: 1000
next table: 1069
cur table: 1063
epoch: 1000
next table: 1061
cur table: 1069
epoch: 1000
next table: 1058
cur table: 1061
epoch: 1000
next table: 1067
cur table: 1058
epoch: 1000
next table: 1064
cur table: 1067
epoch: 1000
next table: 1062
cur table: 1064
epoch: 1000
next table: 1062
cur table: 1062
epoch: 1000
next table: 1058
cur table: 1062
epoch: 1000
next table: 1064
cur table: 1058
epoch: 1000
next table: 1067
cur table: 1064
epoch: 1000
next table: 1067
cur table: 1067
epoch: 1000
next table: 1060
cur table: 1067
epoch: 1000
next table: 1058
cur table: 1060
epoch: 1000
next table: 1075
cur table: 1058
epoch: 1000
next table: 1059
cur table: 1075
epoch: 1000
next table: 1083
cur table: 1059
epoch: 1000
next table: 1059
cur table: 1083
epoch: 1000
next table: 1064
cur table: 1059
epoch: 1000
next table: 1074
cur table: 1064
epoch: 1000
next table: 1056
cur table: 1074
epoch: 1000
next table: 1070
cur table: 1056
epoch: 1000
next table: 1059
cur table: 1070
epoch: 1000
next table: 1067
cur table: 2616
epoch: 1000
next table: 1069
cur table: 1059
epoch: 1000
next table: 1056
cur table: 1067
epoch: 1000
next table: 1078
cur table: 1069
epoch: 1000
next table: 1054
cur table: 1056
epoch: 1000
next table: 1053
cur table: 1078
epoch: 1000
next table: 1045
cur table: 1054
epoch: 1000
next table: 1059
cur table: 1053
epoch: 1000
next table: 1051
cur table: 1045
epoch: 1000
next table: 1065
cur table: 1059
epoch: 1000
next table: 1043
cur table: 1051
epoch: 1000
next table: 1059
cur table: 1065
epoch: 1000
next table: 1050
cur table: 1043
epoch: 1000
next table: 1068
cur table: 1059
epoch: 1000
next table: 1046
cur table: 1050
epoch: 1000
next table: 1067
cur table: 1068
epoch: 1000
next table: 1043
cur table: 1046
epoch: 1000
next table: 1058
cur table: 1067
epoch: 1000
next table: 1049
cur table: 1043
epoch: 1000
next table: 1072
cur table: 1058
epoch: 1000
next table: 1045
cur table: 1049
epoch: 1000
next table: 1057
cur table: 1072
epoch: 1000
next table: 1047
cur table: 1045
epoch: 1000
next table: 1072
cur table: 1057
epoch: 1000
next table: 1047
cur table: 1047
epoch: 1000
next table: 1060
cur table: 1072
epoch: 1000
next table: 1043
cur table: 1047
epoch: 1000
next table: 1063
cur table: 1060
epoch: 1000
next table: 1057
cur table: 1043
epoch: 1000
next table: 1074
cur table: 1063
epoch: 1000
next table: 1040
cur table: 1057
epoch: 1000
next table: 1064
cur table: 1074
epoch: 1000
next table: 1051
cur table: 1040
epoch: 1000
next table: 1073
cur table: 1064
epoch: 1000
next table: 1047
cur table: 1051
epoch: 1000
next table: 1062
cur table: 1073
epoch: 1000
next table: 1049
cur table: 1047
epoch: 1000
next table: 1061
cur table: 1062
epoch: 1000
next table: 1043
cur table: 1049
epoch: 1000
next table: 1068
cur table: 1061
epoch: 1000
next table: 1048
cur table: 1043
epoch: 1000
next table: 1062
cur table: 1068
epoch: 1000
next table: 1046
cur table: 1048
epoch: 1000
next table: 1066
cur table: 1062
epoch: 1000
next table: 1052
cur table: 1046
epoch: 1000
next table: 1065
cur table: 1066
epoch: 1000
next table: 1044
cur table: 1052
epoch: 1000
next table: 1061
cur table: 1065
epoch: 1000
next table: 1046
cur table: 1044
epoch: 1000
next table: 1076
cur table: 1061
epoch: 1000
next table: 1052
cur table: 1046
epoch: 1000
next table: 1064
cur table: 1076
epoch: 1000
next table: 1054
cur table: 1052
epoch: 1000
next table: 1078
cur table: 1064
epoch: 1000
next table: 1055
cur table: 1054
epoch: 1000
next table: 1062
cur table: 1078
epoch: 1000
next table: 1050
cur table: 1055
epoch: 1000
next table: 1066
cur table: 1062
epoch: 1000
next table: 1044
cur table: 1050
epoch: 1000
next table: 1064
cur table: 1066
epoch: 1000
next table: 1052
cur table: 1044
epoch: 1000
next table: 1062
cur table: 1064
epoch: 1000
next table: 1044
cur table: 1052
epoch: 1000
next table: 1065
cur table: 1062
epoch: 1000
next table: 1052
cur table: 1044
epoch: 1000
next table: 1064
cur table: 1065
epoch: 1000
next table: 1045
cur table: 1052
epoch: 1000
next table: 1070
cur table: 1064
epoch: 1000
next table: 1048
cur table: 1045
epoch: 1000
next table: 1062
cur table: 1070
epoch: 1000
next table: 1046
cur table: 1048
epoch: 1000
next table: 1062
cur table: 1062
epoch: 1000
next table: 1045
cur table: 1046
epoch: 1000
next table: 1065
cur table: 1062
epoch: 1000
next table: 1045
cur table: 1045
epoch: 1000
next table: 1058
cur table: 1065
epoch: 1000
next table: 1050
cur table: 1045
epoch: 1000
next table: 1067
cur table: 1058
epoch: 1000
next table: 1045
cur table: 1050
epoch: 1000
next table: 1065
cur table: 1067
epoch: 1000
next table: 1056
cur table: 1045
epoch: 1000
next table: 1074
cur table: 1065
epoch: 1000
next table: 1047
cur table: 1056
epoch: 1000
next table: 1069
cur table: 1074
epoch: 1000
next table: 1054
cur table: 1047
epoch: 1000
next table: 1063
cur table: 1069
epoch: 1000
next table: 1043
cur table: 1054
epoch: 1000
next table: 1064
cur table: 1063
epoch: 1000
next table: 1051
cur table: 1043
epoch: 1000
next table: 1064
cur table: 1064
epoch: 1000
next table: 1042
cur table: 1051
epoch: 1000
next table: 1062
cur table: 1064
epoch: 1000
next table: 1052
cur table: 1042
epoch: 1000
next table: 1068
cur table: 1062
epoch: 1000
next table: 1048
cur table: 1052
epoch: 1000
next table: 1058
cur table: 1068
epoch: 1000
next table: 1042
cur table: 1048
epoch: 1000
next table: 1069
cur table: 1058
epoch: 1000
next table: 1055
cur table: 1042
epoch: 1000
next table: 1069
cur table: 1069
epoch: 1000
next table: 1044
cur table: 1055
epoch: 1000
next table: 1066
cur table: 1069
epoch: 1000
next table: 1054
cur table: 1044
epoch: 1000
next table: 1073
cur table: 1066
epoch: 1000
next table: 1055
cur table: 1054
epoch: 1000
next table: 1062
cur table: 1073
epoch: 1000
next table: 1044
cur table: 1055
epoch: 1000
next table: 1064
cur table: 1062
epoch: 1000
next table: 1053
cur table: 1044
epoch: 1000
next table: 1067
cur table: 1064
epoch: 1000
next table: 1044
cur table: 1053
epoch: 1000
next table: 1057
cur table: 1067
epoch: 1000
next table: 1050
cur table: 1044
epoch: 1000
next table: 1069
cur table: 1057
epoch: 1000
next table: 1045
cur table: 1050
epoch: 1000
next table: 1063
cur table: 1069
epoch: 1000
next table: 1049
cur table: 1045
epoch: 1000
next table: 1064
cur table: 1063
epoch: 1000
next table: 1049
cur table: 1049
epoch: 1000
next table: 1069
cur table: 1064
epoch: 1000
next table: 1046
cur table: 1049
epoch: 1000
next table: 1057
cur table: 1069
epoch: 1000
next table: 1048
cur table: 1046
epoch: 1000
next table: 1068
cur table: 1057
epoch: 1000
next table: 1047
cur table: 1048
epoch: 1000
next table: 1062
cur table: 1068
epoch: 1000
next table: 1045
cur table: 1047
epoch: 1000
next table: 1062
cur table: 1062
epoch: 1000
next table: 1051
cur table: 1045
epoch: 1000
next table: 1071
cur table: 1062
epoch: 1000
next table: 1043
cur table: 1051
epoch: 1000
next table: 1061
cur table: 1071
epoch: 1000
next table: 1045
cur table: 1043
epoch: 1000
next table: 1070
cur table: 1061
epoch: 1000
next table: 1049
cur table: 1045
epoch: 1000
next table: 1061
cur table: 1070
epoch: 1000
next table: 1048
cur table: 1049
epoch: 1000
next table: 1065
cur table: 1061
epoch: 1000
next table: 1044
cur table: 1048
epoch: 1000
next table: 1069
cur table: 1065
epoch: 1000
next table: 1051
cur table: 1044
epoch: 1000
next table: 1057
cur table: 1069
epoch: 1000
next table: 1041
cur table: 1051
epoch: 1000
next table: 1069
cur table: 1057
epoch: 1000
next table: 1053
cur table: 1041
epoch: 1000
next table: 1059
cur table: 1069
epoch: 1000
next table: 1040
cur table: 1053
epoch: 1000
next table: 1062
cur table: 1059
epoch: 1000
next table: 1047
cur table: 1040
epoch: 1000
next table: 1074
cur table: 1062
epoch: 1000
next table: 1053
cur table: 1047
epoch: 1000
next table: 1061
cur table: 1074
epoch: 1000
next table: 1049
cur table: 1053
epoch: 1000
next table: 1076
cur table: 1061
epoch: 1000
next table: 1053
cur table: 1049
epoch: 1000
next table: 1066
cur table: 1076
epoch: 1000
next table: 1058
cur table: 1053
epoch: 1000
next table: 1070
cur table: 1066
epoch: 1000
next table: 1048
cur table: 1058
epoch: 1000
next table: 1069
cur table: 1070
epoch: 1000
next table: 1048
cur table: 1048
epoch: 1000
next table: 1058
cur table: 1069
epoch: 1000
next table: 1043
cur table: 1048
epoch: 1000
next table: 1065
cur table: 1058
epoch: 1000
next table: 1051
cur table: 1043
epoch: 1000
next table: 1062
cur table: 1065
epoch: 1000
next table: 1044
cur table: 1051
epoch: 1000
next table: 1064
cur table: 1062
epoch: 1000
next table: 1055
cur table: 1044
epoch: 1000
next table: 1066
cur table: 1064
epoch: 1000
next table: 1045
cur table: 1055
epoch: 1000
next table: 1062
cur table: 1066
epoch: 1000
next table: 1047
cur table: 1045
epoch: 1000
next table: 1066
cur table: 1062
epoch: 1000
next table: 1051
cur table: 1047
epoch: 1000
next table: 1065
cur table: 1066
epoch: 1000
next table: 1049
cur table: 1051
epoch: 1000
next table: 1064
cur table: 1065
epoch: 1000
next table: 1045
cur table: 1049
epoch: 1000
next table: 1067
cur table: 1064
epoch: 1000
next table: 1051
cur table: 1045
epoch: 1000
next table: 1068
cur table: 1067
epoch: 1000
next table: 1046
cur table: 1051
epoch: 1000
next table: 1074
cur table: 1068
epoch: 1000
next table: 1046
cur table: 1046
epoch: 1000
next table: 1066
cur table: 1074
epoch: 1000
next table: 1046
cur table: 1046
epoch: 1000
next table: 1061
cur table: 1066
epoch: 1000
next table: 1051
cur table: 1046
epoch: 1000
next table: 1065
cur table: 1061
epoch: 1000
next table: 1041
cur table: 1051
epoch: 1000
next table: 1059
cur table: 1065
epoch: 1000
next table: 1048
cur table: 1041
epoch: 1000
next table: 1068
cur table: 1059
epoch: 1000
next table: 1044
cur table: 1048
epoch: 1000
next table: 1066
cur table: 1068
epoch: 1000
next table: 1051
cur table: 1044
epoch: 1000
next table: 1059
cur table: 1066
epoch: 1000
next table: 1043
cur table: 1051
epoch: 1000
next table: 1066
cur table: 1059
epoch: 1000
next table: 1044
cur table: 1043
epoch: 1000
next table: 1067
cur table: 1066
epoch: 1000
next table: 1052
cur table: 1044
epoch: 1000
next table: 1071
cur table: 1067
epoch: 1000
next table: 1058
cur table: 1052
epoch: 1000
next table: 1074
cur table: 1071
epoch: 1000
next table: 1054
cur table: 1058
epoch: 1000
next table: 1069
cur table: 1074
epoch: 1000
next table: 1053
cur table: 1054
epoch: 1000
next table: 1069
cur table: 1069
epoch: 1000
next table: 1040
cur table: 1053
epoch: 1000
next table: 1054
cur table: 1069
epoch: 1000
next table: 1049
cur table: 1040
epoch: 1000
next table: 1066
cur table: 1054
epoch: 1000
next table: 1049
cur table: 1049
epoch: 1000
next table: 1066
cur table: 1066
epoch: 1000
next table: 1049
cur table: 1049
epoch: 1000
next table: 1068
cur table: 1066
epoch: 1000
next table: 1048
cur table: 1049
epoch: 1000
next table: 1066
cur table: 1068
epoch: 1000
next table: 1045
cur table: 1048
epoch: 1000
next table: 1060
cur table: 1066
epoch: 1000
next table: 1051
cur table: 1045
epoch: 1000
next table: 1073
cur table: 1060
epoch: 1000
next table: 1046
cur table: 1051
epoch: 1000
next table: 1065
cur table: 1073
epoch: 1000
next table: 1050
cur table: 1046
epoch: 1000
next table: 1067
cur table: 1065
epoch: 1000
next table: 1054
cur table: 1050
epoch: 1000
next table: 1074
cur table: 1067
epoch: 1000
next table: 1043
cur table: 1054
epoch: 1000
next table: 1064
cur table: 1074
epoch: 1000
next table: 1051
cur table: 1043
epoch: 1000
next table: 1069
cur table: 1064
epoch: 1000
next table: 1045
cur table: 1051
epoch: 1000
next table: 1060
cur table: 1069
epoch: 1000
next table: 1047
cur table: 1045
epoch: 1000
next table: 1068
cur table: 1060
epoch: 1000
next table: 1048
cur table: 1047
epoch: 1000
next table: 1061
cur table: 1068
epoch: 1000
next table: 1044
cur table: 1048
epoch: 1000
next table: 1061
cur table: 1061
epoch: 1000
next table: 1045
cur table: 1044
epoch: 1000
next table: 1072
cur table: 1061
epoch: 1000
next table: 1050
cur table: 1045
epoch: 1000
next table: 1057
cur table: 1072
epoch: 1000
next table: 1039
cur table: 1050
epoch: 1000
next table: 1070
cur table: 1057
epoch: 1000
next table: 1058
cur table: 1039
epoch: 1000
next table: 1063
cur table: 1070
epoch: 1000
next table: 1042
cur table: 1058
epoch: 1000
next table: 1066
cur table: 1063
epoch: 1000
next table: 1051
cur table: 1042
epoch: 1000
next table: 1071
cur table: 1066
epoch: 1000
next table: 1055
cur table: 1051
epoch: 1000
next table: 1064
cur table: 1071
epoch: 1000
next table: 1049
cur table: 1055
epoch: 1000
next table: 1068
cur table: 1064
epoch: 1000
next table: 1050
cur table: 1049
epoch: 1000
next table: 1068
cur table: 1068
epoch: 1000
next table: 1048
cur table: 1050
epoch: 1000
next table: 1061
cur table: 1068
epoch: 1000
next table: 1044
cur table: 1048
epoch: 1000
next table: 1066
cur table: 1061
epoch: 1000
next table: 1048
cur table: 1044
epoch: 1000
next table: 1060
cur table: 1066
epoch: 1000
next table: 1043
cur table: 1048
epoch: 1000
next table: 1064
cur table: 1060
epoch: 1000
next table: 1053
cur table: 1043
epoch: 1000
next table: 1070
cur table: 1064
epoch: 1000
next table: 1040
cur table: 1053
epoch: 1000
next table: 1056
cur table: 1070
epoch: 1000
next table: 1045
cur table: 1040
epoch: 1000
next table: 1065
cur table: 1056
epoch: 1000
next table: 1050
cur table: 1045
epoch: 1000
next table: 1068
cur table: 1065
epoch: 1000
next table: 1050
cur table: 1050
epoch: 1000
next table: 1068
cur table: 1068
epoch: 1000
next table: 1055
cur table: 1050
epoch: 1000
next table: 1075
cur table: 1068
epoch: 1000
next table: 1051
cur table: 1055
epoch: 1000
next table: 1066
cur table: 1075
epoch: 1000
next table: 1047
cur table: 1051
epoch: 1000
next table: 1070
cur table: 1066
epoch: 1000
next table: 1052
cur table: 1047
epoch: 1000
next table: 1062
cur table: 1070
epoch: 1000
next table: 1044
cur table: 1052
epoch: 1000
next table: 1059
cur table: 1062
epoch: 1000
next table: 1048
cur table: 1044
epoch: 1000
next table: 1073
cur table: 1059
epoch: 1000
next table: 1047
cur table: 1048
epoch: 1000
next table: 1062
cur table: 1073
epoch: 1000
next table: 1051
cur table: 1047
epoch: 1000
next table: 1066
cur table: 1062
epoch: 1000
next table: 1047
cur table: 1051
epoch: 1000
next table: 1068
cur table: 1066
epoch: 1000
next table: 1051
cur table: 1047
epoch: 1000
next table: 1061
cur table: 1068
epoch: 1000
next table: 1044
cur table: 1051
epoch: 1000
next table: 1074
cur table: 1061
epoch: 1000
next table: 1054
cur table: 1044
epoch: 1000
next table: 1062
cur table: 1074
epoch: 1000
next table: 1046
cur table: 1054
epoch: 1000
next table: 1065
cur table: 1062
epoch: 1000
next table: 1052
cur table: 1046
epoch: 1000
next table: 1074
cur table: 1065
epoch: 1000
next table: 1049
cur table: 1052
epoch: 1000
next table: 1063
cur table: 1074
epoch: 1000
next table: 1051
cur table: 1049
epoch: 1000
next table: 1067
cur table: 1063
epoch: 1000
next table: 1045
cur table: 1051
epoch: 1000
next table: 1063
cur table: 1067
epoch: 1000
next table: 1049
cur table: 1045
Heartbeat CPU 0 instructions: 10000002 cycles: 3308708 heartbeat IPC: 3.02233 cumulative IPC: 3.02233 (Simulation time: 0 hr 4 min 25 sec) 
epoch: 1000
next table: 1064
cur table: 1063
epoch: 1000
next table: 1046
cur table: 1049
epoch: 1000
next table: 1065
cur table: 1064
epoch: 1000
next table: 1052
cur table: 1046
epoch: 1000
next table: 1063
cur table: 1065
epoch: 1000
next table: 1045
cur table: 1052
epoch: 1000
next table: 1065
cur table: 1063
epoch: 1000
next table: 1050
cur table: 1045
epoch: 1000
next table: 1065
cur table: 1065
epoch: 1000
next table: 1043
cur table: 1050
epoch: 1000
next table: 1066
cur table: 1065
epoch: 1000
next table: 1045
cur table: 1043
epoch: 1000
next table: 1060
cur table: 1066
epoch: 1000
next table: 1050
cur table: 1045
epoch: 1000
next table: 1070
cur table: 1060
epoch: 1000
next table: 1053
cur table: 1050
epoch: 1000
next table: 1068
cur table: 1070
epoch: 1000
next table: 1040
cur table: 1053
epoch: 1000
next table: 1062
cur table: 1068
epoch: 1000
next table: 1052
cur table: 1040
epoch: 1000
next table: 1066
cur table: 1062
epoch: 1000
next table: 1047
cur table: 1052
epoch: 1000
next table: 1061
cur table: 1066
epoch: 1000
next table: 1046
cur table: 1047
epoch: 1000
next table: 1064
cur table: 1061
epoch: 1000
next table: 1046
cur table: 1046
epoch: 1000
next table: 1068
cur table: 1064
epoch: 1000
next table: 1047
cur table: 1046
epoch: 1000
next table: 1060
cur table: 1068
epoch: 1000
next table: 1042
cur table: 1047
epoch: 1000
next table: 1065
cur table: 1060
epoch: 1000
next table: 1050
cur table: 1042
epoch: 1000
next table: 1061
cur table: 1065
epoch: 1000
next table: 1043
cur table: 1050
epoch: 1000
next table: 1075
cur table: 1061
epoch: 1000
next table: 1057
cur table: 1043
epoch: 1000
next table: 1068
cur table: 1075
epoch: 1000
next table: 1043
cur table: 1057
epoch: 1000
next table: 1065
cur table: 1068
epoch: 1000
next table: 1049
cur table: 1043
epoch: 1000
next table: 1075
cur table: 1065
epoch: 1000
next table: 1045
cur table: 1049
epoch: 1000
next table: 1064
cur table: 1075
epoch: 1000
next table: 1055
cur table: 1045
epoch: 1000
next table: 1071
cur table: 1064
epoch: 1000
next table: 1046
cur table: 1055
epoch: 1000
next table: 1070
cur table: 1071
epoch: 1000
next table: 1046
cur table: 1046
epoch: 1000
next table: 1059
cur table: 1070
epoch: 1000
next table: 1044
cur table: 1046
epoch: 1000
next table: 1067
cur table: 1059
epoch: 1000
next table: 1050
cur table: 1044
epoch: 1000
next table: 1064
cur table: 1067
epoch: 1000
next table: 1043
cur table: 1050
epoch: 1000
next table: 1059
cur table: 1064
epoch: 1000
next table: 1054
cur table: 1043
epoch: 1000
next table: 1071
cur table: 1059
epoch: 1000
next table: 1041
cur table: 1054
epoch: 1000
next table: 1057
cur table: 1071
epoch: 1000
next table: 1049
cur table: 1041
epoch: 1000
next table: 1065
cur table: 1057
epoch: 1000
next table: 1043
cur table: 1049
epoch: 1000
next table: 1061
cur table: 1065
epoch: 1000
next table: 1049
cur table: 1043
epoch: 1000
next table: 1062
cur table: 1061
epoch: 1000
next table: 1056
cur table: 1049
epoch: 1000
next table: 1075
cur table: 1062
epoch: 1000
next table: 1048
cur table: 1056
epoch: 1000
next table: 1065
cur table: 1075
epoch: 1000
next table: 1049
cur table: 1048
epoch: 1000
next table: 1069
cur table: 1065
epoch: 1000
next table: 1048
cur table: 1049
epoch: 1000
next table: 1066
cur table: 1069
epoch: 1000
next table: 1044
cur table: 1048
epoch: 1000
next table: 1062
cur table: 1066
epoch: 1000
next table: 1049
cur table: 1044
epoch: 1000
next table: 1070
cur table: 1062
epoch: 1000
next table: 1043
cur table: 1049
epoch: 1000
next table: 1063
cur table: 1070
epoch: 1000
next table: 1047
cur table: 1043
epoch: 1000
next table: 1063
cur table: 1063
epoch: 1000
next table: 1043
cur table: 1047
epoch: 1000
next table: 1063
cur table: 1063
epoch: 1000
next table: 1046
cur table: 1043
epoch: 1000
next table: 1058
cur table: 1063
epoch: 1000
next table: 1043
cur table: 1046
epoch: 1000
next table: 1065
cur table: 1058
epoch: 1000
next table: 1044
cur table: 1043
epoch: 1000
next table: 1060
cur table: 1065
epoch: 1000
next table: 1047
cur table: 1044
epoch: 1000
next table: 1067
cur table: 1060
epoch: 1000
next table: 1055
cur table: 1047
epoch: 1000
next table: 1073
cur table: 1067
epoch: 1000
next table: 1049
cur table: 1055
epoch: 1000
next table: 1059
cur table: 1073
epoch: 1000
next table: 1054
cur table: 1049
epoch: 1000
next table: 1079
cur table: 1059
epoch: 1000
next table: 1044
cur table: 1054
epoch: 1000
next table: 1061
cur table: 1079
epoch: 1000
next table: 1047
cur table: 1044
epoch: 1000
next table: 1064
cur table: 1061
epoch: 1000
next table: 1044
cur table: 1047
epoch: 1000
next table: 1060
cur table: 1064
epoch: 1000
next table: 1048
cur table: 1044
epoch: 1000
next table: 1062
cur table: 1060
epoch: 1000
next table: 1045
cur table: 1048
epoch: 1000
next table: 1071
cur table: 1062
epoch: 1000
next table: 1047
cur table: 1045
epoch: 1000
next table: 1060
cur table: 1071
epoch: 1000
next table: 1042
cur table: 1047
epoch: 1000
next table: 1063
cur table: 1060
epoch: 1000
next table: 1046
cur table: 1042
epoch: 1000
next table: 1061
cur table: 1063
epoch: 1000
next table: 1045
cur table: 1046
epoch: 1000
next table: 1063
cur table: 1061
epoch: 1000
next table: 1053
cur table: 1045
epoch: 1000
next table: 1075
cur table: 1063
epoch: 1000
next table: 1044
cur table: 1053
epoch: 1000
next table: 1065
cur table: 1075
epoch: 1000
next table: 1052
cur table: 1044
epoch: 1000
next table: 1063
cur table: 1065
epoch: 1000
next table: 1044
cur table: 1052
epoch: 1000
next table: 1062
cur table: 1063
epoch: 1000
next table: 1044
cur table: 1044
epoch: 1000
next table: 1065
cur table: 1062
epoch: 1000
next table: 1046
cur table: 1044
epoch: 1000
next table: 1067
cur table: 1065
epoch: 1000
next table: 1049
cur table: 1046
epoch: 1000
next table: 1062
cur table: 1067
epoch: 1000
next table: 1046
cur table: 1049
epoch: 1000
next table: 1069
cur table: 1062
epoch: 1000
next table: 1054
cur table: 1046
epoch: 1000
next table: 1061
cur table: 1069
epoch: 1000
next table: 1041
cur table: 1054
epoch: 1000
next table: 1057
cur table: 1061
epoch: 1000
next table: 1049
cur table: 1041
epoch: 1000
next table: 1064
cur table: 1057
epoch: 1000
next table: 1041
cur table: 1049
epoch: 1000
next table: 1058
cur table: 1064
epoch: 1000
next table: 1049
cur table: 1041
epoch: 1000
next table: 1070
cur table: 1058
epoch: 1000
next table: 1049
cur table: 1049
epoch: 1000
next table: 1061
cur table: 1070
epoch: 1000
next table: 1046
cur table: 1049
epoch: 1000
next table: 1064
cur table: 1061
epoch: 1000
next table: 1046
cur table: 1046
epoch: 1000
next table: 1068
cur table: 1064
epoch: 1000
next table: 1047
cur table: 1046
epoch: 1000
next table: 1059
cur table: 1068
epoch: 1000
next table: 1041
cur table: 1047
epoch: 1000
next table: 1063
cur table: 1059
epoch: 1000
next table: 1048
cur table: 1041
epoch: 1000
next table: 1062
cur table: 1063
epoch: 1000
next table: 1043
cur table: 1048
epoch: 1000
next table: 1058
cur table: 1062
epoch: 1000
next table: 1053
cur table: 1043
epoch: 1000
next table: 1074
cur table: 1058
epoch: 1000
next table: 1041
cur table: 1053
epoch: 1000
next table: 1059
cur table: 1074
epoch: 1000
next table: 1047
cur table: 1041
epoch: 1000
next table: 1063
cur table: 1059
epoch: 1000
next table: 1044
cur table: 1047
epoch: 1000
next table: 1067
cur table: 1063
epoch: 1000
next table: 1049
cur table: 1044
epoch: 1000
next table: 1061
cur table: 1067
epoch: 1000
next table: 1052
cur table: 1049
epoch: 1000
next table: 1076
cur table: 1061
epoch: 1000
next table: 1045
cur table: 1052
epoch: 1000
next table: 1063
cur table: 1076
epoch: 1000
next table: 1050
cur table: 1045
epoch: 1000
next table: 1071
cur table: 1063
epoch: 1000
next table: 1051
cur table: 1050
epoch: 1000
next table: 1068
cur table: 1071
epoch: 1000
next table: 1043
cur table: 1051
epoch: 1000
next table: 1056
cur table: 1068
epoch: 1000
next table: 1047
cur table: 1043
epoch: 1000
next table: 1069
cur table: 1056
epoch: 1000
next table: 1044
cur table: 1047
epoch: 1000
next table: 1062
cur table: 1069
epoch: 1000
next table: 1052
cur table: 1044
epoch: 1000
next table: 1064
cur table: 1062
epoch: 1000
next table: 1049
cur table: 1052
epoch: 1000
next table: 1066
cur table: 1064
epoch: 1000
next table: 1043
cur table: 1049
epoch: 1000
next table: 1059
cur table: 1066
epoch: 1000
next table: 1044
cur table: 1043
epoch: 1000
next table: 1072
cur table: 1059
epoch: 1000
next table: 1053
cur table: 1044
epoch: 1000
next table: 1067
cur table: 1072
epoch: 1000
next table: 1047
cur table: 1053
epoch: 1000
next table: 1057
cur table: 1067
epoch: 1000
next table: 1046
cur table: 1047
epoch: 1000
next table: 1068
cur table: 1057
epoch: 1000
next table: 1047
cur table: 1046
epoch: 1000
next table: 1061
cur table: 1068
epoch: 1000
next table: 1050
cur table: 1047
epoch: 1000
next table: 1071
cur table: 1061
epoch: 1000
next table: 1044
cur table: 1050
epoch: 1000
next table: 1058
cur table: 1071
epoch: 1000
next table: 1045
cur table: 1044
epoch: 1000
next table: 1062
cur table: 1058
epoch: 1000
next table: 1042
cur table: 1045
epoch: 1000
next table: 1061
cur table: 1062
epoch: 1000
next table: 1048
cur table: 1042
epoch: 1000
next table: 1062
cur table: 1061
epoch: 1000
next table: 1044
cur table: 1048
epoch: 1000
next table: 1071
cur table: 1062
epoch: 1000
next table: 1051
cur table: 1044
epoch: 1000
next table: 1069
cur table: 1071
epoch: 1000
next table: 1043
cur table: 1051
epoch: 1000
next table: 1061
cur table: 1069
epoch: 1000
next table: 1049
cur table: 1043
epoch: 1000
next table: 1061
cur table: 1061
epoch: 1000
next table: 1046
cur table: 1049
epoch: 1000
next table: 1062
cur table: 1061
epoch: 1000
next table: 1052
cur table: 1046
epoch: 1000
next table: 1072
cur table: 1062
epoch: 1000
next table: 1044
cur table: 1052
epoch: 1000
next table: 1065
cur table: 1072
epoch: 1000
next table: 1048
cur table: 1044
epoch: 1000
next table: 1069
cur table: 1065
epoch: 1000
next table: 1051
cur table: 1048
epoch: 1000
next table: 1065
cur table: 1069
epoch: 1000
next table: 1043
cur table: 1051
epoch: 1000
next table: 1061
cur table: 1065
epoch: 1000
next table: 1046
cur table: 1043
epoch: 1000
next table: 1066
cur table: 1061
epoch: 1000
next table: 1050
cur table: 1046
epoch: 1000
next table: 1061
cur table: 1066
epoch: 1000
next table: 1047
cur table: 1050
epoch: 1000
next table: 1066
cur table: 1061
epoch: 1000
next table: 1051
cur table: 1047
epoch: 1000
next table: 1062
cur table: 1066
epoch: 1000
next table: 1041
cur table: 1051
epoch: 1000
next table: 1064
cur table: 1062
epoch: 1000
next table: 1052
cur table: 1041
epoch: 1000
next table: 1064
cur table: 1064
epoch: 1000
next table: 1043
cur table: 1052
epoch: 1000
next table: 1071
cur table: 1064
epoch: 1000
next table: 1056
cur table: 1043
epoch: 1000
next table: 1067
cur table: 1071
epoch: 1000
next table: 1048
cur table: 1056
epoch: 1000
next table: 1062
cur table: 1067
epoch: 1000
next table: 1050
cur table: 1048
epoch: 1000
next table: 1065
cur table: 1062
epoch: 1000
next table: 1048
cur table: 1050
epoch: 1000
next table: 1074
cur table: 1065
epoch: 1000
next table: 1045
cur table: 1048
epoch: 1000
next table: 1055
cur table: 1074
epoch: 1000
next table: 1048
cur table: 1045
epoch: 1000
next table: 1068
cur table: 1055
epoch: 1000
next table: 1050
cur table: 1048
epoch: 1000
next table: 1065
cur table: 1068
epoch: 1000
next table: 1042
cur table: 1050
epoch: 1000
next table: 1057
cur table: 1065
epoch: 1000
next table: 1051
cur table: 1042
epoch: 1000
next table: 1071
cur table: 1057
epoch: 1000
next table: 1040
cur table: 1051
epoch: 1000
next table: 1058
cur table: 1071
epoch: 1000
next table: 1057
cur table: 1040
epoch: 1000
next table: 1071
cur table: 1058
epoch: 1000
next table: 1043
cur table: 1057
epoch: 1000
next table: 1063
cur table: 1071
epoch: 1000
next table: 1045
cur table: 1043
epoch: 1000
next table: 1055
cur table: 1063
epoch: 1000
next table: 1057
cur table: 1045
epoch: 1000
next table: 1080
cur table: 1055
epoch: 1000
next table: 1044
cur table: 1057
epoch: 1000
next table: 1067
cur table: 1080
epoch: 1000
next table: 1047
cur table: 1044
epoch: 1000
next table: 1066
cur table: 1067
epoch: 1000
next table: 1052
cur table: 1047
epoch: 1000
next table: 1065
cur table: 1066
epoch: 1000
next table: 1042
cur table: 1052
epoch: 1000
next table: 1054
cur table: 1065
epoch: 1000
next table: 1046
cur table: 1042
epoch: 1000
next table: 1073
cur table: 1054
epoch: 1000
next table: 1045
cur table: 1046
epoch: 1000
next table: 1060
cur table: 1073
epoch: 1000
next table: 1048
cur table: 1045
epoch: 1000
next table: 1064
cur table: 1060
epoch: 1000
next table: 1048
cur table: 1048
epoch: 1000
next table: 1066
cur table: 1064
epoch: 1000
next table: 1050
cur table: 1048
epoch: 1000
next table: 1058
cur table: 1066
epoch: 1000
next table: 1045
cur table: 1050
epoch: 1000
next table: 1076
cur table: 1058
epoch: 1000
next table: 1052
cur table: 1045
epoch: 1000
next table: 1064
cur table: 1076
epoch: 1000
next table: 1047
cur table: 1052
epoch: 1000
next table: 1070
cur table: 1064
epoch: 1000
next table: 1057
cur table: 1047
epoch: 1000
next table: 1068
cur table: 1070
epoch: 1000
next table: 1046
cur table: 1057
epoch: 1000
next table: 1062
cur table: 1068
epoch: 1000
next table: 1050
cur table: 1046
epoch: 1000
next table: 1070
cur table: 1062
epoch: 1000
next table: 1046
cur table: 1050
epoch: 1000
next table: 1062
cur table: 1070
epoch: 1000
next table: 1045
cur table: 1046
epoch: 1000
next table: 1060
cur table: 1062
epoch: 1000
next table: 1048
cur table: 1045
epoch: 1000
next table: 1068
cur table: 1060
epoch: 1000
next table: 1046
cur table: 1048
epoch: 1000
next table: 1061
cur table: 1068
epoch: 1000
next table: 1044
cur table: 1046
epoch: 1000
next table: 1068
cur table: 1061
epoch: 1000
next table: 1051
cur table: 1044
epoch: 1000
next table: 1064
cur table: 1068
epoch: 1000
next table: 1042
cur table: 1051
epoch: 1000
next table: 1059
cur table: 1064
epoch: 1000
next table: 1057
cur table: 1042
epoch: 1000
next table: 1077
cur table: 1059
epoch: 1000
next table: 1046
cur table: 1057
epoch: 1000
next table: 1069
cur table: 1077
epoch: 1000
next table: 1050
cur table: 1046
epoch: 1000
next table: 1068
cur table: 1069
epoch: 1000
next table: 1048
cur table: 1050
epoch: 1000
next table: 1066
cur table: 1068
epoch: 1000
next table: 1047
cur table: 1048
epoch: 1000
next table: 1071
cur table: 1066
epoch: 1000
next table: 1048
cur table: 1047
epoch: 1000
next table: 1069
cur table: 1071
epoch: 1000
next table: 1049
cur table: 1048
epoch: 1000
next table: 1059
cur table: 1069
epoch: 1000
next table: 1045
cur table: 1049
epoch: 1000
next table: 1067
cur table: 1059
epoch: 1000
next table: 1044
cur table: 1045
epoch: 1000
next table: 1061
cur table: 1067
epoch: 1000
next table: 1048
cur table: 1044
epoch: 1000
next table: 1066
cur table: 1061
epoch: 1000
next table: 1050
cur table: 1048
epoch: 1000
next table: 1061
cur table: 1066
epoch: 1000
next table: 1043
cur table: 1050
epoch: 1000
next table: 1061
cur table: 1061
epoch: 1000
next table: 1049
cur table: 1043
epoch: 1000
next table: 1065
cur table: 1061
epoch: 1000
next table: 1043
cur table: 1049
epoch: 1000
next table: 1062
cur table: 1065
epoch: 1000
next table: 1057
cur table: 1043
epoch: 1000
next table: 1071
cur table: 1062
epoch: 1000
next table: 1047
cur table: 1057
epoch: 1000
next table: 1062
cur table: 1071
epoch: 1000
next table: 1049
cur table: 1047
epoch: 1000
next table: 1062
cur table: 1062
epoch: 1000
next table: 1046
cur table: 1049
epoch: 1000
next table: 1067
cur table: 1062
epoch: 1000
next table: 1044
cur table: 1046
epoch: 1000
next table: 1057
cur table: 1067
epoch: 1000
next table: 1045
cur table: 1044
epoch: 1000
next table: 1062
cur table: 1057
epoch: 1000
next table: 1050
cur table: 1045
epoch: 1000
next table: 1073
cur table: 1062
epoch: 1000
next table: 1046
cur table: 1050
epoch: 1000
next table: 1057
cur table: 1073
epoch: 1000
next table: 1050
cur table: 1046
epoch: 1000
next table: 1072
cur table: 1057
epoch: 1000
next table: 1040
cur table: 1050
epoch: 1000
next table: 1047
cur table: 1072
epoch: 1000
next table: 1057
cur table: 1040
epoch: 1000
next table: 1072
cur table: 1047
epoch: 1000
next table: 1044
cur table: 1057
epoch: 1000
next table: 1057
cur table: 1072
epoch: 1000
next table: 1056
cur table: 1044
epoch: 1000
next table: 1067
cur table: 1057
epoch: 1000
next table: 1053
cur table: 1056
epoch: 1000
next table: 1080
cur table: 1067
epoch: 1000
next table: 1044
cur table: 1053
epoch: 1000
next table: 1059
cur table: 1080
epoch: 1000
next table: 1048
cur table: 1044
epoch: 1000
next table: 1066
cur table: 1059
epoch: 1000
next table: 1053
cur table: 1048
epoch: 1000
next table: 1070
cur table: 1066
epoch: 1000
next table: 1039
cur table: 1053
epoch: 1000
next table: 1054
cur table: 1070
epoch: 1000
next table: 1050
cur table: 1039
epoch: 1000
next table: 1064
cur table: 1054
epoch: 1000
next table: 1044
cur table: 1050
epoch: 1000
next table: 1065
cur table: 1064
epoch: 1000
next table: 1051
cur table: 1044
epoch: 1000
next table: 1065
cur table: 1065
Heartbeat CPU 0 instructions: 20000003 cycles: 6617473 heartbeat IPC: 3.02228 cumulative IPC: 3.0223 (Simulation time: 0 hr 8 min 49 sec) 
epoch: 1000
next table: 1048
cur table: 1051
epoch: 1000
next table: 1073
cur table: 1065
epoch: 1000
next table: 1042
cur table: 1048
epoch: 1000
next table: 1054
cur table: 1073
epoch: 1000
next table: 1049
cur table: 1042
epoch: 1000
next table: 1072
cur table: 1054
epoch: 1000
next table: 1050
cur table: 1049
epoch: 1000
next table: 1066
cur table: 1072
epoch: 1000
next table: 1052
cur table: 1050
epoch: 1000
next table: 1070
cur table: 1066
epoch: 1000
next table: 1053
cur table: 1052
epoch: 1000
next table: 1071
cur table: 1070
epoch: 1000
next table: 1058
cur table: 1071
epoch: 1000
next table: 1042
cur table: 1053
epoch: 1000
next table: 1073
cur table: 1058
epoch: 1000
next table: 1054
cur table: 1042
epoch: 1000
next table: 1065
cur table: 1073
epoch: 1000
next table: 1042
cur table: 1054
epoch: 1000
next table: 1067
cur table: 1065
epoch: 1000
next table: 1049
cur table: 1042
epoch: 1000
next table: 1067
cur table: 1067
epoch: 1000
next table: 1047
cur table: 1049
epoch: 1000
next table: 1060
cur table: 1067
epoch: 1000
next table: 1045
cur table: 1047
epoch: 1000
next table: 1068
cur table: 1060
epoch: 1000
next table: 1047
cur table: 1045
epoch: 1000
next table: 1059
cur table: 1068
epoch: 1000
next table: 1045
cur table: 1047
epoch: 1000
next table: 1060
cur table: 1059
epoch: 1000
next table: 1045
cur table: 1045
epoch: 1000
next table: 1062
cur table: 1060
epoch: 1000
next table: 1045
cur table: 1045
epoch: 1000
next table: 1063
cur table: 1062
epoch: 1000
next table: 1046
cur table: 1045
epoch: 1000
next table: 1077
cur table: 1063
epoch: 1000
next table: 1062
cur table: 1046
epoch: 1000
next table: 1057
cur table: 1077
epoch: 1000
next table: 1042
cur table: 1062
epoch: 1000
next table: 1072
cur table: 1057
epoch: 1000
next table: 1053
cur table: 1042
epoch: 1000
next table: 1068
cur table: 1072
epoch: 1000
next table: 1048
cur table: 1053
epoch: 1000
next table: 1063
cur table: 1068
epoch: 1000
next table: 1048
cur table: 1048
epoch: 1000
next table: 1063
cur table: 1063
epoch: 1000
next table: 1043
cur table: 1048
epoch: 1000
next table: 1062
cur table: 1063
epoch: 1000
next table: 1052
cur table: 1043
epoch: 1000
next table: 1068
cur table: 1062
epoch: 1000
next table: 1046
cur table: 1052
epoch: 1000
next table: 1067
cur table: 1068
epoch: 1000
next table: 1051
cur table: 1046
epoch: 1000
next table: 1063
cur table: 1067
epoch: 1000
next table: 1046
cur table: 1051
epoch: 1000
next table: 1067
cur table: 1063
epoch: 1000
next table: 1049
cur table: 1046
epoch: 1000
next table: 1072
cur table: 1067
epoch: 1000
next table: 1051
cur table: 1049
epoch: 1000
next table: 1068
cur table: 1072
epoch: 1000
next table: 1052
cur table: 1051
epoch: 1000
next table: 1072
cur table: 1068
epoch: 1000
next table: 1053
cur table: 1052
epoch: 1000
next table: 1068
cur table: 1072
epoch: 1000
next table: 1057
cur table: 1053
epoch: 1000
next table: 1067
cur table: 1068
epoch: 1000
next table: 1043
cur table: 1057
epoch: 1000
next table: 1064
cur table: 1067
epoch: 1000
next table: 1050
cur table: 1043
epoch: 1000
next table: 1061
cur table: 1064
epoch: 1000
next table: 1044
cur table: 1050
epoch: 1000
next table: 1069
cur table: 1061
epoch: 1000
next table: 1053
cur table: 1044
epoch: 1000
next table: 1062
cur table: 1069
epoch: 1000
next table: 1046
cur table: 1053
epoch: 1000
next table: 1067
cur table: 1062
epoch: 1000
next table: 1051
cur table: 1046
epoch: 1000
next table: 1062
cur table: 1067
epoch: 1000
next table: 1047
cur table: 1051
epoch: 1000
next table: 1060
cur table: 1062
epoch: 1000
next table: 1047
cur table: 1047
epoch: 1000
next table: 1066
cur table: 1060
epoch: 1000
next table: 1046
cur table: 1047
epoch: 1000
next table: 1067
cur table: 1066
epoch: 1000
next table: 1049
cur table: 1046
epoch: 1000
next table: 1071
cur table: 1067
epoch: 1000
next table: 1050
cur table: 1049
epoch: 1000
next table: 1069
cur table: 1071
epoch: 1000
next table: 1053
cur table: 1050
epoch: 1000
next table: 1065
cur table: 1069
epoch: 1000
next table: 1048
cur table: 1053
epoch: 1000
next table: 1071
cur table: 1065
epoch: 1000
next table: 1054
cur table: 1048
epoch: 1000
next table: 1061
cur table: 1071
epoch: 1000
next table: 1044
cur table: 1054
epoch: 1000
next table: 1068
cur table: 1061
epoch: 1000
next table: 1050
cur table: 1044
epoch: 1000
next table: 1064
cur table: 1068
epoch: 1000
next table: 1046
cur table: 1050
epoch: 1000
next table: 1063
cur table: 1064
epoch: 1000
next table: 1050
cur table: 1046
epoch: 1000
next table: 1073
cur table: 1063
epoch: 1000
next table: 1048
cur table: 1050
epoch: 1000
next table: 1057
cur table: 1073
epoch: 1000
next table: 1045
cur table: 1048
epoch: 1000
next table: 1077
cur table: 1057
epoch: 1000
next table: 1054
cur table: 1045
epoch: 1000
next table: 1062
cur table: 1077
epoch: 1000
next table: 1046
cur table: 1054
epoch: 1000
next table: 1069
cur table: 1062
epoch: 1000
next table: 1053
cur table: 1046
epoch: 1000
next table: 1075
cur table: 1069
epoch: 1000
next table: 1057
cur table: 1053
epoch: 1000
next table: 1062
cur table: 1075
epoch: 1000
next table: 1046
cur table: 1057
epoch: 1000
next table: 1069
cur table: 1062
epoch: 1000
next table: 1050
cur table: 1046
epoch: 1000
next table: 1059
cur table: 1069
epoch: 1000
next table: 1043
cur table: 1050
epoch: 1000
next table: 1064
cur table: 1059
epoch: 1000
next table: 1052
cur table: 1043
epoch: 1000
next table: 1066
cur table: 1064
epoch: 1000
next table: 1046
cur table: 1052
epoch: 1000
next table: 1065
cur table: 1066
epoch: 1000
next table: 1049
cur table: 1046
epoch: 1000
next table: 1070
cur table: 1065
epoch: 1000
next table: 1050
cur table: 1049
epoch: 1000
next table: 1058
cur table: 1070
epoch: 1000
next table: 1045
cur table: 1050
epoch: 1000
next table: 1071
cur table: 1058
epoch: 1000
next table: 1051
cur table: 1045
epoch: 1000
next table: 1061
cur table: 1071
epoch: 1000
next table: 1047
cur table: 1051
epoch: 1000
next table: 1064
cur table: 1061
epoch: 1000
next table: 1046
cur table: 1047
epoch: 1000
next table: 1075
cur table: 1064
epoch: 1000
next table: 1058
cur table: 1046
epoch: 1000
next table: 1059
cur table: 1075
epoch: 1000
next table: 1041
cur table: 1058
epoch: 1000
next table: 1074
cur table: 1059
epoch: 1000
next table: 1051
cur table: 1041
epoch: 1000
next table: 1069
cur table: 1074
epoch: 1000
next table: 1047
cur table: 1051
epoch: 1000
next table: 1061
cur table: 1069
epoch: 1000
next table: 1049
cur table: 1047
epoch: 1000
next table: 1065
cur table: 1061
epoch: 1000
next table: 1042
cur table: 1049
epoch: 1000
next table: 1061
cur table: 1065
epoch: 1000
next table: 1049
cur table: 1042
epoch: 1000
next table: 1062
cur table: 1061
epoch: 1000
next table: 1044
cur table: 1049
epoch: 1000
next table: 1068
cur table: 1062
epoch: 1000
next table: 1053
cur table: 1044
epoch: 1000
next table: 1056
cur table: 1068
epoch: 1000
next table: 1040
cur table: 1053
epoch: 1000
next table: 1065
cur table: 1056
epoch: 1000
next table: 1048
cur table: 1040
epoch: 1000
next table: 1065
cur table: 1065
epoch: 1000
next table: 1048
cur table: 1048
epoch: 1000
next table: 1067
cur table: 1065
epoch: 1000
next table: 1059
cur table: 1048
epoch: 1000
next table: 1076
cur table: 1067
epoch: 1000
next table: 1056
cur table: 1059
epoch: 1000
next table: 1068
cur table: 1076
epoch: 1000
next table: 1055
cur table: 1056
epoch: 1000
next table: 1072
cur table: 1068
epoch: 1000
next table: 1049
cur table: 1055
epoch: 1000
next table: 1060
cur table: 1072
epoch: 1000
next table: 1047
cur table: 1049
epoch: 1000
next table: 1066
cur table: 1060
epoch: 1000
next table: 1043
cur table: 1047
epoch: 1000
next table: 1069
cur table: 1066
epoch: 1000
next table: 1051
cur table: 1043
epoch: 1000
next table: 1063
cur table: 1069
epoch: 1000
next table: 1044
cur table: 1051
epoch: 1000
next table: 1070
cur table: 1063
epoch: 1000
next table: 1049
cur table: 1044
epoch: 1000
next table: 1064
cur table: 1070
epoch: 1000
next table: 1048
cur table: 1049
epoch: 1000
next table: 1060
cur table: 1064
epoch: 1000
next table: 1045
cur table: 1048
epoch: 1000
next table: 1074
cur table: 1060
epoch: 1000
next table: 1049
cur table: 1045
epoch: 1000
next table: 1059
cur table: 1074
epoch: 1000
next table: 1050
cur table: 1049
epoch: 1000
next table: 1069
cur table: 1059
epoch: 1000
next table: 1048
cur table: 1050
epoch: 1000
next table: 1072
cur table: 1069
epoch: 1000
next table: 1050
cur table: 1048
epoch: 1000
next table: 1063
cur table: 1072
epoch: 1000
next table: 1047
cur table: 1050
epoch: 1000
next table: 1068
cur table: 1063
epoch: 1000
next table: 1051
cur table: 1047
epoch: 1000
next table: 1059
cur table: 1068
epoch: 1000
next table: 1045
cur table: 1051
epoch: 1000
next table: 1065
cur table: 1059
epoch: 1000
next table: 1050
cur table: 1045
epoch: 1000
next table: 1061
cur table: 1065
epoch: 1000
next table: 1045
cur table: 1050
epoch: 1000
next table: 1063
cur table: 1061
epoch: 1000
next table: 1050
cur table: 1045
epoch: 1000
next table: 1069
cur table: 1063
epoch: 1000
next table: 1046
cur table: 1050
epoch: 1000
next table: 1064
cur table: 1069
epoch: 1000
next table: 1049
cur table: 1046
epoch: 1000
next table: 1061
cur table: 1064
epoch: 1000
next table: 1042
cur table: 1049
epoch: 1000
next table: 1060
cur table: 1061
epoch: 1000
next table: 1046
cur table: 1042
epoch: 1000
next table: 1070
cur table: 1060
epoch: 1000
next table: 1051
cur table: 1046
epoch: 1000
next table: 1071
cur table: 1070
epoch: 1000
next table: 1055
cur table: 1051
epoch: 1000
next table: 1066
cur table: 1071
epoch: 1000
next table: 1049
cur table: 1055
epoch: 1000
next table: 1068
cur table: 1066
epoch: 1000
next table: 1052
cur table: 1049
epoch: 1000
next table: 1061
cur table: 1068
epoch: 1000
next table: 1044
cur table: 1052
epoch: 1000
next table: 1063
cur table: 1061
epoch: 1000
next table: 1047
cur table: 1044
epoch: 1000
next table: 1066
cur table: 1063
epoch: 1000
next table: 1044
cur table: 1047
epoch: 1000
next table: 1063
cur table: 1066
epoch: 1000
next table: 1053
cur table: 1044
epoch: 1000
next table: 1068
cur table: 1063
epoch: 1000
next table: 1046
cur table: 1053
epoch: 1000
next table: 1062
cur table: 1068
epoch: 1000
next table: 1044
cur table: 1046
epoch: 1000
next table: 1068
cur table: 1062
epoch: 1000
next table: 1051
cur table: 1044
epoch: 1000
next table: 1064
cur table: 1068
epoch: 1000
next table: 1046
cur table: 1051
epoch: 1000
next table: 1058
cur table: 1064
epoch: 1000
next table: 1041
cur table: 1046
epoch: 1000
next table: 1073
cur table: 1058
epoch: 1000
next table: 1053
cur table: 1041
epoch: 1000
next table: 1058
cur table: 1073
epoch: 1000
next table: 1040
cur table: 1053
epoch: 1000
next table: 1067
cur table: 1058
epoch: 1000
next table: 1053
cur table: 1040
epoch: 1000
next table: 1069
cur table: 1067
epoch: 1000
next table: 1047
cur table: 1053
epoch: 1000
next table: 1057
cur table: 1069
epoch: 1000
next table: 1046
cur table: 1047
epoch: 1000
next table: 1072
cur table: 1057
epoch: 1000
next table: 1048
cur table: 1046
epoch: 1000
next table: 1064
cur table: 1072
epoch: 1000
next table: 1051
cur table: 1048
epoch: 1000
next table: 1061
cur table: 1064
epoch: 1000
next table: 1045
cur table: 1051
epoch: 1000
next table: 1068
cur table: 1061
epoch: 1000
next table: 1052
cur table: 1045
epoch: 1000
next table: 1058
cur table: 1068
epoch: 1000
next table: 1040
cur table: 1052
epoch: 1000
next table: 1065
cur table: 1058
epoch: 1000
next table: 1046
cur table: 1040
epoch: 1000
next table: 1058
cur table: 1065
epoch: 1000
next table: 1041
cur table: 1046
epoch: 1000
next table: 1061
cur table: 1058
epoch: 1000
next table: 1049
cur table: 1041
epoch: 1000
next table: 1078
cur table: 1061
epoch: 1000
next table: 1052
cur table: 1049
epoch: 1000
next table: 1064
cur table: 1078
epoch: 1000
next table: 1051
cur table: 1052
epoch: 1000
next table: 1064
cur table: 1064
epoch: 1000
next table: 1042
cur table: 1051
epoch: 1000
next table: 1062
cur table: 1064
epoch: 1000
next table: 1049
cur table: 1042
epoch: 1000
next table: 1059
cur table: 1062
epoch: 1000
next table: 1045
cur table: 1049
epoch: 1000
next table: 1072
cur table: 1059
epoch: 1000
next table: 1047
cur table: 1045
epoch: 1000
next table: 1062
cur table: 1072
epoch: 1000
next table: 1045
cur table: 1047
epoch: 1000
next table: 1062
cur table: 1062
epoch: 1000
next table: 1046
cur table: 1045
epoch: 1000
next table: 1061
cur table: 1062
epoch: 1000
next table: 1040
cur table: 1046
epoch: 1000
next table: 1056
cur table: 1061
epoch: 1000
next table: 1046
cur table: 1040
epoch: 1000
next table: 1077
cur table: 1056
epoch: 1000
next table: 1052
cur table: 1046
epoch: 1000
next table: 1061
cur table: 1077
epoch: 1000
next table: 1050
cur table: 1052
epoch: 1000
next table: 1063
cur table: 1061
epoch: 1000
next table: 1045
cur table: 1050
epoch: 1000
next table: 1071
cur table: 1063
epoch: 1000
next table: 1055
cur table: 1045
epoch: 1000
next table: 1061
cur table: 1071
epoch: 1000
next table: 1046
cur table: 1055
epoch: 1000
next table: 1074
cur table: 1061
epoch: 1000
next table: 1053
cur table: 1046
epoch: 1000
next table: 1061
cur table: 1074
epoch: 1000
next table: 1043
cur table: 1053
epoch: 1000
next table: 1067
cur table: 1061
epoch: 1000
next table: 1050
cur table: 1043
epoch: 1000
next table: 1061
cur table: 1067
epoch: 1000
next table: 1042
cur table: 1050
epoch: 1000
next table: 1062
cur table: 1061
epoch: 1000
next table: 1049
cur table: 1042
epoch: 1000
next table: 1067
cur table: 1062
epoch: 1000
next table: 1045
cur table: 1049
epoch: 1000
next table: 1063
cur table: 1067
epoch: 1000
next table: 1051
cur table: 1045
epoch: 1000
next table: 1063
cur table: 1063
epoch: 1000
next table: 1043
cur table: 1051
epoch: 1000
next table: 1060
cur table: 1063
epoch: 1000
next table: 1044
cur table: 1043
epoch: 1000
next table: 1063
cur table: 1060
epoch: 1000
next table: 1046
cur table: 1044
epoch: 1000
next table: 1075
cur table: 1063
epoch: 1000
next table: 1054
cur table: 1046
epoch: 1000
next table: 1060
cur table: 1075
epoch: 1000
next table: 1044
cur table: 1054
epoch: 1000
next table: 1065
cur table: 1060
epoch: 1000
next table: 1048
cur table: 1044
epoch: 1000
next table: 1059
cur table: 1065
epoch: 1000
next table: 1043
cur table: 1048
epoch: 1000
next table: 1061
cur table: 1059
epoch: 1000
next table: 1049
cur table: 1043
epoch: 1000
next table: 1068
cur table: 1061
epoch: 1000
next table: 1048
cur table: 1049
epoch: 1000
next table: 1066
cur table: 1068
epoch: 1000
next table: 1050
cur table: 1048
epoch: 1000
next table: 1064
cur table: 1066
epoch: 1000
next table: 1046
cur table: 1050
epoch: 1000
next table: 1059
cur table: 1064
epoch: 1000
next table: 1045
cur table: 1046
epoch: 1000
next table: 1059
cur table: 1059
epoch: 1000
next table: 1041
cur table: 1045
epoch: 1000
next table: 1064
cur table: 1059
epoch: 1000
next table: 1046
cur table: 1041
epoch: 1000
next table: 1060
cur table: 1064
epoch: 1000
next table: 1044
cur table: 1046
epoch: 1000
next table: 1067
cur table: 1060
epoch: 1000
next table: 1051
cur table: 1044
epoch: 1000
next table: 1063
cur table: 1067
epoch: 1000
next table: 1041
cur table: 1051
epoch: 1000
next table: 1064
cur table: 1063
epoch: 1000
next table: 1047
cur table: 1041
epoch: 1000
next table: 1069
cur table: 1064
epoch: 1000
next table: 1046
cur table: 1047
epoch: 1000
next table: 1058
cur table: 1069
epoch: 1000
next table: 1047
cur table: 1046
epoch: 1000
next table: 1070
cur table: 1058
epoch: 1000
next table: 1047
cur table: 1047
epoch: 1000
next table: 1065
cur table: 1070
epoch: 1000
next table: 1045
cur table: 1047
epoch: 1000
next table: 1058
cur table: 1065
epoch: 1000
next table: 1042
cur table: 1045
epoch: 1000
next table: 1071
cur table: 1058
epoch: 1000
next table: 1051
cur table: 1042
epoch: 1000
next table: 1056
cur table: 1071
epoch: 1000
next table: 1040
cur table: 1051
epoch: 1000
next table: 1069
cur table: 1056
epoch: 1000
next table: 1050
cur table: 1040
epoch: 1000
next table: 1065
cur table: 1069
epoch: 1000
next table: 1042
cur table: 1050
epoch: 1000
next table: 1064
cur table: 1065
epoch: 1000
next table: 1053
cur table: 1042
epoch: 1000
next table: 1076
cur table: 1064
epoch: 1000
next table: 1050
cur table: 1053
epoch: 1000
next table: 1065
cur table: 1076
epoch: 1000
next table: 1050
cur table: 1050
epoch: 1000
next table: 1071
cur table: 1065
epoch: 1000
next table: 1047
cur table: 1050
epoch: 1000
next table: 1063
cur table: 1071
epoch: 1000
next table: 1048
cur table: 1047
epoch: 1000
next table: 1055
cur table: 1063
epoch: 1000
next table: 1041
cur table: 1048
epoch: 1000
next table: 1071
cur table: 1055
epoch: 1000
next table: 1047
cur table: 1041
epoch: 1000
next table: 1058
cur table: 1071
epoch: 1000
next table: 1044
cur table: 1047
epoch: 1000
next table: 1065
cur table: 1058
epoch: 1000
next table: 1051
cur table: 1044
epoch: 1000
next table: 1061
cur table: 1065
epoch: 1000
next table: 1042
cur table: 1051
epoch: 1000
next table: 1057
cur table: 1061
epoch: 1000
next table: 1045
cur table: 1042
epoch: 1000
next table: 1078
cur table: 1057
Heartbeat CPU 0 instructions: 30000001 cycles: 9927647 heartbeat IPC: 3.02099 cumulative IPC: 3.02186 (Simulation time: 0 hr 13 min 6 sec) 
epoch: 1000
next table: 1050
cur table: 1045
epoch: 1000
next table: 1060
cur table: 1078
epoch: 1000
next table: 1050
cur table: 1050
epoch: 1000
next table: 1068
cur table: 1060
epoch: 1000
next table: 1049
cur table: 1050
epoch: 1000
next table: 1064
cur table: 1068
epoch: 1000
next table: 1046
cur table: 1049
epoch: 1000
next table: 1061
cur table: 1064
epoch: 1000
next table: 1047
cur table: 1046
epoch: 1000
next table: 1071
cur table: 1061
epoch: 1000
next table: 1048
cur table: 1047
epoch: 1000
next table: 1066
cur table: 1071
epoch: 1000
next table: 1044
cur table: 1048
epoch: 1000
next table: 1061
cur table: 1066
epoch: 1000
next table: 1048
cur table: 1044
epoch: 1000
next table: 1065
cur table: 1061
epoch: 1000
next table: 1044
cur table: 1048
epoch: 1000
next table: 1061
cur table: 1065
epoch: 1000
next table: 1051
cur table: 1044
epoch: 1000
next table: 1062
cur table: 1061
epoch: 1000
next table: 1043
cur table: 1051
epoch: 1000
next table: 1065
cur table: 1062
epoch: 1000
next table: 1050
cur table: 1043
epoch: 1000
next table: 1060
cur table: 1065
epoch: 1000
next table: 1045
cur table: 1050
epoch: 1000
next table: 1066
cur table: 1060
epoch: 1000
next table: 1049
cur table: 1045
epoch: 1000
next table: 1061
cur table: 1066
epoch: 1000
next table: 1045
cur table: 1049
epoch: 1000
next table: 1071
cur table: 1061
epoch: 1000
next table: 1051
cur table: 1045
epoch: 1000
next table: 1068
cur table: 1071
epoch: 1000
next table: 1052
cur table: 1051
epoch: 1000
next table: 1066
cur table: 1068
epoch: 1000
next table: 1053
cur table: 1052
epoch: 1000
next table: 1064
cur table: 1066
epoch: 1000
next table: 1041
cur table: 1053
epoch: 1000
next table: 1058
cur table: 1064
epoch: 1000
next table: 1047
cur table: 1041
epoch: 1000
next table: 1067
cur table: 1058
epoch: 1000
next table: 1044
cur table: 1047
epoch: 1000
next table: 1061
cur table: 1067
epoch: 1000
next table: 1051
cur table: 1044
epoch: 1000
next table: 1070
cur table: 1061
epoch: 1000
next table: 1047
cur table: 1051
epoch: 1000
next table: 1062
cur table: 1070
epoch: 1000
next table: 1044
cur table: 1047
epoch: 1000
next table: 1061
cur table: 1062
epoch: 1000
next table: 1041
cur table: 1044
epoch: 1000
next table: 1066
cur table: 1061
epoch: 1000
next table: 1047
cur table: 1041
epoch: 1000
next table: 1070
cur table: 1066
epoch: 1000
next table: 1051
cur table: 1047
epoch: 1000
next table: 1069
cur table: 1070
epoch: 1000
next table: 1051
cur table: 1051
epoch: 1000
next table: 1063
cur table: 1069
epoch: 1000
next table: 1044
cur table: 1051
epoch: 1000
next table: 1067
cur table: 1063
epoch: 1000
next table: 1050
cur table: 1044
epoch: 1000
next table: 1069
cur table: 1067
epoch: 1000
next table: 1048
cur table: 1050
epoch: 1000
next table: 1057
cur table: 1069
epoch: 1000
next table: 1043
cur table: 1048
epoch: 1000
next table: 1067
cur table: 1057
epoch: 1000
next table: 1046
cur table: 1043
epoch: 1000
next table: 1068
cur table: 1067
epoch: 1000
next table: 1050
cur table: 1046
epoch: 1000
next table: 1063
cur table: 1068
epoch: 1000
next table: 1046
cur table: 1050
epoch: 1000
next table: 1072
cur table: 1063
epoch: 1000
next table: 1052
cur table: 1046
epoch: 1000
next table: 1057
cur table: 1072
epoch: 1000
next table: 1039
cur table: 1052
epoch: 1000
next table: 1072
cur table: 1057
epoch: 1000
next table: 1056
cur table: 1039
epoch: 1000
next table: 1061
cur table: 1072
epoch: 1000
next table: 1044
cur table: 1056
epoch: 1000
next table: 1057
cur table: 1061
epoch: 1000
next table: 1044
cur table: 1044
epoch: 1000
next table: 1077
cur table: 1057
epoch: 1000
next table: 1054
cur table: 1044
epoch: 1000
next table: 1064
cur table: 1077
epoch: 1000
next table: 1049
cur table: 1054
epoch: 1000
next table: 1071
cur table: 1064
epoch: 1000
next table: 1052
cur table: 1049
epoch: 1000
next table: 1064
cur table: 1071
epoch: 1000
next table: 1046
cur table: 1052
epoch: 1000
next table: 1058
cur table: 1064
epoch: 1000
next table: 1042
cur table: 1046
epoch: 1000
next table: 1070
cur table: 1058
epoch: 1000
next table: 1049
cur table: 1042
epoch: 1000
next table: 1060
cur table: 1070
epoch: 1000
next table: 1043
cur table: 1049
epoch: 1000
next table: 1066
cur table: 1060
epoch: 1000
next table: 1057
cur table: 1043
epoch: 1000
next table: 1069
cur table: 1066
epoch: 1000
next table: 1042
cur table: 1057
epoch: 1000
next table: 1057
cur table: 1069
epoch: 1000
next table: 1048
cur table: 1042
epoch: 1000
next table: 1077
cur table: 1057
epoch: 1000
next table: 1053
cur table: 1048
epoch: 1000
next table: 1064
cur table: 1077
epoch: 1000
next table: 1048
cur table: 1053
epoch: 1000
next table: 1068
cur table: 1064
epoch: 1000
next table: 1053
cur table: 1048
epoch: 1000
next table: 1063
cur table: 1068
epoch: 1000
next table: 1045
cur table: 1053
epoch: 1000
next table: 1064
cur table: 1063
epoch: 1000
next table: 1049
cur table: 1045
epoch: 1000
next table: 1070
cur table: 1064
epoch: 1000
next table: 1051
cur table: 1049
epoch: 1000
next table: 1064
cur table: 1070
epoch: 1000
next table: 1043
cur table: 1051
epoch: 1000
next table: 1060
cur table: 1064
epoch: 1000
next table: 1046
cur table: 1043
epoch: 1000
next table: 1066
cur table: 1060
epoch: 1000
next table: 1046
cur table: 1046
epoch: 1000
next table: 1059
cur table: 1066
epoch: 1000
next table: 1047
cur table: 1046
epoch: 1000
next table: 1068
cur table: 1059
epoch: 1000
next table: 1044
cur table: 1047
epoch: 1000
next table: 1067
cur table: 1068
epoch: 1000
next table: 1052
cur table: 1044
epoch: 1000
next table: 1059
cur table: 1067
epoch: 1000
next table: 1043
cur table: 1052
epoch: 1000
next table: 1072
cur table: 1059
epoch: 1000
next table: 1052
cur table: 1043
epoch: 1000
next table: 1063
cur table: 1072
epoch: 1000
next table: 1049
cur table: 1052
epoch: 1000
next table: 1069
cur table: 1063
epoch: 1000
next table: 1046
cur table: 1049
epoch: 1000
next table: 1072
cur table: 1069
epoch: 1000
next table: 1055
cur table: 1046
epoch: 1000
next table: 1063
cur table: 1072
epoch: 1000
next table: 1048
cur table: 1055
epoch: 1000
next table: 1069
cur table: 1063
epoch: 1000
next table: 1046
cur table: 1048
epoch: 1000
next table: 1063
cur table: 1069
epoch: 1000
next table: 1048
cur table: 1046
epoch: 1000
next table: 1067
cur table: 1063
epoch: 1000
next table: 1044
cur table: 1048
epoch: 1000
next table: 1064
cur table: 1067
epoch: 1000
next table: 1051
cur table: 1044
epoch: 1000
next table: 1067
cur table: 1064
epoch: 1000
next table: 1045
cur table: 1051
epoch: 1000
next table: 1068
cur table: 1067
epoch: 1000
next table: 1050
cur table: 1045
epoch: 1000
next table: 1057
cur table: 1068
epoch: 1000
next table: 1043
cur table: 1050
epoch: 1000
next table: 1063
cur table: 1057
epoch: 1000
next table: 1047
cur table: 1043
epoch: 1000
next table: 1066
cur table: 1063
epoch: 1000
next table: 1051
cur table: 1047
epoch: 1000
next table: 1064
cur table: 1066
epoch: 1000
next table: 1050
cur table: 1051
epoch: 1000
next table: 1065
cur table: 1064
epoch: 1000
next table: 1045
cur table: 1050
epoch: 1000
next table: 1061
cur table: 1065
epoch: 1000
next table: 1051
cur table: 1045
epoch: 1000
next table: 1068
cur table: 1061
epoch: 1000
next table: 1045
cur table: 1051
epoch: 1000
next table: 1061
cur table: 1068
epoch: 1000
next table: 1045
cur table: 1045
epoch: 1000
next table: 1069
cur table: 1061
epoch: 1000
next table: 1048
cur table: 1045
epoch: 1000
next table: 1065
cur table: 1069
epoch: 1000
next table: 1046
cur table: 1048
epoch: 1000
next table: 1063
cur table: 1065
epoch: 1000
next table: 1048
cur table: 1046
epoch: 1000
next table: 1071
cur table: 1063
epoch: 1000
next table: 1051
cur table: 1048
epoch: 1000
next table: 1058
cur table: 1071
epoch: 1000
next table: 1040
cur table: 1051
epoch: 1000
next table: 1068
cur table: 1058
epoch: 1000
next table: 1054
cur table: 1040
epoch: 1000
next table: 1064
cur table: 1068
epoch: 1000
next table: 1040
cur table: 1054
epoch: 1000
next table: 1067
cur table: 1064
epoch: 1000
next table: 1057
cur table: 1040
epoch: 1000
next table: 1076
cur table: 1067
epoch: 1000
next table: 1051
cur table: 1057
epoch: 1000
next table: 1049
cur table: 1076
epoch: 1000
next table: 1048
cur table: 1051
epoch: 1000
next table: 1072
cur table: 1049
epoch: 1000
next table: 1047
cur table: 1048
epoch: 1000
next table: 1064
cur table: 1072
epoch: 1000
next table: 1047
cur table: 1047
epoch: 1000
next table: 1065
cur table: 1064
epoch: 1000
next table: 1047
cur table: 1047
epoch: 1000
next table: 1070
cur table: 1065
epoch: 1000
next table: 1050
cur table: 1047
epoch: 1000
next table: 1055
cur table: 1070
epoch: 1000
next table: 1041
cur table: 1050
epoch: 1000
next table: 1053
cur table: 1055
epoch: 1000
next table: 1053
cur table: 1041
epoch: 1000
next table: 1072
cur table: 1053
epoch: 1000
next table: 1042
cur table: 1053
epoch: 1000
next table: 1066
cur table: 1072
epoch: 1000
next table: 1056
cur table: 1042
epoch: 1000
next table: 1067
cur table: 1066
epoch: 1000
next table: 1045
cur table: 1056
epoch: 1000
next table: 1060
cur table: 1067
epoch: 1000
next table: 1047
cur table: 1045
epoch: 1000
next table: 1061
cur table: 1060
epoch: 1000
next table: 1051
cur table: 1047
epoch: 1000
next table: 1070
cur table: 1061
epoch: 1000
next table: 1047
cur table: 1051
epoch: 1000
next table: 1066
cur table: 1070
epoch: 1000
next table: 1049
cur table: 1047
epoch: 1000
next table: 1073
cur table: 1066
epoch: 1000
next table: 1053
cur table: 1049
epoch: 1000
next table: 1062
cur table: 1073
epoch: 1000
next table: 1042
cur table: 1053
epoch: 1000
next table: 1060
cur table: 1062
epoch: 1000
next table: 1046
cur table: 1042
epoch: 1000
next table: 1067
cur table: 1060
epoch: 1000
next table: 1044
cur table: 1046
epoch: 1000
next table: 1065
cur table: 1067
epoch: 1000
next table: 1051
cur table: 1044
epoch: 1000
next table: 1068
cur table: 1065
epoch: 1000
next table: 1049
cur table: 1051
epoch: 1000
next table: 1062
cur table: 1068
epoch: 1000
next table: 1044
cur table: 1049
epoch: 1000
next table: 1057
cur table: 1062
epoch: 1000
next table: 1042
cur table: 1044
epoch: 1000
next table: 1071
cur table: 1057
epoch: 1000
next table: 1056
cur table: 1042
epoch: 1000
next table: 1066
cur table: 1071
epoch: 1000
next table: 1047
cur table: 1056
epoch: 1000
next table: 1074
cur table: 1066
epoch: 1000
next table: 1055
cur table: 1047
epoch: 1000
next table: 1065
cur table: 1074
epoch: 1000
next table: 1048
cur table: 1055
epoch: 1000
next table: 1070
cur table: 1065
epoch: 1000
next table: 1050
cur table: 1048
epoch: 1000
next table: 1066
cur table: 1070
epoch: 1000
next table: 1045
cur table: 1050
epoch: 1000
next table: 1060
cur table: 1066
epoch: 1000
next table: 1043
cur table: 1045
epoch: 1000
next table: 1062
cur table: 1060
epoch: 1000
next table: 1048
cur table: 1043
epoch: 1000
next table: 1062
cur table: 1062
epoch: 1000
next table: 1051
cur table: 1048
epoch: 1000
next table: 1063
cur table: 1062
epoch: 1000
next table: 1042
cur table: 1051
epoch: 1000
next table: 1062
cur table: 1063
epoch: 1000
next table: 1050
cur table: 1042
epoch: 1000
next table: 1063
cur table: 1062
epoch: 1000
next table: 1043
cur table: 1050
epoch: 1000
next table: 1067
cur table: 1063
epoch: 1000
next table: 1057
cur table: 1043
epoch: 1000
next table: 1069
cur table: 1067
epoch: 1000
next table: 1043
cur table: 1057
epoch: 1000
next table: 1064
cur table: 1069
epoch: 1000
next table: 1046
cur table: 1043
epoch: 1000
next table: 1064
cur table: 1064
epoch: 1000
next table: 1049
cur table: 1046
epoch: 1000
next table: 1069
cur table: 1064
epoch: 1000
next table: 1054
cur table: 1049
epoch: 1000
next table: 1072
cur table: 1069
epoch: 1000
next table: 1046
cur table: 1054
epoch: 1000
next table: 1064
cur table: 1072
epoch: 1000
next table: 1050
cur table: 1046
epoch: 1000
next table: 1067
cur table: 1064
epoch: 1000
next table: 1046
cur table: 1050
epoch: 1000
next table: 1067
cur table: 1067
epoch: 1000
next table: 1049
cur table: 1046
epoch: 1000
next table: 1064
cur table: 1067
epoch: 1000
next table: 1046
cur table: 1049
epoch: 1000
next table: 1069
cur table: 1064
epoch: 1000
next table: 1051
cur table: 1046
epoch: 1000
next table: 1063
cur table: 1069
epoch: 1000
next table: 1041
cur table: 1051
epoch: 1000
next table: 1062
cur table: 1063
epoch: 1000
next table: 1051
cur table: 1041
epoch: 1000
next table: 1066
cur table: 1062
epoch: 1000
next table: 1043
cur table: 1051
epoch: 1000
next table: 1068
cur table: 1066
epoch: 1000
next table: 1054
cur table: 1043
epoch: 1000
next table: 1072
cur table: 1068
epoch: 1000
next table: 1049
cur table: 1054
epoch: 1000
next table: 1059
cur table: 1072
epoch: 1000
next table: 1049
cur table: 1049
epoch: 1000
next table: 1063
cur table: 1059
epoch: 1000
next table: 1047
cur table: 1049
epoch: 1000
next table: 1069
cur table: 1063
epoch: 1000
next table: 1044
cur table: 1047
epoch: 1000
next table: 1055
cur table: 1069
epoch: 1000
next table: 1045
cur table: 1044
epoch: 1000
next table: 1065
cur table: 1055
epoch: 1000
next table: 1048
cur table: 1045
epoch: 1000
next table: 1064
cur table: 1065
epoch: 1000
next table: 1046
cur table: 1048
epoch: 1000
next table: 1065
cur table: 1064
epoch: 1000
next table: 1049
cur table: 1046
epoch: 1000
next table: 1076
cur table: 1065
epoch: 1000
next table: 1048
cur table: 1049
epoch: 1000
next table: 1057
cur table: 1076
epoch: 1000
next table: 1045
cur table: 1048
epoch: 1000
next table: 1065
cur table: 1057
epoch: 1000
next table: 1044
cur table: 1045
epoch: 1000
next table: 1060
cur table: 1065
epoch: 1000
next table: 1054
cur table: 1044
epoch: 1000
next table: 1068
cur table: 1060
epoch: 1000
next table: 1046
cur table: 1054
epoch: 1000
next table: 1068
cur table: 1068
epoch: 1000
next table: 1045
cur table: 1046
epoch: 1000
next table: 1062
cur table: 1068
epoch: 1000
next table: 1046
cur table: 1045
epoch: 1000
next table: 1069
cur table: 1062
epoch: 1000
next table: 1049
cur table: 1046
epoch: 1000
next table: 1061
cur table: 1069
epoch: 1000
next table: 1043
cur table: 1049
epoch: 1000
next table: 1063
cur table: 1061
epoch: 1000
next table: 1050
cur table: 1043
epoch: 1000
next table: 1067
cur table: 1063
epoch: 1000
next table: 1045
cur table: 1050
epoch: 1000
next table: 1065
cur table: 1067
epoch: 1000
next table: 1050
cur table: 1045
epoch: 1000
next table: 1069
cur table: 1065
epoch: 1000
next table: 1048
cur table: 1050
epoch: 1000
next table: 1064
cur table: 1069
epoch: 1000
next table: 1045
cur table: 1048
epoch: 1000
next table: 1069
cur table: 1064
epoch: 1000
next table: 1052
cur table: 1045
epoch: 1000
next table: 1068
cur table: 1069
epoch: 1000
next table: 1045
cur table: 1052
epoch: 1000
next table: 1069
cur table: 1068
epoch: 1000
next table: 1053
cur table: 1045
epoch: 1000
next table: 1070
cur table: 1069
epoch: 1000
next table: 1054
cur table: 1053
epoch: 1000
next table: 1059
cur table: 1070
epoch: 1000
next table: 1045
cur table: 1054
epoch: 1000
next table: 1071
cur table: 1059
epoch: 1000
next table: 1055
cur table: 1045
epoch: 1000
next table: 1069
cur table: 1071
epoch: 1000
next table: 1043
cur table: 1055
epoch: 1000
next table: 1061
cur table: 1069
epoch: 1000
next table: 1051
cur table: 1043
epoch: 1000
next table: 1067
cur table: 1061
epoch: 1000
next table: 1046
cur table: 1051
epoch: 1000
next table: 1062
cur table: 1067
epoch: 1000
next table: 1046
cur table: 1046
epoch: 1000
next table: 1061
cur table: 1062
epoch: 1000
next table: 1050
cur table: 1046
epoch: 1000
next table: 1068
cur table: 1061
epoch: 1000
next table: 1044
cur table: 1050
epoch: 1000
next table: 1054
cur table: 1068
epoch: 1000
next table: 1042
cur table: 1044
epoch: 1000
next table: 1066
cur table: 1054
epoch: 1000
next table: 1046
cur table: 1042
epoch: 1000
next table: 1059
cur table: 1066
epoch: 1000
next table: 1046
cur table: 1046
epoch: 1000
next table: 1065
cur table: 1059
epoch: 1000
next table: 1060
cur table: 1046
epoch: 1000
next table: 1075
cur table: 1065
epoch: 1000
next table: 1044
cur table: 1060
epoch: 1000
next table: 1064
cur table: 1075
epoch: 1000
next table: 1051
cur table: 1044
epoch: 1000
next table: 1072
cur table: 1064
epoch: 1000
next table: 1046
cur table: 1051
epoch: 1000
next table: 1061
cur table: 1072
epoch: 1000
next table: 1049
cur table: 1046
epoch: 1000
next table: 1063
cur table: 1061
epoch: 1000
next table: 1046
cur table: 1049
epoch: 1000
next table: 1070
cur table: 1063
epoch: 1000
next table: 1048
cur table: 1046
epoch: 1000
next table: 1061
cur table: 1070
epoch: 1000
next table: 1046
cur table: 1048
epoch: 1000
next table: 1070
cur table: 1061
epoch: 1000
next table: 1051
cur table: 1046
epoch: 1000
next table: 1063
cur table: 1070
epoch: 1000
next table: 1046
cur table: 1051
epoch: 1000
next table: 1060
cur table: 1063
epoch: 1000
next table: 1049
cur table: 1046
epoch: 1000
next table: 1074
cur table: 1060
epoch: 1000
next table: 1052
cur table: 1049
epoch: 1000
next table: 1064
cur table: 1074
epoch: 1000
next table: 1056
cur table: 1052
epoch: 1000
next table: 1068
cur table: 1064
epoch: 1000
next table: 1050
cur table: 1056
Heartbeat CPU 0 instructions: 40000002 cycles: 13237209 heartbeat IPC: 3.02155 cumulative IPC: 3.02179 (Simulation time: 0 hr 17 min 19 sec) 
epoch: 1000
next table: 1065
cur table: 1068
epoch: 1000
next table: 1053
cur table: 1050
epoch: 1000
next table: 1067
cur table: 1065
epoch: 1000
next table: 1049
cur table: 1053
epoch: 1000
next table: 1071
cur table: 1067
epoch: 1000
next table: 1051
cur table: 1049
epoch: 1000
next table: 1060
cur table: 1071
epoch: 1000
next table: 1042
cur table: 1051
epoch: 1000
next table: 1065
cur table: 1060
epoch: 1000
next table: 1047
cur table: 1042
epoch: 1000
next table: 1060
cur table: 1065
epoch: 1000
next table: 1046
cur table: 1047
epoch: 1000
next table: 1064
cur table: 1060
epoch: 1000
next table: 1050
cur table: 1046
epoch: 1000
next table: 1067
cur table: 1064
epoch: 1000
next table: 1050
cur table: 1050
epoch: 1000
next table: 1065
cur table: 1067
epoch: 1000
next table: 1044
cur table: 1050
epoch: 1000
next table: 1062
cur table: 1065
epoch: 1000
next table: 1042
cur table: 1044
epoch: 1000
next table: 1062
cur table: 1062
epoch: 1000
next table: 1051
cur table: 1042
epoch: 1000
next table: 1064
cur table: 1062
epoch: 1000
next table: 1050
cur table: 1051
epoch: 1000
next table: 1072
cur table: 1064
epoch: 1000
next table: 1044
cur table: 1050
epoch: 1000
next table: 1062
cur table: 1072
epoch: 1000
next table: 1050
cur table: 1044
epoch: 1000
next table: 1074
cur table: 1062
epoch: 1000
next table: 1053
cur table: 1050
epoch: 1000
next table: 1059
cur table: 1074
epoch: 1000
next table: 1041
cur table: 1053
epoch: 1000
next table: 1061
cur table: 1059
epoch: 1000
next table: 1051
cur table: 1041
epoch: 1000
next table: 1067
cur table: 1061
epoch: 1000
next table: 1048
cur table: 1051
epoch: 1000
next table: 1066
cur table: 1067
epoch: 1000
next table: 1053
cur table: 1048
epoch: 1000
next table: 1066
cur table: 1066
epoch: 1000
next table: 1048
cur table: 1053
epoch: 1000
next table: 1060
cur table: 1066
epoch: 1000
next table: 1044
cur table: 1048
epoch: 1000
next table: 1068
cur table: 1060
epoch: 1000
next table: 1054
cur table: 1044
epoch: 1000
next table: 1069
cur table: 1068
epoch: 1000
next table: 1053
cur table: 1054
epoch: 1000
next table: 1059
cur table: 1069
epoch: 1000
next table: 1044
cur table: 1053
epoch: 1000
next table: 1071
cur table: 1059
epoch: 1000
next table: 1056
cur table: 1044
epoch: 1000
next table: 1064
cur table: 1071
epoch: 1000
next table: 1046
cur table: 1056
epoch: 1000
next table: 1065
cur table: 1064
epoch: 1000
next table: 1050
cur table: 1046
epoch: 1000
next table: 1064
cur table: 1065
epoch: 1000
next table: 1043
cur table: 1050
epoch: 1000
next table: 1058
cur table: 1064
epoch: 1000
next table: 1052
cur table: 1043
epoch: 1000
next table: 1068
cur table: 1058
epoch: 1000
next table: 1045
cur table: 1052
epoch: 1000
next table: 1063
cur table: 1068
epoch: 1000
next table: 1049
cur table: 1045
epoch: 1000
next table: 1063
cur table: 1063
epoch: 1000
next table: 1048
cur table: 1049
epoch: 1000
next table: 1068
cur table: 1063
epoch: 1000
next table: 1047
cur table: 1048
epoch: 1000
next table: 1056
cur table: 1068
epoch: 1000
next table: 1043
cur table: 1047
epoch: 1000
next table: 1066
cur table: 1056
epoch: 1000
next table: 1047
cur table: 1043
epoch: 1000
next table: 1058
cur table: 1066
epoch: 1000
next table: 1044
cur table: 1047
epoch: 1000
next table: 1065
cur table: 1058
epoch: 1000
next table: 1059
cur table: 1044
epoch: 1000
next table: 1073
cur table: 1065
epoch: 1000
next table: 1042
cur table: 1059
epoch: 1000
next table: 1061
cur table: 1073
epoch: 1000
next table: 1052
cur table: 1042
epoch: 1000
next table: 1074
cur table: 1061
epoch: 1000
next table: 1050
cur table: 1052
epoch: 1000
next table: 1060
cur table: 1074
epoch: 1000
next table: 1045
cur table: 1050
epoch: 1000
next table: 1058
cur table: 1060
epoch: 1000
next table: 1043
cur table: 1045
epoch: 1000
next table: 1066
cur table: 1058
epoch: 1000
next table: 1046
cur table: 1043
epoch: 1000
next table: 1057
cur table: 1066
epoch: 1000
next table: 1044
cur table: 1046
epoch: 1000
next table: 1066
cur table: 1057
epoch: 1000
next table: 1048
cur table: 1044
epoch: 1000
next table: 1059
cur table: 1066
epoch: 1000
next table: 1040
cur table: 1048
epoch: 1000
next table: 1057
cur table: 1059
epoch: 1000
next table: 1049
cur table: 1040
epoch: 1000
next table: 1075
cur table: 1057
epoch: 1000
next table: 1050
cur table: 1049
epoch: 1000
next table: 1063
cur table: 1075
epoch: 1000
next table: 1052
cur table: 1050
epoch: 1000
next table: 1066
cur table: 1063
epoch: 1000
next table: 1042
cur table: 1052
epoch: 1000
next table: 1068
cur table: 1066
epoch: 1000
next table: 1054
cur table: 1042
epoch: 1000
next table: 1063
cur table: 1068
epoch: 1000
next table: 1047
cur table: 1054
epoch: 1000
next table: 1074
cur table: 1063
epoch: 1000
next table: 1047
cur table: 1047
epoch: 1000
next table: 1060
cur table: 1074
epoch: 1000
next table: 1043
cur table: 1047
epoch: 1000
next table: 1066
cur table: 1060
epoch: 1000
next table: 1046
cur table: 1043
epoch: 1000
next table: 1061
cur table: 1066
epoch: 1000
next table: 1044
cur table: 1046
epoch: 1000
next table: 1061
cur table: 1061
epoch: 1000
next table: 1051
cur table: 1044
epoch: 1000
next table: 1070
cur table: 1061
epoch: 1000
next table: 1047
cur table: 1051
epoch: 1000
next table: 1065
cur table: 1070
epoch: 1000
next table: 1046
cur table: 1047
epoch: 1000
next table: 1062
cur table: 1065
epoch: 1000
next table: 1044
cur table: 1046
epoch: 1000
next table: 1063
cur table: 1062
epoch: 1000
next table: 1047
cur table: 1044
epoch: 1000
next table: 1062
cur table: 1063
epoch: 1000
next table: 1047
cur table: 1047
epoch: 1000
next table: 1073
cur table: 1062
epoch: 1000
next table: 1048
cur table: 1047
epoch: 1000
next table: 1062
cur table: 1073
epoch: 1000
next table: 1045
cur table: 1048
epoch: 1000
next table: 1067
cur table: 1062
epoch: 1000
next table: 1050
cur table: 1045
epoch: 1000
next table: 1060
cur table: 1067
epoch: 1000
next table: 1041
cur table: 1050
epoch: 1000
next table: 1060
cur table: 1060
epoch: 1000
next table: 1050
cur table: 1041
epoch: 1000
next table: 1070
cur table: 1060
epoch: 1000
next table: 1045
cur table: 1050
epoch: 1000
next table: 1063
cur table: 1070
epoch: 1000
next table: 1049
cur table: 1045
epoch: 1000
next table: 1066
cur table: 1063
epoch: 1000
next table: 1045
cur table: 1049
epoch: 1000
next table: 1060
cur table: 1066
epoch: 1000
next table: 1044
cur table: 1045
epoch: 1000
next table: 1059
cur table: 1060
epoch: 1000
next table: 1042
cur table: 1044
epoch: 1000
next table: 1063
cur table: 1059
epoch: 1000
next table: 1043
cur table: 1042
epoch: 1000
next table: 1065
cur table: 1063
epoch: 1000
next table: 1054
cur table: 1043
epoch: 1000
next table: 1070
cur table: 1065
epoch: 1000
next table: 1054
cur table: 1054
epoch: 1000
next table: 1061
cur table: 1070
epoch: 1000
next table: 1043
cur table: 1054
epoch: 1000
next table: 1065
cur table: 1061
epoch: 1000
next table: 1052
cur table: 1043
epoch: 1000
next table: 1068
cur table: 1065
epoch: 1000
next table: 1043
cur table: 1052
epoch: 1000
next table: 1057
cur table: 1068
epoch: 1000
next table: 1049
cur table: 1043
epoch: 1000
next table: 1070
cur table: 1057
epoch: 1000
next table: 1047
cur table: 1049
epoch: 1000
next table: 1064
cur table: 1070
epoch: 1000
next table: 1043
cur table: 1047
epoch: 1000
next table: 1057
cur table: 1064
epoch: 1000
next table: 1047
cur table: 1043
epoch: 1000
next table: 1067
cur table: 1057
epoch: 1000
next table: 1045
cur table: 1047
epoch: 1000
next table: 1057
cur table: 1067
epoch: 1000
next table: 1049
cur table: 1045
epoch: 1000
next table: 1068
cur table: 1057
epoch: 1000
next table: 1048
cur table: 1049
epoch: 1000
next table: 1063
cur table: 1068
epoch: 1000
next table: 1043
cur table: 1048
epoch: 1000
next table: 1064
cur table: 1063
epoch: 1000
next table: 1056
cur table: 1043
epoch: 1000
next table: 1072
cur table: 1064
epoch: 1000
next table: 1040
cur table: 1056
epoch: 1000
next table: 1061
cur table: 1072
epoch: 1000
next table: 1051
cur table: 1040
epoch: 1000
next table: 1074
cur table: 1061
epoch: 1000
next table: 1047
cur table: 1051
epoch: 1000
next table: 1062
cur table: 1074
epoch: 1000
next table: 1050
cur table: 1047
epoch: 1000
next table: 1057
cur table: 1062
epoch: 1000
next table: 1044
cur table: 1050
epoch: 1000
next table: 1069
cur table: 1057
epoch: 1000
next table: 1046
cur table: 1044
epoch: 1000
next table: 1059
cur table: 1069
epoch: 1000
next table: 1046
cur table: 1046
epoch: 1000
next table: 1065
cur table: 1059
epoch: 1000
next table: 1051
cur table: 1046
epoch: 1000
next table: 1063
cur table: 1065
epoch: 1000
next table: 1040
cur table: 1051
epoch: 1000
next table: 1059
cur table: 1063
epoch: 1000
next table: 1047
cur table: 1040
epoch: 1000
next table: 1067
cur table: 1059
epoch: 1000
next table: 1041
cur table: 1047
epoch: 1000
next table: 1062
cur table: 1067
epoch: 1000
next table: 1051
cur table: 1041
epoch: 1000
next table: 1074
cur table: 1062
epoch: 1000
next table: 1056
cur table: 1051
epoch: 1000
next table: 1068
cur table: 1074
epoch: 1000
next table: 1050
cur table: 1056
epoch: 1000
next table: 1064
cur table: 1068
epoch: 1000
next table: 1045
cur table: 1050
epoch: 1000
next table: 1065
cur table: 1064
epoch: 1000
next table: 1048
cur table: 1045
epoch: 1000
next table: 1061
cur table: 1065
epoch: 1000
next table: 1044
cur table: 1048
epoch: 1000
next table: 1064
cur table: 1061
epoch: 1000
next table: 1051
cur table: 1044
epoch: 1000
next table: 1065
cur table: 1064
epoch: 1000
next table: 1044
cur table: 1051
epoch: 1000
next table: 1060
cur table: 1065
epoch: 1000
next table: 1046
cur table: 1044
epoch: 1000
next table: 1066
cur table: 1060
epoch: 1000
next table: 1043
cur table: 1046
epoch: 1000
next table: 1058
cur table: 1066
epoch: 1000
next table: 1044
cur table: 1043
epoch: 1000
next table: 1061
cur table: 1058
epoch: 1000
next table: 1045
cur table: 1044
epoch: 1000
next table: 1061
cur table: 1061
epoch: 1000
next table: 1053
cur table: 1045
epoch: 1000
next table: 1065
cur table: 1061
epoch: 1000
next table: 1045
cur table: 1053
epoch: 1000
next table: 1071
cur table: 1065
epoch: 1000
next table: 1057
cur table: 1045
epoch: 1000
next table: 1070
cur table: 1071
epoch: 1000
next table: 1047
cur table: 1057
epoch: 1000
next table: 1066
cur table: 1070
epoch: 1000
next table: 1052
cur table: 1047
epoch: 1000
next table: 1066
cur table: 1066
epoch: 1000
next table: 1043
cur table: 1052
epoch: 1000
next table: 1060
cur table: 1066
epoch: 1000
next table: 1048
cur table: 1043
epoch: 1000
next table: 1065
cur table: 1060
epoch: 1000
next table: 1042
cur table: 1048
epoch: 1000
next table: 1066
cur table: 1065
epoch: 1000
next table: 1053
cur table: 1042
epoch: 1000
next table: 1063
cur table: 1066
epoch: 1000
next table: 1046
cur table: 1053
epoch: 1000
next table: 1061
cur table: 1063
epoch: 1000
next table: 1043
cur table: 1046
epoch: 1000
next table: 1059
cur table: 1061
epoch: 1000
next table: 1043
cur table: 1043
epoch: 1000
next table: 1066
cur table: 1059
epoch: 1000
next table: 1047
cur table: 1043
epoch: 1000
next table: 1067
cur table: 1066
epoch: 1000
next table: 1053
cur table: 1047
epoch: 1000
next table: 1067
cur table: 1067
epoch: 1000
next table: 1051
cur table: 1053
epoch: 1000
next table: 1061
cur table: 1067
epoch: 1000
next table: 1044
cur table: 1051
epoch: 1000
next table: 1062
cur table: 1061
epoch: 1000
next table: 1052
cur table: 1044
epoch: 1000
next table: 1069
cur table: 1062
epoch: 1000
next table: 1043
cur table: 1052
epoch: 1000
next table: 1054
cur table: 1069
epoch: 1000
next table: 1049
cur table: 1043
epoch: 1000
next table: 1066
cur table: 1054
epoch: 1000
next table: 1047
cur table: 1049
epoch: 1000
next table: 1064
cur table: 1066
epoch: 1000
next table: 1050
cur table: 1047
epoch: 1000
next table: 1061
cur table: 1064
epoch: 1000
next table: 1045
cur table: 1050
epoch: 1000
next table: 1069
cur table: 1061
epoch: 1000
next table: 1044
cur table: 1045
epoch: 1000
next table: 1057
cur table: 1069
epoch: 1000
next table: 1048
cur table: 1044
epoch: 1000
next table: 1069
cur table: 1057
epoch: 1000
next table: 1048
cur table: 1048
[...]
cur table: 1047
epoch: 1000
next table: 1094
cur table: 1093
epoch: 1000
next table: 1052
cur table: 1044
epoch: 1000
next table: 1090
cur table: 1094
epoch: 1000
next table: 1042
cur table: 1052
epoch: 1000
next table: 1089
cur table: 1090
epoch: 1000
next table: 1049
cur table: 1042
epoch: 1000
next table: 1088
cur table: 1089
epoch: 1000
next table: 1042
cur table: 1049
epoch: 1000
next table: 1088
cur table: 1088
epoch: 1000
next table: 1053
cur table: 1042
epoch: 1000
next table: 1093
cur table: 1088
epoch: 1000
next table: 1046
cur table: 1053
epoch: 1000
next table: 1075
cur table: 1093
epoch: 1000
next table: 1044
cur table: 1046
epoch: 1000
next table: 1094
cur table: 1075
epoch: 1000
next table: 1046
cur table: 1044
epoch: 1000
next table: 1087
cur table: 1094
epoch: 1000
next table: 1057
cur table: 1046
epoch: 1000
next table: 1084
cur table: 1087
epoch: 1000
next table: 1051
cur table: 1057
epoch: 1000
next table: 1097
cur table: 1084
epoch: 1000
next table: 1052
cur table: 1051
epoch: 1000
next table: 1088
cur table: 1097
epoch: 1000
next table: 1044
cur table: 1052
epoch: 1000
next table: 1094
cur table: 1088
epoch: 1000
next table: 1053
cur table: 1044
epoch: 1000
next table: 1095
cur table: 1094
epoch: 1000
next table: 1041
cur table: 1053
epoch: 1000
next table: 1105
cur table: 1095
epoch: 1000
next table: 1051
cur table: 1041
epoch: 1000
next table: 1088
cur table: 1105
epoch: 1000
next table: 1045
cur table: 1051
epoch: 1000
next table: 1096
cur table: 1088
epoch: 1000
next table: 1051
cur table: 1045
epoch: 1000
next table: 1104
cur table: 1096
epoch: 1000
next table: 1048
cur table: 1051
epoch: 1000
next table: 1091
cur table: 1104
epoch: 1000
next table: 1049
cur table: 1048
epoch: 1000
next table: 1087
cur table: 1091
epoch: 1000
next table: 1047
cur table: 1049
epoch: 1000
next table: 1098
cur table: 1087
epoch: 1000
next table: 1054
cur table: 1047
epoch: 1000
next table: 1097
cur table: 1098
epoch: 1000
next table: 1047
cur table: 1054
epoch: 1000
next table: 1100
cur table: 1097
epoch: 1000
next table: 1055
cur table: 1047
epoch: 1000
next table: 1087
cur table: 1100
epoch: 1000
next table: 1045
cur table: 1055
epoch: 1000
next table: 1088
cur table: 1087
epoch: 1000
next table: 1051
cur table: 1045
epoch: 1000
next table: 1101
cur table: 1088
epoch: 1000
next table: 1051
cur table: 1051
epoch: 1000
next table: 1084
cur table: 1101
epoch: 1000
next table: 1046
cur table: 1051
epoch: 1000
next table: 1090
cur table: 1084
epoch: 1000
next table: 1047
cur table: 1046
Heartbeat CPU 0 instructions: 100000001 cycles: 68625301 heartbeat IPC: 0.959777 cumulative IPC: 0.960073 (Simulation time: 0 hr 32 min 27 sec) 
Finished CPU 0 instructions: 50000000 cycles: 52079399 cumulative IPC: 0.960073 (Simulation time: 0 hr 32 min 27 sec) 

ChampSim completed all CPUs

Region of Interest Statistics

CPU 0 cumulative IPC: 0.960073 instructions: 50000000 cycles: 52079399
ITLB TOTAL     ACCESS:    6356548  HIT:    6356548  MISS:          0  HIT %:        100  MISS %:          0   MPKI: 0
ITLB LOAD TRANSLATION ACCESS:    6356548  HIT:    6356548  MISS:          0  HIT %:        100  MISS %:          0   MPKI: 0
ITLB PREFETCH  REQUESTED:          0  ISSUED:          0  USEFUL:          0  USELESS:          0
ITLB USEFUL LOAD PREFETCHES:          0 PREFETCH ISSUED TO LOWER LEVEL:          0  ACCURACY: -nan
ITLB TIMELY PREFETCHES:          0 LATE PREFETCHES: 0 DROPPED PREFETCHES: 0
ITLB PREFETCHES SAME FILL-ORIGIN LEVEL: 0 DIFFERENT FILL-ORIGIN LEVEL: 0
ITLB AVERAGE MISS LATENCY: -nan cycles
ITLB RQ	ACCESS:    8463133	FORWARD:          0	MERGED:    2106585	TO_CACHE:    6356548

Revised Interactions: positive negative neutral
ITLB_interactions 0 0 0 -nan -nan -nan
DTLB TOTAL     ACCESS:   17198764  HIT:   17162428  MISS:      36336  HIT %:    99.7887  MISS %:   0.211271   MPKI: 0.72672
DTLB LOAD TRANSLATION ACCESS:   17198764  HIT:   17162428  MISS:      36336  HIT %:    99.7887  MISS %:   0.211271   MPKI: 0.72672
DTLB PREFETCH  REQUESTED:          0  ISSUED:          0  USEFUL:          0  USELESS:          0
DTLB USEFUL LOAD PREFETCHES:          0 PREFETCH ISSUED TO LOWER LEVEL:          0  ACCURACY: -nan
DTLB TIMELY PREFETCHES:          0 LATE PREFETCHES: 0 DROPPED PREFETCHES: 0
DTLB PREFETCHES SAME FILL-ORIGIN LEVEL: 0 DIFFERENT FILL-ORIGIN LEVEL: 0
DTLB AVERAGE MISS LATENCY: 211.724 cycles
DTLB RQ	ACCESS:   19658135	FORWARD:          0	MERGED:    2455034	TO_CACHE:   17203101

Revised Interactions: positive negative neutral
DTLB_interactions 0 0 0 -nan -nan -nan
STLB TOTAL     ACCESS:    3757150  HIT:    3742298  MISS:      14852  HIT %:    99.6047  MISS %:     0.3953   MPKI: 0.29704
STLB LOAD TRANSLATION ACCESS:      36336  HIT:      21484  MISS:      14852  HIT %:    59.1259  MISS %:    40.8741   MPKI: 0.29704
STLB TRANSLATION FROM L1D PREFETCHER ACCESS:    3720814  HIT:    3720814  MISS:          0  HIT %:        100  MISS %:          0   MPKI: 0
STLB PREFETCH  REQUESTED:          0  ISSUED:          0  USEFUL:          0  USELESS:          0
STLB USEFUL LOAD PREFETCHES:          0 PREFETCH ISSUED TO LOWER LEVEL:          0  ACCURACY: -nan
STLB TIMELY PREFETCHES:          0 LATE PREFETCHES: 0 DROPPED PREFETCHES: 0
STLB PREFETCHES SAME FILL-ORIGIN LEVEL: 0 DIFFERENT FILL-ORIGIN LEVEL: 0
STLB AVERAGE MISS LATENCY: 469.785 cycles
STLB RQ	ACCESS:   17441739	FORWARD:          0	MERGED:   13684587	TO_CACHE:    3757152

Revised Interactions: positive negative neutral
STLB_interactions 0 0 0 -nan -nan -nan
STLB Hit, L1D data hit: 0
STLB Hit, L2C data hit: 0
STLB Hit, LLC data hit: 0
STLB Hit, LLC data miss: 0
STLB STLB hints to L2: 0
L1D TOTAL     ACCESS:   37030457  HIT:   36026640  MISS:    1003817  HIT %:    97.2892  MISS %:    2.71079   MPKI: 20.0763
L1D LOAD      ACCESS:   16836472  HIT:   16788822  MISS:      47650  HIT %:     99.717  MISS %:   0.283017   MPKI: 0.953
L1D RFO       ACCESS:    2807406  HIT:    2783044  MISS:      24362  HIT %:    99.1322  MISS %:   0.867776   MPKI: 0.48724
L1D PREFETCH  ACCESS:   17386579  HIT:   16454774  MISS:     931805  HIT %:    94.6407  MISS %:    5.35933   MPKI: 18.6361
L1D PREFETCH  REQUESTED:   49491774  ISSUED:   34842429  USEFUL:     927588  USELESS:       4212
L1D USEFUL LOAD PREFETCHES:     927588 PREFETCH ISSUED TO LOWER LEVEL:     979365  ACCURACY: 94.7132
L1D TIMELY PREFETCHES:     927588 LATE PREFETCHES: 2087 DROPPED PREFETCHES: 0
L1D PREFETCHES SAME FILL-ORIGIN LEVEL: 979365 DIFFERENT FILL-ORIGIN LEVEL: 0
L1D AVERAGE MISS LATENCY: 47.181 cycles
L1D RQ	ACCESS:   21266100	FORWARD:          0	MERGED:    4357157	TO_CACHE:   16841464
L1D WQ	ACCESS:    2816716	FORWARD:      67479	MERGED:         45	TO_CACHE:    2816671
L1D PQ	ACCESS:   17437026	FORWARD:          0	MERGED:      31623	TO_CACHE:   17405403

Revised Interactions: positive negative neutral
L1D_interactions 0 0 0 -nan -nan -nan
L1D UNIQUE REGIONS ACCESSED: 0
L1D REGIONS CONFLICTS: 0
L1D Cross Page Prefetch Requests: 0
L1D Same Page Prefetch Requests: 31220988
L1D ROI Sum of L1D PQ occupancy: 264005217
L1D PREFETCHES PUSHED FROM L2C: 0
L1I TOTAL     ACCESS:    8463130  HIT:    8463130  MISS:          0  HIT %:        100  MISS %:          0   MPKI: 0
L1I LOAD      ACCESS:    8463130  HIT:    8463130  MISS:          0  HIT %:        100  MISS %:          0   MPKI: 0
L1I PREFETCH  REQUESTED:          0  ISSUED:          0  USEFUL:          0  USELESS:          0
L1I USEFUL LOAD PREFETCHES:          0 PREFETCH ISSUED TO LOWER LEVEL:          0  ACCURACY: -nan
L1I TIMELY PREFETCHES:          0 LATE PREFETCHES: 0 DROPPED PREFETCHES: 0
L1I PREFETCHES SAME FILL-ORIGIN LEVEL: 0 DIFFERENT FILL-ORIGIN LEVEL: 0
L1I AVERAGE MISS LATENCY: -nan cycles
L1I RQ	ACCESS:   11737612	FORWARD:          0	MERGED:    3274479	TO_CACHE:    8463133

Revised Interactions: positive negative neutral
L1I_interactions 0 0 0 -nan -nan -nan
BTB TOTAL     ACCESS:    1208718  HIT:    1208713  MISS:          5  HIT %:    99.9996  MISS %: 0.000413661   MPKI: 0.0001
BTB BRANCH_DIRECT_JUMP	ACCESS:          0  HIT:          0  MISS:          0
BTB BRANCH_INDIRECT	ACCESS:          0  HIT:          0  MISS:          0
BTB BRANCH_CONDITIONAL	ACCESS:    1208718  HIT:    1208713  MISS:          5
BTB BRANCH_DIRECT_CALL	ACCESS:          0  HIT:          0  MISS:          0
BTB BRANCH_INDIRECT_CALL	ACCESS:          0  HIT:          0  MISS:          0
BTB BRANCH_RETURN	ACCESS:          0  HIT:          0  MISS:          0
BTB BRANCH_OTHER ACCESS:          0  HIT:          0  MISS:          0

L2C TOTAL     ACCESS:    4027271  HIT:    3072055  MISS:     955216  HIT %:    76.2813  MISS %:    23.7187   MPKI: 19.1043
L2C LOAD      ACCESS:      47650  HIT:      27570  MISS:      20080  HIT %:    57.8594  MISS %:    42.1406   MPKI: 0.4016
L2C DATA LOAD MPKI: 0.4016
L2C INSTRUCTION LOAD MPKI: 0
L2C RFO       ACCESS:      24362  HIT:          0  MISS:      24362  HIT %:          0  MISS %:        100   MPKI: 0.48724
L2C PREFETCH  ACCESS:    3915667  HIT:    3008783  MISS:     906884  HIT %:    76.8396  MISS %:    23.1604   MPKI: 18.1377
L2C DATA PREFETCH MPKI: 18.1377
L2C INSTRUCTION PREFETCH MPKI: 0
L2C WRITEBACK ACCESS:      24738  HIT:      22929  MISS:       1809  HIT %:    92.6874  MISS %:    7.31264   MPKI: 0.03618
L2C LOAD TRANSLATION ACCESS:      14854  HIT:      12773  MISS:       2081  HIT %:    85.9903  MISS %:    14.0097   MPKI: 0.04162
L2C PREFETCH  REQUESTED:    4913874  ISSUED:    4533005  USEFUL:      26174  USELESS:     880899
L2C USEFUL LOAD PREFETCHES:      26174 PREFETCH ISSUED TO LOWER LEVEL:     907547  ACCURACY: 2.88404
L2C TIMELY PREFETCHES:      26174 LATE PREFETCHES: 657 DROPPED PREFETCHES: 0
L2C PREFETCHES SAME FILL-ORIGIN LEVEL: 816354 DIFFERENT FILL-ORIGIN LEVEL: 0
L2C AVERAGE MISS LATENCY: 176.14 cycles
L2C RQ	ACCESS:      86866	FORWARD:          0	MERGED:          0	TO_CACHE:      86866
L2C WQ	ACCESS:      24738	FORWARD:          0	MERGED:          0	TO_CACHE:      24738
L2C PQ	ACCESS:    5464814	FORWARD:          0	MERGED:    1360869	TO_CACHE:    4103945

Revised Interactions: positive negative neutral
L2C_interactions 27749 879410 27235 2.96973 94.1155 2.91472
L2C Instructions Evicting Data 0
L2C Translations Evicting Data 2078
L2C Data Evicting Data 949255
L2C Instructions Evicting Instructions 0
L2C Translations Evicting Instructions 0
L2C Data Evicting Instructions 0
L2C Instructions Evicting Translations 0
L2C Translations Evicting Translations 3
L2C Data Evicting Translations 2071
L2C Dense regions hint from L2: 0
PSCL5 TOTAL     ACCESS:      14852  HIT:      14852  MISS:          0  HIT %:        100  MISS %:          0   MPKI: 0
PSCL5 LOAD TRANSLATION ACCESS:      14852  HIT:      14852  MISS:          0  HIT %:        100  MISS %:          0   MPKI: 0
PSCL5 PREFETCH  REQUESTED:          0  ISSUED:          0  USEFUL:          0  USELESS:          0
PSCL5 USEFUL LOAD PREFETCHES:          0 PREFETCH ISSUED TO LOWER LEVEL:          0  ACCURACY: -nan
PSCL5 TIMELY PREFETCHES:          0 LATE PREFETCHES: 0 DROPPED PREFETCHES: 0
PSCL5 PREFETCHES SAME FILL-ORIGIN LEVEL: 0 DIFFERENT FILL-ORIGIN LEVEL: 0

Revised Interactions: positive negative neutral
PSCL5_interactions 0 0 0 -nan -nan -nan
PSCL4 TOTAL     ACCESS:      14852  HIT:      14852  MISS:          0  HIT %:        100  MISS %:          0   MPKI: 0
PSCL4 LOAD TRANSLATION ACCESS:      14852  HIT:      14852  MISS:          0  HIT %:        100  MISS %:          0   MPKI: 0
PSCL4 PREFETCH  REQUESTED:          0  ISSUED:          0  USEFUL:          0  USELESS:          0
PSCL4 USEFUL LOAD PREFETCHES:          0 PREFETCH ISSUED TO LOWER LEVEL:          0  ACCURACY: -nan
PSCL4 TIMELY PREFETCHES:          0 LATE PREFETCHES: 0 DROPPED PREFETCHES: 0
PSCL4 PREFETCHES SAME FILL-ORIGIN LEVEL: 0 DIFFERENT FILL-ORIGIN LEVEL: 0

Revised Interactions: positive negative neutral
PSCL4_interactions 0 0 0 -nan -nan -nan
PSCL3 TOTAL     ACCESS:      14852  HIT:      14852  MISS:          0  HIT %:        100  MISS %:          0   MPKI: 0
PSCL3 LOAD TRANSLATION ACCESS:      14852  HIT:      14852  MISS:          0  HIT %:        100  MISS %:          0   MPKI: 0
PSCL3 PREFETCH  REQUESTED:          0  ISSUED:          0  USEFUL:          0  USELESS:          0
PSCL3 USEFUL LOAD PREFETCHES:          0 PREFETCH ISSUED TO LOWER LEVEL:          0  ACCURACY: -nan
PSCL3 TIMELY PREFETCHES:          0 LATE PREFETCHES: 0 DROPPED PREFETCHES: 0
PSCL3 PREFETCHES SAME FILL-ORIGIN LEVEL: 0 DIFFERENT FILL-ORIGIN LEVEL: 0

Revised Interactions: positive negative neutral
PSCL3_interactions 0 0 0 -nan -nan -nan
PSCL2 TOTAL     ACCESS:      14852  HIT:      14821  MISS:         31  HIT %:    99.7913  MISS %:   0.208726   MPKI: 0.00062
PSCL2 LOAD TRANSLATION ACCESS:      14852  HIT:      14821  MISS:         31  HIT %:    99.7913  MISS %:   0.208726   MPKI: 0.00062
PSCL2 PREFETCH  REQUESTED:          0  ISSUED:          0  USEFUL:          0  USELESS:          0
PSCL2 USEFUL LOAD PREFETCHES:          0 PREFETCH ISSUED TO LOWER LEVEL:          0  ACCURACY: -nan
PSCL2 TIMELY PREFETCHES:          0 LATE PREFETCHES: 0 DROPPED PREFETCHES: 0
PSCL2 PREFETCHES SAME FILL-ORIGIN LEVEL: 0 DIFFERENT FILL-ORIGIN LEVEL: 0

Revised Interactions: positive negative neutral
PSCL2_interactions 0 0 0 -nan -nan -nan
LLC TOTAL     ACCESS:     977872  HIT:      25360  MISS:     952512  HIT %:    2.59339  MISS %:    97.4066   MPKI: 19.0502
LLC LOAD      ACCESS:      19423  HIT:         88  MISS:      19335  HIT %:   0.453071  MISS %:    99.5469   MPKI: 0.3867
LLC RFO       ACCESS:      24362  HIT:          0  MISS:      24362  HIT %:          0  MISS %:        100   MPKI: 0.48724
LLC PREFETCH  ACCESS:     907541  HIT:       1030  MISS:     906511  HIT %:   0.113493  MISS %:    99.8865   MPKI: 18.1302
LLC WRITEBACK ACCESS:      24465  HIT:      24060  MISS:        405  HIT %:    98.3446  MISS %:    1.65543   MPKI: 0.0081
LLC LOAD TRANSLATION ACCESS:       2081  HIT:        182  MISS:       1899  HIT %:     8.7458  MISS %:    91.2542   MPKI: 0.03798
LLC PREFETCH  REQUESTED:          0  ISSUED:          0  USEFUL:          0  USELESS:     906545
LLC USEFUL LOAD PREFETCHES:          0 PREFETCH ISSUED TO LOWER LEVEL:     906512  ACCURACY: 0
LLC TIMELY PREFETCHES:          0 LATE PREFETCHES: 0 DROPPED PREFETCHES: 0
LLC PREFETCHES SAME FILL-ORIGIN LEVEL: 0 DIFFERENT FILL-ORIGIN LEVEL: 0
LLC AVERAGE MISS LATENCY: 144.85 cycles
LLC RQ	ACCESS:      45866	FORWARD:          0	MERGED:          0	TO_CACHE:      45866
LLC WQ	ACCESS:      24465	FORWARD:          0	MERGED:          0	TO_CACHE:      24465
LLC PQ	ACCESS:     907547	FORWARD:          0	MERGED:          0	TO_CACHE:     907547

Revised Interactions: positive negative neutral
LLC_interactions 80 905471 28477 0.00856505 96.9426 3.04884
LLC Dense regions hint to LLC: 0

RAW hits: 223920
Loads Generated: 21490025
Loads sent to L1D: 21266100
Stores Generated: 2816716
Stores sent to L1D: 2816716
Major fault: 0 Minor fault: 28543
Allocated PAGES: 28543

stream: 
stream:times selected: 11420923
stream:pref_filled: 1854374
stream:pref_useful: 1854114
stream:pref_late: 4472
stream:misses: 189
stream:misses_by_poll: 0

CS: 
CS:times selected: 11063468
CS:pref_filled: 9629
CS:pref_useful: 9629
CS:pref_late: 65
CS:misses: 74839
CS:misses_by_poll: 46

CPLX: 
CPLX:times selected: 357290
CPLX:pref_filled: 24637
CPLX:pref_useful: 16319
CPLX:pref_late: 21
CPLX:misses: 1075
CPLX:misses_by_poll: 27

NL_L1: 
NL:times selected: 3345
NL:pref_filled: 4
NL:pref_useful: 4
NL:pref_late: 0
NL:misses: 4
NL:misses_by_poll: 0

total selections: 22845026
total_filled: 931805
total_useful: 927588
total_late: 4558
total_polluted: 73
total_misses_after_warmup: 52649
conflicts: 6
Degree Incremented Times: 274845
Degree Decremented Times: 0

L1 IP Table Write Accesses: 16840636
L1 IP Table Read Accesses: 16840630
L1 RST Write Accesses: 5776182
L1 RST Read Accesses: 11552364
L1 CSPT Write Accesses: 5776182
L1 CSPT Read Accesses: 6280217
L1 RR Filter Tag Write Accesses: 32086371
L1 RR Filter Tag Read Accesses: 1487130018
L1 IP Table Tag Write Accesses: 16841471
L1 IP Table Tag Read Accesses: 16841471
L1 RST Tag Write Accesses: 0
L1 RST Tag Read Accesses: 51982494
L1 RR Filter Write Accesses: 0
L1 RR Filter Read Accesses: 49386987
test: 226475
L2 IP Table Read Accesses: 1773186
L2 IP Table Write Accesses: 1725536
L2 IP Table Tag Read Accesses: 886593
L2 IP Table Tag Write Accesses: 886593

DRAM Statistics
 CHANNEL 0
 RQ ROW_BUFFER_HIT:     663960  ROW_BUFFER_MISS:     288147
 DBUS_CONGESTED:        277
 WQ ROW_BUFFER_HIT:       3605  ROW_BUFFER_MISS:      20739  FULL:          0

 AVG_CONGESTED_CYCLE: 3
 All warmup complete: 2
Channel 0 Bank busy for read cycles: 0
Channel 0 Bank busy for write cycles: 0
Channel 0
Rank 0
0banks busy for read cycles: 23052478
0banks busy for write cycles: 8624
1banks busy for read cycles: 9112667
1banks busy for write cycles: 844779
2banks busy for read cycles: 5606828
2banks busy for write cycles: 389386
3banks busy for read cycles: 4411625
3banks busy for write cycles: 310979
4banks busy for read cycles: 2824552
4banks busy for write cycles: 137550
5banks busy for read cycles: 1878906
5banks busy for write cycles: 86055
6banks busy for read cycles: 1241133
6banks busy for write cycles: 58775
7banks busy for read cycles: 1244927
7banks busy for write cycles: 62514
8banks busy for read cycles: 751626
8banks busy for write cycles: 55996

CPU 0 Branch Prediction Accuracy: 81.2318% MPKI: 4.68478 Average ROB Occupancy at Mispredict: 36.171
Branch types
NOT_BRANCH: 48751603 97.5032%
BRANCH_DIRECT_JUMP: 0 0%
BRANCH_INDIRECT: 0 0%
BRANCH_CONDITIONAL: 1248063 2.49613%
BRANCH_DIRECT_CALL: 0 0%
BRANCH_INDIRECT_CALL: 0 0%
BRANCH_RETURN: 0 0%
BRANCH_OTHER: 0 0%

@sumon_overall_L1D    927588      2087      2087      4212    931805  34842429  49491774
@Sumon_Early_by_class_L1D    914765      4086      8737         0
@Sumon_Late_by_class_L1D      2023        14         1         0

@Sumon_Early_by_cycle_L1D     11927      6909     18579     23001     38674    529558    179320     19747     99831        28        14         0
@Sumon_Late_by_cycle_L1D       617       186        92       156       985         2
@Sumon_Early_stream_L1D     11859      6852     18345     22653     38028    526786    179139     19022     92081         0         0         0
@Sumon_Early_CS_L1D        56        39       191       293       550      2609       135       212         1         0         0         0
@Sumon_Early_CPLX_L1D        12        18        43        55        96       163        46       513      7749        28        14         0
@Sumon_Late_stream_L1D       614       182        91       155       979         2
@Sumon_Late_CS_L1D         2         4         1         1         6         0
@Sumon_Late_CPLX_L1D         1         0         0         0         0         0
@sumon_overall_L2C     26174       657         0    880899    906884   4533005   4913874
@Sumon_Early_by_class_L2C     26009       161         4         0
@Sumon_Late_by_class_L2C       451         5         0         0

@Sumon_Early_by_cycle_L2C        78        60        87        82       301      9720     15618        66        63        92         0         7
@Sumon_Late_by_cycle_L2C        74        83        40        82       376         2
@Sumon_Early_stream_L2C        77        59        75        74       272      9611     15617        66        59        92         0         7
@Sumon_Early_CS_L2C         1         1        12         8        29       109         1         0         0         0         0         0
@Sumon_Early_CPLX_L2C         0         0         0         0         0         0         0         0         4         0         0         0
@Sumon_Late_stream_L2C         0         9        40        81       319         2
@Sumon_Late_CS_L2C         0         0         0         1         4         0
@Sumon_Late_CPLX_L2C         0         0         0         0         0         0
DRAM PAGES: 1048576
Allocated PAGES: 28543
