
*** ChampSim Multicore Out-of-Order Simulator ***

Warmup Instructions: 50000000
Simulation Instructions: 50000000
Number of CPUs: 1
LLC sets: 2048
LLC ways: 16
Off-chip DRAM Size: 4096 MB Channels: 1 Width: 64-bit Data Rate: 6400 MT/s
CPU 0 runs ../../biswa/SPEC2017Traces/607.cactuBSSN_s-4004B.champsimtrace.xz
.xz
CPU 0 Bimodal branch predictor
BTB has LRU replacement policy
ITLB has LRU replacement policy
DTLB has LRU replacement policy
STLB has LRU replacement policy
L1I has LRU replacement policy
IP Table Entries: 256
L1D has LRU replacement policy
IP_Table L2 entries: 256
Initialize DRRIP state for L2C
Initialize DRRIP state for LLC
epoch: 1000
next table: 29561
cur table: 58747
epoch: 1000
next table: 25212
cur table: 29561
epoch: 1000
next table: 26068
cur table: 25212
epoch: 1000
next table: 25398
cur table: 26068
epoch: 1000
next table: 22976
cur table: 25398
epoch: 1000
next table: 15283
cur table: 22976
epoch: 1000
next table: 22757
cur table: 15283
epoch: 1000
next table: 22058
cur table: 22757
epoch: 1000
next table: 19316
cur table: 22058
epoch: 1000
next table: 22413
cur table: 19316
epoch: 1000
next table: 19514
cur table: 22413
epoch: 1000
next table: 20682
cur table: 19514
epoch: 1000
next table: 22715
cur table: 20682
epoch: 1000
next table: 24229
cur table: 22715
epoch: 1000
next table: 16783
cur table: 24229
epoch: 1000
next table: 22981
cur table: 16783
epoch: 1000
next table: 23397
cur table: 22981
epoch: 1000
next table: 22217
cur table: 23397
epoch: 1000
next table: 22052
cur table: 22217
epoch: 1000
next table: 20030
cur table: 22052
epoch: 1000
next table: 16674
cur table: 20030
epoch: 1000
next table: 21038
cur table: 16674
epoch: 1000
next table: 22195
cur table: 21038
epoch: 1000
next table: 16159
cur table: 22195
epoch: 1000
next table: 20069
cur table: 16159
epoch: 1000
next table: 19936
cur table: 20069
epoch: 1000
next table: 21312
cur table: 19936
epoch: 1000
next table: 21038
cur table: 21312
epoch: 1000
next table: 15688
cur table: 21038
epoch: 1000
next table: 22380
cur table: 15688
epoch: 1000
next table: 21948
cur table: 22380
epoch: 1000
next table: 21695
cur table: 21948
epoch: 1000
next table: 20693
cur table: 21695
epoch: 1000
next table: 17750
cur table: 20693
epoch: 1000
next table: 20735
cur table: 17750
epoch: 1000
next table: 22959
cur table: 20735
epoch: 1000
next table: 24556
cur table: 22959
epoch: 1000
next table: 18531
cur table: 24556
epoch: 1000
next table: 22730
cur table: 18531
epoch: 1000
next table: 26438
cur table: 22730
epoch: 1000
next table: 25145
cur table: 26438
epoch: 1000
next table: 21966
cur table: 25145
epoch: 1000
next table: 23421
cur table: 21966
epoch: 1000
next table: 25708
cur table: 23421
epoch: 1000
next table: 24189
cur table: 25708
Heartbeat CPU 0 instructions: 10000001 cycles: 3596281 heartbeat IPC: 2.78065 cumulative IPC: 2.78065 (Simulation time: 0 hr 4 min 23 sec) 
epoch: 1000
next table: 3107
cur table: 19008
epoch: 1000
next table: 20016
cur table: 24189
epoch: 1000
next table: 23671
cur table: 20016
epoch: 1000
next table: 25868
cur table: 23671
epoch: 1000
next table: 2235
cur table: 3107
epoch: 1000
next table: 23230
cur table: 25868
epoch: 1000
next table: 19886
cur table: 23230
epoch: 1000
next table: 21116
cur table: 19886
epoch: 1000
next table: 1883
cur table: 2235
epoch: 1000
next table: 23585
cur table: 21116
epoch: 1000
next table: 21245
cur table: 23585
epoch: 1000
next table: 1660
cur table: 1883
epoch: 1000
next table: 20645
cur table: 21245
epoch: 1000
next table: 15411
cur table: 20645
epoch: 1000
next table: 1797
cur table: 1660
epoch: 1000
next table: 18537
cur table: 15411
epoch: 1000
next table: 20718
cur table: 18537
epoch: 1000
next table: 1690
cur table: 1797
epoch: 1000
next table: 20707
cur table: 20718
epoch: 1000
next table: 18729
cur table: 20707
epoch: 1000
next table: 1689
cur table: 1690
epoch: 1000
next table: 18153
cur table: 18729
epoch: 1000
next table: 17416
cur table: 18153
epoch: 1000
next table: 1776
cur table: 1689
epoch: 1000
next table: 19727
cur table: 17416
epoch: 1000
next table: 19717
cur table: 19727
epoch: 1000
next table: 1750
cur table: 1776
epoch: 1000
next table: 19215
cur table: 19717
epoch: 1000
next table: 15608
cur table: 19215
epoch: 1000
next table: 20517
cur table: 15608
epoch: 1000
next table: 1770
cur table: 1750
epoch: 1000
next table: 21678
cur table: 20517
epoch: 1000
next table: 20659
cur table: 21678
epoch: 1000
next table: 1637
cur table: 1770
epoch: 1000
next table: 19007
cur table: 20659
epoch: 1000
next table: 15672
cur table: 19007
epoch: 1000
next table: 1732
cur table: 1637
epoch: 1000
next table: 21194
cur table: 15672
epoch: 1000
next table: 19637
cur table: 21194
epoch: 1000
next table: 1665
cur table: 1732
epoch: 1000
next table: 18939
cur table: 19637
epoch: 1000
next table: 18380
cur table: 18939
epoch: 1000
next table: 1725
cur table: 1665
epoch: 1000
next table: 16064
cur table: 18380
epoch: 1000
next table: 17483
cur table: 16064
epoch: 1000
next table: 1831
cur table: 1725
epoch: 1000
next table: 18476
cur table: 17483
epoch: 1000
next table: 18555
cur table: 18476
epoch: 1000
next table: 1718
cur table: 1831
epoch: 1000
next table: 19109
cur table: 18555
epoch: 1000
next table: 18264
cur table: 19109
epoch: 1000
next table: 16907
cur table: 18264
epoch: 1000
next table: 1796
cur table: 1718
epoch: 1000
next table: 19754
cur table: 16907
epoch: 1000
next table: 19740
cur table: 19754
epoch: 1000
next table: 1641
cur table: 1796
epoch: 1000
next table: 19252
cur table: 19740
epoch: 1000
next table: 19595
cur table: 19252
epoch: 1000
next table: 1738
cur table: 1641
epoch: 1000
next table: 16384
cur table: 19595
epoch: 1000
next table: 19972
cur table: 16384
epoch: 1000
next table: 1627
cur table: 1738
epoch: 1000
next table: 18659
cur table: 19972
epoch: 1000
next table: 21378
cur table: 18659
epoch: 1000
next table: 1672
cur table: 1627
epoch: 1000
next table: 19810
cur table: 21378
epoch: 1000
next table: 15146
cur table: 19810
epoch: 1000
next table: 1804
cur table: 1672
epoch: 1000
next table: 16413
cur table: 15146
epoch: 1000
next table: 20391
cur table: 16413
epoch: 1000
next table: 1684
cur table: 1804
epoch: 1000
next table: 19698
cur table: 20391
epoch: 1000
next table: 19355
cur table: 19698
epoch: 1000
next table: 1735
cur table: 1684
epoch: 1000
next table: 16669
cur table: 19355
epoch: 1000
next table: 19789
cur table: 16669
epoch: 1000
next table: 1675
cur table: 1735
epoch: 1000
next table: 21317
cur table: 19789
epoch: 1000
next table: 20019
cur table: 21317
Heartbeat CPU 0 instructions: 20000001 cycles: 7192701 heartbeat IPC: 2.78054 cumulative IPC: 2.7806 (Simulation time: 0 hr 8 min 48 sec) 
epoch: 1000
next table: 1665
cur table: 1675
epoch: 1000
next table: 19101
cur table: 20019
epoch: 1000
next table: 18638
cur table: 19101
epoch: 1000
next table: 1652
cur table: 1665
epoch: 1000
next table: 19449
cur table: 18638
epoch: 1000
next table: 22292
cur table: 19449
epoch: 1000
next table: 1643
cur table: 1652
epoch: 1000
next table: 21948
cur table: 22292
epoch: 1000
next table: 19400
cur table: 21948
epoch: 1000
next table: 1671
cur table: 1643
epoch: 1000
next table: 15933
cur table: 19400
epoch: 1000
next table: 22546
cur table: 15933
epoch: 1000
next table: 1716
cur table: 1671
epoch: 1000
next table: 20847
cur table: 22546
epoch: 1000
next table: 22576
cur table: 20847
epoch: 1000
next table: 1603
cur table: 1716
epoch: 1000
next table: 19853
cur table: 22576
epoch: 1000
next table: 22781
cur table: 19853
epoch: 1000
next table: 1632
cur table: 1603
epoch: 1000
next table: 25233
cur table: 22781
epoch: 1000
next table: 1583
cur table: 1632
epoch: 1000
next table: 22765
cur table: 25233
epoch: 1000
next table: 18775
cur table: 22765
epoch: 1000
next table: 1640
cur table: 1583
epoch: 1000
next table: 22924
cur table: 18775
epoch: 1000
next table: 22821
cur table: 22924
epoch: 1000
next table: 1574
cur table: 1640
epoch: 1000
next table: 23949
cur table: 22821
epoch: 1000
next table: 23200
cur table: 23949
epoch: 1000
next table: 1587
cur table: 1574
epoch: 1000
next table: 17484
cur table: 23200
epoch: 1000
next table: 24732
cur table: 17484
epoch: 1000
next table: 1698
cur table: 1587
epoch: 1000
next table: 22135
cur table: 24732
epoch: 1000
next table: 1669
cur table: 1698
epoch: 1000
next table: 23825
cur table: 22135
epoch: 1000
next table: 18673
cur table: 23825
epoch: 1000
next table: 1643
cur table: 1669
epoch: 1000
next table: 24225
cur table: 18673
epoch: 1000
next table: 23308
cur table: 24225
epoch: 1000
next table: 1615
cur table: 1643
epoch: 1000
next table: 24615
cur table: 23308
epoch: 1000
next table: 1670
cur table: 1615
epoch: 1000
next table: 20678
cur table: 24615
epoch: 1000
next table: 24368
cur table: 20678
epoch: 1000
next table: 1601
cur table: 1670
epoch: 1000
next table: 26138
cur table: 24368
epoch: 1000
next table: 23939
cur table: 26138
epoch: 1000
next table: 1629
cur table: 1601
epoch: 1000
next table: 19633
cur table: 23939
epoch: 1000
next table: 22686
cur table: 19633
epoch: 1000
next table: 1741
cur table: 1629
epoch: 1000
next table: 21009
cur table: 22686
epoch: 1000
next table: 1716
cur table: 1741
epoch: 1000
next table: 22651
cur table: 21009
epoch: 1000
next table: 22355
cur table: 22651
epoch: 1000
next table: 1705
cur table: 1716
epoch: 1000
next table: 18343
cur table: 22355
epoch: 1000
next table: 21477
cur table: 18343
epoch: 1000
next table: 1653
cur table: 1705
epoch: 1000
next table: 20351
cur table: 21477
epoch: 1000
next table: 22483
cur table: 20351
epoch: 1000
next table: 1658
cur table: 1653
epoch: 1000
next table: 16095
cur table: 22483
epoch: 1000
next table: 20452
cur table: 16095
epoch: 1000
next table: 1687
cur table: 1658
epoch: 1000
next table: 20334
cur table: 20452
epoch: 1000
next table: 20428
cur table: 20334
epoch: 1000
next table: 1732
cur table: 1687
epoch: 1000
next table: 19895
cur table: 20428
epoch: 1000
next table: 16360
cur table: 19895
epoch: 1000
next table: 1773
cur table: 1732
epoch: 1000
next table: 18562
cur table: 16360
epoch: 1000
next table: 18864
cur table: 18562
epoch: 1000
next table: 1730
cur table: 1773
epoch: 1000
next table: 22278
cur table: 18864
Heartbeat CPU 0 instructions: 30000003 cycles: 10788792 heartbeat IPC: 2.7808 cumulative IPC: 2.78066 (Simulation time: 0 hr 13 min 11 sec) 
epoch: 1000
next table: 18745
cur table: 22278
epoch: 1000
next table: 1767
cur table: 1730
epoch: 1000
next table: 15564
cur table: 18745
epoch: 1000
next table: 20653
cur table: 15564
epoch: 1000
next table: 1666
cur table: 1767
epoch: 1000
next table: 21152
cur table: 20653
epoch: 1000
next table: 21504
cur table: 21152
epoch: 1000
next table: 1677
cur table: 1666
epoch: 1000
next table: 19866
cur table: 21504
epoch: 1000
next table: 15704
cur table: 19866
epoch: 1000
next table: 1699
cur table: 1677
epoch: 1000
next table: 21778
cur table: 15704
epoch: 1000
next table: 19056
cur table: 21778
epoch: 1000
next table: 1683
cur table: 1699
epoch: 1000
next table: 19719
cur table: 19056
epoch: 1000
next table: 21777
cur table: 19719
epoch: 1000
next table: 13237
cur table: 21777
epoch: 1000
next table: 1815
cur table: 1683
epoch: 1000
next table: 20328
cur table: 13237
epoch: 1000
next table: 19101
cur table: 20328
epoch: 1000
next table: 1684
cur table: 1815
epoch: 1000
next table: 21095
cur table: 19101
epoch: 1000
next table: 19941
cur table: 21095
epoch: 1000
next table: 1680
cur table: 1684
epoch: 1000
next table: 15509
cur table: 19941
epoch: 1000
next table: 21641
cur table: 15509
epoch: 1000
next table: 1683
cur table: 1680
epoch: 1000
next table: 20589
cur table: 21641
epoch: 1000
next table: 20716
cur table: 20589
epoch: 1000
next table: 1667
cur table: 1683
epoch: 1000
next table: 20128
cur table: 20716
epoch: 1000
next table: 15919
cur table: 20128
epoch: 1000
next table: 1638
cur table: 1667
epoch: 1000
next table: 20874
cur table: 15919
epoch: 1000
next table: 19973
cur table: 20874
epoch: 1000
next table: 1640
cur table: 1638
epoch: 1000
next table: 21123
cur table: 19973
epoch: 1000
next table: 20237
cur table: 21123
epoch: 1000
next table: 1657
cur table: 1640
epoch: 1000
next table: 15305
cur table: 20237
epoch: 1000
next table: 21583
cur table: 15305
epoch: 1000
next table: 1811
cur table: 1657
epoch: 1000
next table: 19879
cur table: 21583
epoch: 1000
next table: 22809
cur table: 19879
epoch: 1000
next table: 1645
cur table: 1811
epoch: 1000
next table: 21943
cur table: 22809
epoch: 1000
next table: 1676
cur table: 1645
epoch: 1000
next table: 19270
cur table: 21943
epoch: 1000
next table: 24084
cur table: 19270
epoch: 1000
next table: 1630
cur table: 1676
epoch: 1000
next table: 22820
cur table: 24084
epoch: 1000
next table: 23415
cur table: 22820
epoch: 1000
next table: 1605
cur table: 1630
epoch: 1000
next table: 20060
cur table: 23415
epoch: 1000
next table: 25523
cur table: 20060
epoch: 1000
next table: 1632
cur table: 1605
epoch: 1000
next table: 24128
cur table: 25523
epoch: 1000
next table: 1593
cur table: 1632
epoch: 1000
next table: 27075
cur table: 24128
epoch: 1000
next table: 19474
cur table: 27075
epoch: 1000
next table: 1653
cur table: 1593
epoch: 1000
next table: 23383
cur table: 19474
epoch: 1000
next table: 1608
cur table: 1653
epoch: 1000
next table: 26566
cur table: 23383
epoch: 1000
next table: 25401
cur table: 26566
epoch: 1000
next table: 1639
cur table: 1608
epoch: 1000
next table: 21681
cur table: 25401
epoch: 1000
next table: 26327
cur table: 21681
epoch: 1000
next table: 1566
cur table: 1639
epoch: 1000
next table: 24413
cur table: 26327
epoch: 1000
next table: 1618
cur table: 1566
epoch: 1000
next table: 26241
cur table: 24413
epoch: 1000
next table: 20751
cur table: 26241
epoch: 1000
next table: 1640
cur table: 1618
epoch: 1000
next table: 23716
cur table: 20751
Heartbeat CPU 0 instructions: 40000000 cycles: 14385738 heartbeat IPC: 2.78014 cumulative IPC: 2.78053 (Simulation time: 0 hr 17 min 24 sec) 
epoch: 1000
next table: 23048
cur table: 23716
epoch: 1000
next table: 1636
cur table: 1640
epoch: 1000
next table: 25777
cur table: 23048
epoch: 1000
next table: 1716
cur table: 1636
epoch: 1000
next table: 18790
cur table: 25777
epoch: 1000
next table: 23929
cur table: 18790
epoch: 1000
next table: 1676
cur table: 1716
epoch: 1000
next table: 23041
cur table: 23929
epoch: 1000
next table: 26928
cur table: 23041
epoch: 1000
next table: 1679
cur table: 1676
epoch: 1000
next table: 20509
cur table: 26928
epoch: 1000
next table: 1566
cur table: 1679
epoch: 1000
next table: 26881
cur table: 20509
epoch: 1000
next table: 23187
cur table: 26881
epoch: 1000
next table: 1571
cur table: 1566
epoch: 1000
next table: 26686
cur table: 23187
epoch: 1000
next table: 20057
cur table: 26686
epoch: 1000
next table: 1586
cur table: 1571
epoch: 1000
next table: 25078
cur table: 20057
epoch: 1000
next table: 1575
cur table: 1586
epoch: 1000
next table: 24767
cur table: 25078
epoch: 1000
next table: 23224
cur table: 24767
epoch: 1000
next table: 1650
cur table: 1575
epoch: 1000
next table: 16886
cur table: 23224
epoch: 1000
next table: 22365
cur table: 16886
epoch: 1000
next table: 1610
cur table: 1650
epoch: 1000
next table: 25782
cur table: 22365
epoch: 1000
next table: 23225
cur table: 25782
epoch: 1000
next table: 1606
cur table: 1610
epoch: 1000
next table: 19540
cur table: 23225
epoch: 1000
next table: 1673
cur table: 1606
epoch: 1000
next table: 23195
cur table: 19540
epoch: 1000
next table: 24925
cur table: 23195
epoch: 1000
next table: 1570
cur table: 1673
epoch: 1000
next table: 25343
cur table: 24925
epoch: 1000
next table: 21671
cur table: 25343
epoch: 1000
next table: 1558
cur table: 1570
epoch: 1000
next table: 25033
cur table: 21671
epoch: 1000
next table: 1566
cur table: 1558
epoch: 1000
next table: 23120
cur table: 25033
epoch: 1000
next table: 26921
cur table: 23120
epoch: 1000
next table: 1667
cur table: 1566
epoch: 1000
next table: 16151
cur table: 26921
epoch: 1000
next table: 23304
cur table: 16151
epoch: 1000
next table: 1706
cur table: 1667
epoch: 1000
next table: 22886
cur table: 23304
epoch: 1000
next table: 1687
cur table: 1706
epoch: 1000
next table: 22137
cur table: 22886
epoch: 1000
next table: 21438
cur table: 22137
epoch: 1000
next table: 1722
cur table: 1687
epoch: 1000
next table: 18432
cur table: 21438
epoch: 1000
next table: 21269
cur table: 18432
epoch: 1000
next table: 1648
cur table: 1722
epoch: 1000
next table: 21401
cur table: 21269
epoch: 1000
next table: 20144
cur table: 21401
epoch: 1000
next table: 1643
cur table: 1648
epoch: 1000
next table: 18754
cur table: 20144
epoch: 1000
next table: 19820
cur table: 18754
epoch: 1000
next table: 1649
cur table: 1643
epoch: 1000
next table: 22181
cur table: 19820
epoch: 1000
next table: 22674
cur table: 22181
epoch: 1000
next table: 1632
cur table: 1649
epoch: 1000
next table: 18772
cur table: 22674
epoch: 1000
next table: 17447
cur table: 18772
epoch: 1000
next table: 1727
cur table: 1632
epoch: 1000
next table: 21158
cur table: 17447
epoch: 1000
next table: 22400
cur table: 21158
epoch: 1000
next table: 1639
cur table: 1727
epoch: 1000
next table: 21845
cur table: 22400
epoch: 1000
next table: 19798
cur table: 21845
epoch: 1000
next table: 1669
cur table: 1639
epoch: 1000
next table: 19293
cur table: 19798
epoch: 1000
next table: 22005
cur table: 19293
epoch: 1000
next table: 1584
cur table: 1669
epoch: 1000
next table: 19730
cur table: 22005
Heartbeat CPU 0 instructions: 50000002 cycles: 17981025 heartbeat IPC: 2.78142 cumulative IPC: 2.78071 (Simulation time: 0 hr 21 min 19 sec) 

Warmup complete CPU 0 instructions: 50000002 cycles: 17981025 (Simulation time: 0 hr 21 min 19 sec) 

epoch: 1000
next table: 19247
cur table: 21333
epoch: 1000
next table: 20913
cur table: 19247
epoch: 1000
next table: 1643
cur table: 1621
epoch: 1000
next table: 20713
cur table: 20913
epoch: 1000
next table: 22000
cur table: 20713
epoch: 1000
next table: 1600
cur table: 1643
epoch: 1000
next table: 19868
cur table: 22000
epoch: 1000
next table: 17929
cur table: 19868
epoch: 1000
next table: 1775
cur table: 1600
epoch: 1000
next table: 19973
cur table: 17929
epoch: 1000
next table: 22675
cur table: 19973
epoch: 1000
next table: 1653
cur table: 1775
epoch: 1000
next table: 22210
cur table: 22675
epoch: 1000
next table: 18889
cur table: 22210
epoch: 1000
next table: 1696
cur table: 1653
epoch: 1000
next table: 20196
cur table: 18889
epoch: 1000
next table: 22803
cur table: 20196
epoch: 1000
next table: 1653
cur table: 1696
epoch: 1000
next table: 19683
cur table: 22803
epoch: 1000
next table: 21843
cur table: 19683
epoch: 1000
next table: 1631
cur table: 1653
epoch: 1000
next table: 17366
cur table: 21843
epoch: 1000
next table: 20700
cur table: 17366
epoch: 1000
next table: 1683
cur table: 1631
epoch: 1000
next table: 19077
cur table: 20700
epoch: 1000
next table: 21821
cur table: 19077
epoch: 1000
next table: 1683
cur table: 1683
epoch: 1000
next table: 19082
cur table: 21821
epoch: 1000
next table: 15422
cur table: 19082
epoch: 1000
next table: 1828
cur table: 1683
epoch: 1000
next table: 21458
cur table: 15422
epoch: 1000
next table: 19832
cur table: 21458
epoch: 1000
next table: 1694
cur table: 1828
epoch: 1000
next table: 20761
cur table: 19832
epoch: 1000
next table: 20555
cur table: 20761
epoch: 1000
next table: 1671
cur table: 1694
epoch: 1000
next table: 17406
cur table: 20555
epoch: 1000
next table: 21269
cur table: 17406
epoch: 1000
next table: 1647
cur table: 1671
epoch: 1000
next table: 21308
cur table: 21269
epoch: 1000
next table: 19795
cur table: 21308
epoch: 1000
next table: 1683
cur table: 1647
epoch: 1000
next table: 19164
cur table: 19795
epoch: 1000
next table: 17724
cur table: 19164
epoch: 1000
next table: 1665
cur table: 1683
epoch: 1000
next table: 20058
cur table: 17724
epoch: 1000
next table: 20452
cur table: 20058
epoch: 1000
next table: 1617
cur table: 1665
epoch: 1000
next table: 20972
cur table: 20452
epoch: 1000
next table: 18658
cur table: 20972
epoch: 1000
next table: 1757
cur table: 1617
epoch: 1000
next table: 15227
cur table: 18658
epoch: 1000
next table: 22511
cur table: 15227
epoch: 1000
next table: 1668
cur table: 1757
epoch: 1000
next table: 19622
cur table: 22511
epoch: 1000
next table: 21829
cur table: 19622
epoch: 1000
next table: 1701
cur table: 1668
epoch: 1000
next table: 18428
cur table: 21829
epoch: 1000
next table: 20074
cur table: 18428
epoch: 1000
next table: 1655
cur table: 1701
epoch: 1000
next table: 22546
cur table: 20074
epoch: 1000
next table: 19425
cur table: 22546
epoch: 1000
next table: 1671
cur table: 1655
epoch: 1000
next table: 22490
cur table: 19425
epoch: 1000
next table: 18325
cur table: 22490
epoch: 1000
next table: 1644
cur table: 1671
epoch: 1000
next table: 19948
cur table: 18325
epoch: 1000
next table: 21327
cur table: 19948
epoch: 1000
next table: 1664
cur table: 1644
epoch: 1000
next table: 20263
cur table: 21327
epoch: 1000
next table: 19242
cur table: 20263
epoch: 1000
next table: 1719
cur table: 1664
epoch: 1000
next table: 16036
cur table: 19242
epoch: 1000
next table: 20777
cur table: 16036
epoch: 1000
next table: 1776
cur table: 1719
epoch: 1000
next table: 22817
cur table: 20777
Heartbeat CPU 0 instructions: 60000002 cycles: 28904437 heartbeat IPC: 0.915465 cumulative IPC: 0.915465 (Simulation time: 0 hr 24 min 3 sec) 
epoch: 1000
next table: 1669
cur table: 1776
epoch: 1000
next table: 23072
cur table: 22817
epoch: 1000
next table: 20386
cur table: 23072
epoch: 1000
next table: 1646
cur table: 1669
epoch: 1000
next table: 24430
cur table: 20386
epoch: 1000
next table: 25190
cur table: 24430
epoch: 1000
next table: 1573
cur table: 1646
epoch: 1000
next table: 23385
cur table: 25190
epoch: 1000
next table: 1586
cur table: 1573
epoch: 1000
next table: 23164
cur table: 23385
epoch: 1000
next table: 23599
cur table: 23164
epoch: 1000
next table: 1588
cur table: 1586
epoch: 1000
next table: 25033
cur table: 23599
epoch: 1000
next table: 25100
cur table: 25033
epoch: 1000
next table: 1656
cur table: 1588
epoch: 1000
next table: 20170
cur table: 25100
epoch: 1000
next table: 1664
cur table: 1656
epoch: 1000
next table: 22538
cur table: 20170
epoch: 1000
next table: 24849
cur table: 22538
epoch: 1000
next table: 1571
cur table: 1664
epoch: 1000
next table: 25163
cur table: 24849
epoch: 1000
next table: 22296
cur table: 25163
epoch: 1000
next table: 1633
cur table: 1571
epoch: 1000
next table: 21684
cur table: 22296
epoch: 1000
next table: 25789
cur table: 21684
epoch: 1000
next table: 1586
cur table: 1633
epoch: 1000
next table: 23413
cur table: 25789
epoch: 1000
next table: 1555
cur table: 1586
epoch: 1000
next table: 22980
cur table: 23413
epoch: 1000
next table: 19616
cur table: 22980
epoch: 1000
next table: 1643
cur table: 1555
epoch: 1000
next table: 22755
cur table: 19616
epoch: 1000
next table: 24857
cur table: 22755
epoch: 1000
next table: 1580
cur table: 1643
epoch: 1000
next table: 20894
cur table: 24857
epoch: 1000
next table: 19420
cur table: 20894
epoch: 1000
next table: 1764
cur table: 1580
epoch: 1000
next table: 22975
cur table: 19420
epoch: 1000
next table: 1586
cur table: 1764
epoch: 1000
next table: 22909
cur table: 22975
epoch: 1000
next table: 21623
cur table: 22909
epoch: 1000
next table: 1614
cur table: 1586
epoch: 1000
next table: 19619
cur table: 21623
epoch: 1000
next table: 21320
cur table: 19619
epoch: 1000
next table: 1644
cur table: 1614
epoch: 1000
next table: 21526
cur table: 21320
epoch: 1000
next table: 21436
cur table: 21526
epoch: 1000
next table: 1623
cur table: 1644
epoch: 1000
next table: 22449
cur table: 21436
epoch: 1000
next table: 17348
cur table: 22449
epoch: 1000
next table: 1647
cur table: 1623
epoch: 1000
next table: 21822
cur table: 17348
epoch: 1000
next table: 22010
cur table: 21822
epoch: 1000
next table: 1599
cur table: 1647
epoch: 1000
next table: 19447
cur table: 22010
epoch: 1000
next table: 19812
cur table: 19447
epoch: 1000
next table: 1764
cur table: 1599
epoch: 1000
next table: 16401
cur table: 19812
epoch: 1000
next table: 21319
cur table: 16401
epoch: 1000
next table: 1715
cur table: 1764
epoch: 1000
next table: 19147
cur table: 21319
epoch: 1000
next table: 20355
cur table: 19147
epoch: 1000
next table: 1651
cur table: 1715
epoch: 1000
next table: 20064
cur table: 20355
epoch: 1000
next table: 16513
cur table: 20064
epoch: 1000
next table: 1673
cur table: 1651
epoch: 1000
next table: 21132
cur table: 16513
epoch: 1000
next table: 20033
cur table: 21132
epoch: 1000
next table: 1641
cur table: 1673
epoch: 1000
next table: 20435
cur table: 20033
epoch: 1000
next table: 18261
cur table: 20435
epoch: 1000
next table: 1665
cur table: 1641
epoch: 1000
next table: 18253
cur table: 18261
epoch: 1000
next table: 20431
cur table: 18253
epoch: 1000
next table: 1647
cur table: 1665
Heartbeat CPU 0 instructions: 70000003 cycles: 39807622 heartbeat IPC: 0.917163 cumulative IPC: 0.916313 (Simulation time: 0 hr 26 min 33 sec) 
epoch: 1000
next table: 21089
cur table: 20431
epoch: 1000
next table: 20381
cur table: 21089
epoch: 1000
next table: 1686
cur table: 1647
epoch: 1000
next table: 17367
cur table: 20381
epoch: 1000
next table: 20788
cur table: 17367
epoch: 1000
next table: 1668
cur table: 1686
epoch: 1000
next table: 21516
cur table: 20788
epoch: 1000
next table: 22827
cur table: 21516
epoch: 1000
next table: 1677
cur table: 1668
epoch: 1000
next table: 24350
cur table: 22827
epoch: 1000
next table: 1595
cur table: 1677
epoch: 1000
next table: 20976
cur table: 24350
epoch: 1000
next table: 24020
cur table: 20976
epoch: 1000
next table: 1575
cur table: 1595
epoch: 1000
next table: 23866
cur table: 24020
epoch: 1000
next table: 25214
cur table: 23866
epoch: 1000
next table: 1555
cur table: 1575
epoch: 1000
next table: 20692
cur table: 25214
epoch: 1000
next table: 22036
cur table: 20692
epoch: 1000
next table: 1616
cur table: 1555
epoch: 1000
next table: 24050
cur table: 22036
epoch: 1000
next table: 1640
cur table: 1616
epoch: 1000
next table: 21633
cur table: 24050
epoch: 1000
next table: 16846
cur table: 21633
epoch: 1000
next table: 1670
cur table: 1640
epoch: 1000
next table: 23114
cur table: 16846
epoch: 1000
next table: 22599
cur table: 23114
epoch: 1000
next table: 1631
cur table: 1670
epoch: 1000
next table: 22887
cur table: 22599
epoch: 1000
next table: 21862
cur table: 22887
epoch: 1000
next table: 1661
cur table: 1631
epoch: 1000
next table: 18416
cur table: 21862
epoch: 1000
next table: 21032
cur table: 18416
epoch: 1000
next table: 1685
cur table: 1661
epoch: 1000
next table: 22466
cur table: 21032
epoch: 1000
next table: 21833
cur table: 22466
epoch: 1000
next table: 1633
cur table: 1685
epoch: 1000
next table: 15404
cur table: 21833
epoch: 1000
next table: 19891
cur table: 15404
epoch: 1000
next table: 1709
cur table: 1633
epoch: 1000
next table: 22454
cur table: 19891
epoch: 1000
next table: 18890
cur table: 22454
epoch: 1000
next table: 1757
cur table: 1709
epoch: 1000
next table: 20404
cur table: 18890
epoch: 1000
next table: 16335
cur table: 20404
epoch: 1000
next table: 1708
cur table: 1757
epoch: 1000
next table: 21750
cur table: 16335
epoch: 1000
next table: 1608
cur table: 1708
epoch: 1000
next table: 21959
cur table: 21750
epoch: 1000
next table: 21844
cur table: 21959
epoch: 1000
next table: 1655
cur table: 1608
epoch: 1000
next table: 23024
cur table: 21844
epoch: 1000
next table: 19864
cur table: 23024
epoch: 1000
next table: 1615
cur table: 1655
epoch: 1000
next table: 24680
cur table: 19864
epoch: 1000
next table: 25148
cur table: 24680
epoch: 1000
next table: 1551
cur table: 1615
epoch: 1000
next table: 23605
cur table: 25148
epoch: 1000
next table: 1584
cur table: 1551
epoch: 1000
next table: 23299
cur table: 23605
epoch: 1000
next table: 27354
cur table: 23299
epoch: 1000
next table: 1540
cur table: 1584
epoch: 1000
next table: 23077
cur table: 27354
epoch: 1000
next table: 24160
cur table: 23077
epoch: 1000
next table: 1687
cur table: 1540
epoch: 1000
next table: 4140
cur table: 24160
epoch: 1000
next table: 1660
cur table: 1687
epoch: 1000
next table: 12543
cur table: 4140
epoch: 1000
next table: 1271
cur table: 1660
epoch: 1000
next table: 12447
cur table: 12543
epoch: 1000
next table: 1338
cur table: 1271
epoch: 1000
next table: 13241
cur table: 12447
epoch: 1000
next table: 1267
cur table: 1338
epoch: 1000
next table: 13638
cur table: 13241
epoch: 1000
next table: 1327
cur table: 1267
epoch: 1000
next table: 11516
cur table: 13638
epoch: 1000
next table: 1275
cur table: 1327
epoch: 1000
next table: 13224
cur table: 11516
epoch: 1000
next table: 1289
cur table: 1275
epoch: 1000
next table: 12481
cur table: 13224
epoch: 1000
next table: 18003
cur table: 12481
epoch: 1000
next table: 1526
cur table: 1289
epoch: 1000
next table: 26892
cur table: 18003
Heartbeat CPU 0 instructions: 80000002 cycles: 50832312 heartbeat IPC: 0.907055 cumulative IPC: 0.913206 (Simulation time: 0 hr 28 min 38 sec) 
epoch: 1000
next table: 1607
cur table: 1526
epoch: 1000
next table: 26366
cur table: 26892
epoch: 1000
next table: 25901
cur table: 26366
epoch: 1000
next table: 1588
cur table: 1607
epoch: 1000
next table: 20721
cur table: 25901
epoch: 1000
next table: 1602
cur table: 1588
epoch: 1000
next table: 24787
cur table: 20721
epoch: 1000
next table: 26112
cur table: 24787
epoch: 1000
next table: 1616
cur table: 1602
epoch: 1000
next table: 23640
cur table: 26112
epoch: 1000
next table: 22537
cur table: 23640
epoch: 1000
next table: 1613
cur table: 1616
epoch: 1000
next table: 24251
cur table: 22537
epoch: 1000
next table: 1632
cur table: 1613
epoch: 1000
next table: 26085
cur table: 24251
epoch: 1000
next table: 24418
cur table: 26085
epoch: 1000
next table: 1573
cur table: 1632
epoch: 1000
next table: 22608
cur table: 24418
epoch: 1000
next table: 1598
cur table: 1573
epoch: 1000
next table: 24609
cur table: 22608
epoch: 1000
next table: 26986
cur table: 24609
epoch: 1000
next table: 1562
cur table: 1598
epoch: 1000
next table: 22509
cur table: 26986
epoch: 1000
next table: 22830
cur table: 22509
epoch: 1000
next table: 1610
cur table: 1562
epoch: 1000
next table: 24302
cur table: 22830
epoch: 1000
next table: 1655
cur table: 1610
epoch: 1000
next table: 22721
cur table: 24302
epoch: 1000
next table: 23096
cur table: 22721
epoch: 1000
next table: 1652
cur table: 1655
epoch: 1000
next table: 18744
cur table: 23096
epoch: 1000
next table: 22539
cur table: 18744
epoch: 1000
next table: 1655
cur table: 1652
epoch: 1000
next table: 22852
cur table: 22539
epoch: 1000
next table: 23909
cur table: 22852
epoch: 1000
next table: 1582
cur table: 1655
epoch: 1000
next table: 17954
cur table: 23909
epoch: 1000
next table: 20830
cur table: 17954
epoch: 1000
next table: 1674
cur table: 1582
epoch: 1000
next table: 22743
cur table: 20830
epoch: 1000
next table: 1601
cur table: 1674
epoch: 1000
next table: 22583
cur table: 22743
epoch: 1000
next table: 19115
cur table: 22583
epoch: 1000
next table: 1670
cur table: 1601
epoch: 1000
next table: 19192
cur table: 19115
epoch: 1000
next table: 22886
cur table: 19192
epoch: 1000
next table: 1659
cur table: 1670
epoch: 1000
next table: 19099
cur table: 22886
epoch: 1000
next table: 22486
cur table: 19099
epoch: 1000
next table: 1641
cur table: 1659
epoch: 1000
next table: 18420
cur table: 22486
epoch: 1000
next table: 20059
cur table: 18420
epoch: 1000
next table: 1669
cur table: 1641
epoch: 1000
next table: 22690
cur table: 20059
epoch: 1000
next table: 22800
cur table: 22690
epoch: 1000
next table: 1637
cur table: 1669
epoch: 1000
next table: 23112
cur table: 22800
epoch: 1000
next table: 17342
cur table: 23112
epoch: 1000
next table: 1646
cur table: 1637
epoch: 1000
next table: 21298
cur table: 17342
epoch: 1000
next table: 22634
cur table: 21298
epoch: 1000
next table: 1598
cur table: 1646
epoch: 1000
next table: 20503
cur table: 22634
epoch: 1000
next table: 17616
cur table: 20503
epoch: 1000
next table: 1640
cur table: 1598
epoch: 1000
next table: 19257
cur table: 17616
epoch: 1000
next table: 1658
cur table: 1640
epoch: 1000
next table: 22229
cur table: 19257
epoch: 1000
next table: 18493
cur table: 22229
epoch: 1000
next table: 20583
cur table: 18493
epoch: 1000
next table: 1794
cur table: 1658
epoch: 1000
next table: 16526
cur table: 20583
epoch: 1000
next table: 19834
cur table: 16526
epoch: 1000
next table: 1700
cur table: 1794
Heartbeat CPU 0 instructions: 90000003 cycles: 61742564 heartbeat IPC: 0.916569 cumulative IPC: 0.914045 (Simulation time: 0 hr 30 min 44 sec) 
epoch: 1000
next table: 21279
cur table: 19834
epoch: 1000
next table: 19721
cur table: 21279
epoch: 1000
next table: 1695
cur table: 1700
epoch: 1000
next table: 19694
cur table: 19721
epoch: 1000
next table: 17571
cur table: 19694
epoch: 1000
next table: 1678
cur table: 1695
epoch: 1000
next table: 20005
cur table: 17571
epoch: 1000
next table: 21612
cur table: 20005
epoch: 1000
next table: 1649
cur table: 1678
epoch: 1000
next table: 19786
cur table: 21612
epoch: 1000
next table: 21467
cur table: 19786
epoch: 1000
next table: 1635
cur table: 1649
epoch: 1000
next table: 16472
cur table: 21467
epoch: 1000
next table: 21765
cur table: 16472
epoch: 1000
next table: 1655
cur table: 1635
epoch: 1000
next table: 19097
cur table: 21765
epoch: 1000
next table: 19175
cur table: 19097
epoch: 1000
next table: 1741
cur table: 1655
epoch: 1000
next table: 21601
cur table: 19175
epoch: 1000
next table: 16441
cur table: 21601
epoch: 1000
next table: 1744
cur table: 1741
epoch: 1000
next table: 18946
cur table: 16441
epoch: 1000
next table: 21568
cur table: 18946
epoch: 1000
next table: 1688
cur table: 1744
epoch: 1000
next table: 21709
cur table: 21568
epoch: 1000
next table: 20839
cur table: 21709
epoch: 1000
next table: 1618
cur table: 1688
epoch: 1000
next table: 15565
cur table: 20839
epoch: 1000
next table: 21759
cur table: 15565
epoch: 1000
next table: 1669
cur table: 1618
epoch: 1000
next table: 20085
cur table: 21759
epoch: 1000
next table: 21234
cur table: 20085
epoch: 1000
next table: 1637
cur table: 1669
epoch: 1000
next table: 19167
cur table: 21234
epoch: 1000
next table: 16497
cur table: 19167
epoch: 1000
next table: 1672
cur table: 1637
epoch: 1000
next table: 21051
cur table: 16497
epoch: 1000
next table: 19570
cur table: 21051
epoch: 1000
next table: 1705
cur table: 1672
epoch: 1000
next table: 18844
cur table: 19570
epoch: 1000
next table: 19128
cur table: 18844
epoch: 1000
next table: 1725
cur table: 1705
epoch: 1000
next table: 16882
cur table: 19128
epoch: 1000
next table: 20834
cur table: 16882
epoch: 1000
next table: 1740
cur table: 1725
epoch: 1000
next table: 18988
cur table: 20834
epoch: 1000
next table: 22032
cur table: 18988
epoch: 1000
next table: 1681
cur table: 1740
epoch: 1000
next table: 18474
cur table: 22032
epoch: 1000
next table: 18121
cur table: 18474
epoch: 1000
next table: 1674
cur table: 1681
epoch: 1000
next table: 20687
cur table: 18121
epoch: 1000
next table: 20794
cur table: 20687
epoch: 1000
next table: 1612
cur table: 1674
epoch: 1000
next table: 20815
cur table: 20794
epoch: 1000
next table: 19228
cur table: 20815
epoch: 1000
next table: 1655
cur table: 1612
epoch: 1000
next table: 21142
cur table: 19228
epoch: 1000
next table: 19436
cur table: 21142
epoch: 1000
next table: 1700
cur table: 1655
epoch: 1000
next table: 20089
cur table: 19436
epoch: 1000
next table: 22648
cur table: 20089
epoch: 1000
next table: 1690
cur table: 1700
epoch: 1000
next table: 19434
cur table: 22648
epoch: 1000
next table: 1656
cur table: 1690
epoch: 1000
next table: 21066
cur table: 19434
epoch: 1000
next table: 21692
cur table: 21066
epoch: 1000
next table: 1640
cur table: 1656
epoch: 1000
next table: 26187
cur table: 21692
epoch: 1000
next table: 20187
cur table: 26187
epoch: 1000
next table: 1602
cur table: 1640
epoch: 1000
next table: 26911
cur table: 20187
epoch: 1000
next table: 1507
cur table: 1602
epoch: 1000
next table: 25308
cur table: 26911
epoch: 1000
next table: 24971
cur table: 25308
epoch: 1000
next table: 1564
cur table: 1507
epoch: 1000
next table: 19769
cur table: 24971
epoch: 1000
next table: 26307
cur table: 19769
epoch: 1000
next table: 1575
cur table: 1564
Heartbeat CPU 0 instructions: 100000000 cycles: 72641498 heartbeat IPC: 0.917521 cumulative IPC: 0.914738 (Simulation time: 0 hr 35 min 26 sec) 
Finished CPU 0 instructions: 50000002 cycles: 54660476 cumulative IPC: 0.914738 (Simulation time: 0 hr 35 min 26 sec) 

ChampSim completed all CPUs

Region of Interest Statistics

CPU 0 cumulative IPC: 0.914738 instructions: 50000002 cycles: 54660476
ITLB TOTAL     ACCESS:    6964711  HIT:    6964711  MISS:          0  HIT %:        100  MISS %:          0   MPKI: 0
ITLB LOAD TRANSLATION ACCESS:    6964711  HIT:    6964711  MISS:          0  HIT %:        100  MISS %:          0   MPKI: 0
ITLB PREFETCH  REQUESTED:          0  ISSUED:          0  USEFUL:          0  USELESS:          0
ITLB USEFUL LOAD PREFETCHES:          0 PREFETCH ISSUED TO LOWER LEVEL:          0  ACCURACY: -nan
ITLB TIMELY PREFETCHES:          0 LATE PREFETCHES: 0 DROPPED PREFETCHES: 0
ITLB PREFETCHES SAME FILL-ORIGIN LEVEL: 0 DIFFERENT FILL-ORIGIN LEVEL: 0
ITLB AVERAGE MISS LATENCY: -nan cycles
ITLB RQ	ACCESS:    8465329	FORWARD:          0	MERGED:    1500618	TO_CACHE:    6964711

Revised Interactions: positive negative neutral
ITLB_interactions 0 0 0 -nan -nan -nan
DTLB TOTAL     ACCESS:   14223055  HIT:   12288945  MISS:    1934110  HIT %:    86.4016  MISS %:    13.5984   MPKI: 38.6822
DTLB LOAD TRANSLATION ACCESS:   14223055  HIT:   12288945  MISS:    1934110  HIT %:    86.4016  MISS %:    13.5984   MPKI: 38.6822
DTLB PREFETCH  REQUESTED:          0  ISSUED:          0  USEFUL:          0  USELESS:          0
DTLB USEFUL LOAD PREFETCHES:          0 PREFETCH ISSUED TO LOWER LEVEL:          0  ACCURACY: -nan
DTLB TIMELY PREFETCHES:          0 LATE PREFETCHES: 0 DROPPED PREFETCHES: 0
DTLB PREFETCHES SAME FILL-ORIGIN LEVEL: 0 DIFFERENT FILL-ORIGIN LEVEL: 0
DTLB AVERAGE MISS LATENCY: 10.0042 cycles
DTLB RQ	ACCESS:   19858007	FORWARD:          0	MERGED:    5423166	TO_CACHE:   14434841

Revised Interactions: positive negative neutral
DTLB_interactions 0 0 0 -nan -nan -nan
STLB TOTAL     ACCESS:    1939945  HIT:    1937751  MISS:       2194  HIT %:    99.8869  MISS %:   0.113096   MPKI: 0.04388
STLB LOAD TRANSLATION ACCESS:    1934110  HIT:    1931916  MISS:       2194  HIT %:    99.8866  MISS %:   0.113437   MPKI: 0.04388
STLB TRANSLATION FROM L1D PREFETCHER ACCESS:       5835  HIT:       5835  MISS:          0  HIT %:        100  MISS %:          0   MPKI: 0
STLB PREFETCH  REQUESTED:          0  ISSUED:          0  USEFUL:          0  USELESS:          0
STLB USEFUL LOAD PREFETCHES:          0 PREFETCH ISSUED TO LOWER LEVEL:          0  ACCURACY: -nan
STLB TIMELY PREFETCHES:          0 LATE PREFETCHES: 0 DROPPED PREFETCHES: 0
STLB PREFETCHES SAME FILL-ORIGIN LEVEL: 0 DIFFERENT FILL-ORIGIN LEVEL: 0
STLB AVERAGE MISS LATENCY: 602.429 cycles
STLB RQ	ACCESS:    1939969	FORWARD:          0	MERGED:         24	TO_CACHE:    1939945

Revised Interactions: positive negative neutral
STLB_interactions 0 0 0 -nan -nan -nan
STLB Hit, L1D data hit: 0
STLB Hit, L2C data hit: 0
STLB Hit, LLC data hit: 0
STLB Hit, LLC data miss: 0
STLB STLB hints to L2: 0
L1D TOTAL     ACCESS:   19759464  HIT:   16073862  MISS:    3685602  HIT %:    81.3477  MISS %:    18.6523   MPKI: 73.712
L1D LOAD      ACCESS:   15745887  HIT:   12369865  MISS:    3376022  HIT %:    78.5593  MISS %:    21.4407   MPKI: 67.5204
L1D RFO       ACCESS:    4007718  HIT:    3703991  MISS:     303727  HIT %:    92.4214  MISS %:    7.57855   MPKI: 6.07454
L1D PREFETCH  ACCESS:       5859  HIT:          6  MISS:       5853  HIT %:   0.102407  MISS %:    99.8976   MPKI: 0.11706
L1D PREFETCH  REQUESTED:      11718  ISSUED:      11718  USEFUL:       2087  USELESS:       3769
L1D USEFUL LOAD PREFETCHES:       2087 PREFETCH ISSUED TO LOWER LEVEL:       8772  ACCURACY: 23.7916
L1D TIMELY PREFETCHES:       2087 LATE PREFETCHES: 0 DROPPED PREFETCHES: 0
L1D PREFETCHES SAME FILL-ORIGIN LEVEL: 8772 DIFFERENT FILL-ORIGIN LEVEL: 0
L1D AVERAGE MISS LATENCY: 23.1443 cycles
L1D RQ	ACCESS:   19467885	FORWARD:          0	MERGED:    3625467	TO_CACHE:   15832347
L1D WQ	ACCESS:    4052923	FORWARD:      10071	MERGED:      27263	TO_CACHE:    4025660
L1D PQ	ACCESS:       5859	FORWARD:          0	MERGED:          0	TO_CACHE:       5859

Revised Interactions: positive negative neutral
L1D_interactions 0 0 0 -nan -nan -nan
L1D UNIQUE REGIONS ACCESSED: 0
L1D REGIONS CONFLICTS: 0
L1D Cross Page Prefetch Requests: 0
L1D Same Page Prefetch Requests: 14446
L1D ROI Sum of L1D PQ occupancy: 84807
L1D PREFETCHES PUSHED FROM L2C: 0
L1I TOTAL     ACCESS:    7801373  HIT:    6501370  MISS:    1300003  HIT %:    83.3362  MISS %:    16.6638   MPKI: 26.0001
L1I LOAD      ACCESS:    7801373  HIT:    6501370  MISS:    1300003  HIT %:    83.3362  MISS %:    16.6638   MPKI: 26.0001
L1I PREFETCH  REQUESTED:          0  ISSUED:          0  USEFUL:          0  USELESS:          0
L1I USEFUL LOAD PREFETCHES:          0 PREFETCH ISSUED TO LOWER LEVEL:          0  ACCURACY: -nan
L1I TIMELY PREFETCHES:          0 LATE PREFETCHES: 0 DROPPED PREFETCHES: 0
L1I PREFETCHES SAME FILL-ORIGIN LEVEL: 0 DIFFERENT FILL-ORIGIN LEVEL: 0
L1I AVERAGE MISS LATENCY: 14.0816 cycles
L1I RQ	ACCESS:   11859922	FORWARD:          0	MERGED:    3394593	TO_CACHE:    8465329

Revised Interactions: positive negative neutral
L1I_interactions 0 0 0 -nan -nan -nan
BTB TOTAL     ACCESS:     281772  HIT:     263571  MISS:      18201  HIT %:    93.5405  MISS %:    6.45948   MPKI: 0.36402
BTB BRANCH_DIRECT_JUMP	ACCESS:      54526  HIT:      54521  MISS:          5
BTB BRANCH_INDIRECT	ACCESS:       9087  HIT:       9086  MISS:          1
BTB BRANCH_CONDITIONAL	ACCESS:     109107  HIT:     109095  MISS:         12
BTB BRANCH_DIRECT_CALL	ACCESS:      54526  HIT:      54521  MISS:          5
BTB BRANCH_INDIRECT_CALL	ACCESS:          0  HIT:          0  MISS:          0
BTB BRANCH_RETURN	ACCESS:      54526  HIT:      36348  MISS:      18178
BTB BRANCH_OTHER ACCESS:          0  HIT:          0  MISS:          0

L2C TOTAL     ACCESS:    7602040  HIT:    7350602  MISS:     251438  HIT %:    96.6925  MISS %:    3.30751   MPKI: 5.02876
L2C LOAD      ACCESS:    4675559  HIT:    4622608  MISS:      52951  HIT %:    98.8675  MISS %:    1.13251   MPKI: 1.05902
L2C DATA LOAD MPKI: 1.05072
L2C INSTRUCTION LOAD MPKI: 0.0083
L2C RFO       ACCESS:     303575  HIT:     271926  MISS:      31649  HIT %:    89.5746  MISS %:    10.4254   MPKI: 0.63298
L2C PREFETCH  ACCESS:    2294816  HIT:    2131347  MISS:     163469  HIT %:    92.8766  MISS %:     7.1234   MPKI: 3.26938
L2C DATA PREFETCH MPKI: 3.26938
L2C INSTRUCTION PREFETCH MPKI: 0
L2C WRITEBACK ACCESS:     324823  HIT:     324528  MISS:        295  HIT %:    99.9092  MISS %:  0.0908187   MPKI: 0.0059
L2C LOAD TRANSLATION ACCESS:       3267  HIT:        193  MISS:       3074  HIT %:    5.90756  MISS %:    94.0924   MPKI: 0.06148
L2C PREFETCH  REQUESTED:    2323683  ISSUED:    2289266  USEFUL:     156743  USELESS:       6763
L2C USEFUL LOAD PREFETCHES:     156743 PREFETCH ISSUED TO LOWER LEVEL:     163475  ACCURACY: 95.8819
L2C TIMELY PREFETCHES:     156743 LATE PREFETCHES: 6 DROPPED PREFETCHES: 0
L2C PREFETCHES SAME FILL-ORIGIN LEVEL: 160550 DIFFERENT FILL-ORIGIN LEVEL: 0
L2C AVERAGE MISS LATENCY: 190.452 cycles
L2C RQ	ACCESS:    4983018	FORWARD:          0	MERGED:          0	TO_CACHE:    4982401
L2C WQ	ACCESS:     324823	FORWARD:        649	MERGED:          0	TO_CACHE:     324823
L2C PQ	ACCESS:    2295119	FORWARD:          0	MERGED:        232	TO_CACHE:    2294855

Revised Interactions: positive negative neutral
L2C_interactions 135114 16105 12877 82.3384 9.81438 7.84724
L2C Instructions Evicting Data 403
L2C Translations Evicting Data 3062
L2C Data Evicting Data 244184
L2C Instructions Evicting Instructions 12
L2C Translations Evicting Instructions 1
L2C Data Evicting Instructions 397
L2C Instructions Evicting Translations 0
L2C Translations Evicting Translations 11
L2C Data Evicting Translations 3073
L2C Dense regions hint from L2: 0
PSCL5 TOTAL     ACCESS:       2194  HIT:       2194  MISS:          0  HIT %:        100  MISS %:          0   MPKI: 0
PSCL5 LOAD TRANSLATION ACCESS:       2194  HIT:       2194  MISS:          0  HIT %:        100  MISS %:          0   MPKI: 0
PSCL5 PREFETCH  REQUESTED:          0  ISSUED:          0  USEFUL:          0  USELESS:          0
PSCL5 USEFUL LOAD PREFETCHES:          0 PREFETCH ISSUED TO LOWER LEVEL:          0  ACCURACY: -nan
PSCL5 TIMELY PREFETCHES:          0 LATE PREFETCHES: 0 DROPPED PREFETCHES: 0
PSCL5 PREFETCHES SAME FILL-ORIGIN LEVEL: 0 DIFFERENT FILL-ORIGIN LEVEL: 0

Revised Interactions: positive negative neutral
PSCL5_interactions 0 0 0 -nan -nan -nan
PSCL4 TOTAL     ACCESS:       2194  HIT:       2194  MISS:          0  HIT %:        100  MISS %:          0   MPKI: 0
PSCL4 LOAD TRANSLATION ACCESS:       2194  HIT:       2194  MISS:          0  HIT %:        100  MISS %:          0   MPKI: 0
PSCL4 PREFETCH  REQUESTED:          0  ISSUED:          0  USEFUL:          0  USELESS:          0
PSCL4 USEFUL LOAD PREFETCHES:          0 PREFETCH ISSUED TO LOWER LEVEL:          0  ACCURACY: -nan
PSCL4 TIMELY PREFETCHES:          0 LATE PREFETCHES: 0 DROPPED PREFETCHES: 0
PSCL4 PREFETCHES SAME FILL-ORIGIN LEVEL: 0 DIFFERENT FILL-ORIGIN LEVEL: 0

Revised Interactions: positive negative neutral
PSCL4_interactions 0 0 0 -nan -nan -nan
PSCL3 TOTAL     ACCESS:       2194  HIT:       2194  MISS:          0  HIT %:        100  MISS %:          0   MPKI: 0
PSCL3 LOAD TRANSLATION ACCESS:       2194  HIT:       2194  MISS:          0  HIT %:        100  MISS %:          0   MPKI: 0
PSCL3 PREFETCH  REQUESTED:          0  ISSUED:          0  USEFUL:          0  USELESS:          0
PSCL3 USEFUL LOAD PREFETCHES:          0 PREFETCH ISSUED TO LOWER LEVEL:          0  ACCURACY: -nan
PSCL3 TIMELY PREFETCHES:          0 LATE PREFETCHES: 0 DROPPED PREFETCHES: 0
PSCL3 PREFETCHES SAME FILL-ORIGIN LEVEL: 0 DIFFERENT FILL-ORIGIN LEVEL: 0

Revised Interactions: positive negative neutral
PSCL3_interactions 0 0 0 -nan -nan -nan
PSCL2 TOTAL     ACCESS:       2194  HIT:       1117  MISS:       1077  HIT %:    50.9116  MISS %:    49.0884   MPKI: 0.02154
PSCL2 LOAD TRANSLATION ACCESS:       2194  HIT:       1117  MISS:       1077  HIT %:    50.9116  MISS %:    49.0884   MPKI: 0.02154
PSCL2 PREFETCH  REQUESTED:          0  ISSUED:          0  USEFUL:          0  USELESS:          0
PSCL2 USEFUL LOAD PREFETCHES:          0 PREFETCH ISSUED TO LOWER LEVEL:          0  ACCURACY: -nan
PSCL2 TIMELY PREFETCHES:          0 LATE PREFETCHES: 0 DROPPED PREFETCHES: 0
PSCL2 PREFETCHES SAME FILL-ORIGIN LEVEL: 0 DIFFERENT FILL-ORIGIN LEVEL: 0

Revised Interactions: positive negative neutral
PSCL2_interactions 0 0 0 -nan -nan -nan
LLC TOTAL     ACCESS:     282929  HIT:     144529  MISS:     138400  HIT %:    51.0831  MISS %:    48.9169   MPKI: 2.768
LLC LOAD      ACCESS:      52942  HIT:      27789  MISS:      25153  HIT %:    52.4895  MISS %:    47.5105   MPKI: 0.50306
LLC RFO       ACCESS:      31473  HIT:       2048  MISS:      29425  HIT %:    6.50716  MISS %:    93.4928   MPKI: 0.5885
LLC PREFETCH  ACCESS:     163475  HIT:      80371  MISS:      83104  HIT %:    49.1641  MISS %:    50.8359   MPKI: 1.66208
LLC WRITEBACK ACCESS:      31965  HIT:      31585  MISS:        380  HIT %:    98.8112  MISS %:     1.1888   MPKI: 0.0076
LLC LOAD TRANSLATION ACCESS:       3074  HIT:       2736  MISS:        338  HIT %:    89.0046  MISS %:    10.9954   MPKI: 0.00676
LLC PREFETCH  REQUESTED:          0  ISSUED:          0  USEFUL:      14174  USELESS:      68630
LLC USEFUL LOAD PREFETCHES:      14174 PREFETCH ISSUED TO LOWER LEVEL:      83104  ACCURACY: 17.0557
LLC TIMELY PREFETCHES:      14174 LATE PREFETCHES: 0 DROPPED PREFETCHES: 0
LLC PREFETCHES SAME FILL-ORIGIN LEVEL: 0 DIFFERENT FILL-ORIGIN LEVEL: 0
LLC AVERAGE MISS LATENCY: 290.192 cycles
LLC RQ	ACCESS:      87668	FORWARD:          0	MERGED:          0	TO_CACHE:      87489
LLC WQ	ACCESS:      31965	FORWARD:        179	MERGED:          0	TO_CACHE:      31965
LLC PQ	ACCESS:     163475	FORWARD:          0	MERGED:          0	TO_CACHE:     163475

Revised Interactions: positive negative neutral
LLC_interactions 1938 81654 24882 1.7866 75.2752 22.9382
LLC Dense regions hint to LLC: 0

RAW hits: 124851
Loads Generated: 19592737
Loads sent to L1D: 19467885
Stores Generated: 4053119
Stores sent to L1D: 4053121
Major fault: 0 Minor fault: 4534
Allocated PAGES: 4534

stream: 
stream:times selected: 20427
stream:pref_filled: 11948
stream:pref_useful: 3954
stream:pref_late: 7
stream:misses: 102
stream:misses_by_poll: 0

CS: 
CS:times selected: 7571
CS:pref_filled: 695
CS:pref_useful: 244
CS:pref_late: 0
CS:misses: 2447
CS:misses_by_poll: 0

CPLX: 
CPLX:times selected: 13245
CPLX:pref_filled: 777
CPLX:pref_useful: 193
CPLX:pref_late: 0
CPLX:misses: 60236
CPLX:misses_by_poll: 0

NL_L1: 
NL:times selected: 9
NL:pref_filled: 8
NL:pref_useful: 3
NL:pref_late: 0
NL:misses: 37
NL:misses_by_poll: 0

total selections: 41252
total_filled: 5853
total_useful: 2087
total_late: 7
total_polluted: 0
total_misses_after_warmup: 3462482
conflicts: 7797553
Degree Incremented Times: 0
Degree Decremented Times: 267760

L1 IP Table Write Accesses: 7929945
L1 IP Table Read Accesses: 132392
L1 RST Write Accesses: 6098
L1 RST Read Accesses: 12196
L1 CSPT Write Accesses: 6098
L1 CSPT Read Accesses: 11945
L1 RR Filter Tag Write Accesses: 5859
L1 RR Filter Tag Read Accesses: 488280
L1 IP Table Tag Write Accesses: 15832347
L1 IP Table Tag Read Accesses: 15832347
L1 RST Tag Write Accesses: 0
L1 RST Tag Read Accesses: 53954
L1 RR Filter Write Accesses: 0
L1 RR Filter Read Accesses: 15379
test: 4568
L2 IP Table Read Accesses: 4404725
L2 IP Table Write Accesses: 5450354
L2 IP Table Tag Read Accesses: 3381112
L2 IP Table Tag Write Accesses: 3381112

DRAM Statistics
 CHANNEL 0
 RQ ROW_BUFFER_HIT:      74461  ROW_BUFFER_MISS:      63559
 DBUS_CONGESTED:        169
 WQ ROW_BUFFER_HIT:       7600  ROW_BUFFER_MISS:      22138  FULL:          0

 AVG_CONGESTED_CYCLE: 4
 All warmup complete: 2
Channel 0 Bank busy for read cycles: 0
Channel 0 Bank busy for write cycles: 0
Channel 0
Rank 0
0banks busy for read cycles: 44026766
0banks busy for write cycles: 12270
1banks busy for read cycles: 4914083
1banks busy for write cycles: 1748134
2banks busy for read cycles: 1562584
2banks busy for write cycles: 367641
3banks busy for read cycles: 782188
3banks busy for write cycles: 200011
4banks busy for read cycles: 315384
4banks busy for write cycles: 170655
5banks busy for read cycles: 126681
5banks busy for write cycles: 136782
6banks busy for read cycles: 92548
6banks busy for write cycles: 95207
7banks busy for read cycles: 58185
7banks busy for write cycles: 39236
8banks busy for read cycles: 1895
8banks busy for write cycles: 10227

CPU 0 Branch Prediction Accuracy: 99.9872% MPKI: 0.00114 Average ROB Occupancy at Mispredict: 37.3509
Branch types
NOT_BRANCH: 49554269 99.1085%
BRANCH_DIRECT_JUMP: 54526 0.109052%
BRANCH_INDIRECT: 9087 0.018174%
BRANCH_CONDITIONAL: 272740 0.54548%
BRANCH_DIRECT_CALL: 54526 0.109052%
BRANCH_INDIRECT_CALL: 0 0%
BRANCH_RETURN: 54526 0.109052%
BRANCH_OTHER: 0 0%

@sumon_overall_L1D      2087         0         0      3769      5853     11718     11718
@Sumon_Early_by_class_L1D      1966        25         5         0
@Sumon_Late_by_class_L1D         0         0         0         0

@Sumon_Early_by_cycle_L1D         3         5         5         1         0         0         0        14        88      1915        54         2
@Sumon_Late_by_cycle_L1D         0         0         0         0         0         0
@Sumon_Early_stream_L1D         3         5         5         1         0         0         0        14        78      1809        49         2
@Sumon_Early_CS_L1D         0         0         0         0         0         0         0         0         1        23         1         0
@Sumon_Early_CPLX_L1D         0         0         0         0         0         0         0         0         0         5         0         0
@Sumon_Late_stream_L1D         0         0         0         0         0         0
@Sumon_Late_CS_L1D         0         0         0         0         0         0
@Sumon_Late_CPLX_L1D         0         0         0         0         0         0
@sumon_overall_L2C    156743         6         0      6763    163469   2289266   2323683
@Sumon_Early_by_class_L2C      2706        26         3         0
@Sumon_Late_by_class_L2C         0         0         0         0

@Sumon_Early_by_cycle_L2C        21        12         1         0         0         4         2       447      6582    141495      8060       119
@Sumon_Late_by_cycle_L2C         1         1         1         1         2         0
@Sumon_Early_stream_L2C         0         0         0         0         0         0         0         1        55      1533      1115         2
@Sumon_Early_CS_L2C         0         0         0         0         0         0         0         0         0         5        21         0
@Sumon_Early_CPLX_L2C         0         0         0         0         0         0         0         0         0         2         1         0
@Sumon_Late_stream_L2C         0         0         0         0         0         0
@Sumon_Late_CS_L2C         0         0         0         0         0         0
@Sumon_Late_CPLX_L2C         0         0         0         0         0         0
DRAM PAGES: 1048576
Allocated PAGES: 4534
