
*** ChampSim Multicore Out-of-Order Simulator ***

Warmup Instructions: 50000000
Simulation Instructions: 50000000
Number of CPUs: 1
LLC sets: 2048
LLC ways: 16
Off-chip DRAM Size: 4096 MB Channels: 1 Width: 64-bit Data Rate: 6400 MT/s
CPU 0 runs ../../biswa/SPEC2017Traces/619.lbm_s-3766B.champsimtrace.xz
.xz
CPU 0 Bimodal branch predictor
BTB has LRU replacement policy
ITLB has LRU replacement policy
DTLB has LRU replacement policy
STLB has LRU replacement policy
L1I has LRU replacement policy
IP Table Entries: 256
L1D has LRU replacement policy
IP_Table L2 entries: 256
Initialize DRRIP state for L2C
Initialize DRRIP state for LLC
epoch: 1000
next table: 2542
cur table: 11721
epoch: 1000
next table: 2425
cur table: 2542
epoch: 1000
next table: 2444
cur table: 2425
epoch: 1000
next table: 2383
cur table: 2444
epoch: 1000
next table: 2365
cur table: 2383
epoch: 1000
next table: 2380
cur table: 2365
epoch: 1000
next table: 2366
cur table: 2380
epoch: 1000
next table: 2377
cur table: 2366
epoch: 1000
next table: 2365
cur table: 2377
epoch: 1000
next table: 2385
cur table: 2365
epoch: 1000
next table: 2401
cur table: 2385
epoch: 1000
next table: 2386
cur table: 2401
epoch: 1000
next table: 2395
cur table: 2386
epoch: 1000
next table: 2356
cur table: 2395
epoch: 1000
next table: 2325
cur table: 2356
epoch: 1000
next table: 2360
cur table: 2325
epoch: 1000
next table: 2319
cur table: 2360
epoch: 1000
next table: 2348
cur table: 2319
epoch: 1000
next table: 2393
cur table: 2348
epoch: 1000
next table: 2418
cur table: 2393
epoch: 1000
next table: 2417
cur table: 2418
epoch: 1000
next table: 2378
cur table: 2417
epoch: 1000
next table: 2412
cur table: 2378
epoch: 1000
next table: 2382
cur table: 2412
epoch: 1000
next table: 2407
cur table: 2382
epoch: 1000
next table: 2507
cur table: 26403
epoch: 1000
next table: 2402
cur table: 2407
epoch: 1000
next table: 1864
cur table: 2507
epoch: 1000
next table: 2415
cur table: 2402
epoch: 1000
next table: 2350
cur table: 2415
epoch: 1000
next table: 1955
cur table: 1864
epoch: 1000
next table: 2393
cur table: 2350
epoch: 1000
next table: 1779
cur table: 1955
epoch: 1000
next table: 2413
cur table: 2393
epoch: 1000
next table: 1769
cur table: 1779
epoch: 1000
next table: 2355
cur table: 2413
epoch: 1000
next table: 1816
cur table: 1769
epoch: 1000
next table: 2294
cur table: 2355
epoch: 1000
next table: 1866
cur table: 1816
epoch: 1000
next table: 2309
cur table: 2294
epoch: 1000
next table: 1832
cur table: 1866
epoch: 1000
next table: 2362
cur table: 2309
epoch: 1000
next table: 1819
cur table: 1832
epoch: 1000
next table: 2361
cur table: 2362
epoch: 1000
next table: 1768
cur table: 1819
epoch: 1000
next table: 2404
cur table: 2361
epoch: 1000
next table: 1758
cur table: 1768
epoch: 1000
next table: 2421
cur table: 2404
epoch: 1000
next table: 1765
cur table: 1758
epoch: 1000
next table: 2419
cur table: 2421
epoch: 1000
next table: 1770
cur table: 1765
epoch: 1000
next table: 2417
cur table: 2419
epoch: 1000
next table: 1760
cur table: 1770
epoch: 1000
next table: 2409
cur table: 2417
epoch: 1000
next table: 1775
cur table: 1760
epoch: 1000
next table: 2403
cur table: 2409
epoch: 1000
next table: 1792
cur table: 1775
epoch: 1000
next table: 2388
cur table: 2403
epoch: 1000
next table: 1794
cur table: 1792
epoch: 1000
next table: 2378
cur table: 2388
epoch: 1000
next table: 1771
cur table: 1794
epoch: 1000
next table: 2368
cur table: 2378
epoch: 1000
next table: 1804
cur table: 1771
epoch: 1000
next table: 2355
cur table: 2368
epoch: 1000
next table: 1799
cur table: 1804
epoch: 1000
next table: 2405
cur table: 2355
epoch: 1000
next table: 1784
cur table: 1799
epoch: 1000
next table: 2340
cur table: 2405
epoch: 1000
next table: 1828
cur table: 1784
epoch: 1000
next table: 2334
cur table: 2340
epoch: 1000
next table: 1801
cur table: 1828
epoch: 1000
next table: 2370
cur table: 2334
epoch: 1000
next table: 1791
cur table: 1801
epoch: 1000
next table: 2412
cur table: 2370
epoch: 1000
next table: 1755
cur table: 1791
epoch: 1000
next table: 2392
cur table: 2412
epoch: 1000
next table: 1773
cur table: 1755
epoch: 1000
next table: 2397
cur table: 2392
epoch: 1000
next table: 1773
cur table: 1773
epoch: 1000
next table: 2402
cur table: 2397
epoch: 1000
next table: 1760
cur table: 1773
epoch: 1000
next table: 2418
cur table: 2402
epoch: 1000
next table: 1751
cur table: 1760
epoch: 1000
next table: 2429
cur table: 2418
epoch: 1000
next table: 1757
cur table: 1751
epoch: 1000
next table: 2414
cur table: 2429
epoch: 1000
next table: 1767
cur table: 1757
epoch: 1000
next table: 2416
cur table: 2414
epoch: 1000
next table: 1771
cur table: 1767
epoch: 1000
next table: 2408
cur table: 2416
epoch: 1000
next table: 1766
cur table: 1771
epoch: 1000
next table: 2384
cur table: 2408
epoch: 1000
next table: 1769
cur table: 1766
epoch: 1000
next table: 2394
cur table: 2384
epoch: 1000
next table: 1757
cur table: 1769
epoch: 1000
next table: 2424
cur table: 2394
epoch: 1000
next table: 1766
cur table: 1757
epoch: 1000
next table: 2422
cur table: 2424
epoch: 1000
next table: 1762
cur table: 1766
epoch: 1000
next table: 2423
cur table: 2422
epoch: 1000
next table: 1756
cur table: 1762
epoch: 1000
next table: 2431
cur table: 2423
epoch: 1000
next table: 1753
cur table: 1756
epoch: 1000
next table: 2407
cur table: 2431
epoch: 1000
next table: 1753
cur table: 1753
epoch: 1000
next table: 2450
cur table: 2407
epoch: 1000
next table: 1752
cur table: 1753
epoch: 1000
next table: 2407
cur table: 2450
epoch: 1000
next table: 1760
cur table: 1752
epoch: 1000
next table: 2411
cur table: 2407
epoch: 1000
next table: 1759
cur table: 1760
epoch: 1000
next table: 2408
cur table: 2411
epoch: 1000
next table: 1762
cur table: 1759
epoch: 1000
next table: 2411
cur table: 2408
epoch: 1000
next table: 1753
cur table: 1762
epoch: 1000
next table: 2428
cur table: 2411
epoch: 1000
next table: 1759
cur table: 1753
epoch: 1000
next table: 2429
cur table: 2428
epoch: 1000
next table: 1770
cur table: 1759
epoch: 1000
next table: 2414
cur table: 2429
epoch: 1000
next table: 1753
cur table: 1770
epoch: 1000
next table: 2419
cur table: 2414
epoch: 1000
next table: 1749
cur table: 1753
epoch: 1000
next table: 2420
cur table: 2419
epoch: 1000
next table: 1753
cur table: 1749
epoch: 1000
next table: 2443
cur table: 2420
epoch: 1000
next table: 1770
cur table: 1753
epoch: 1000
next table: 2384
cur table: 2443
epoch: 1000
next table: 1787
cur table: 1770
epoch: 1000
next table: 2366
cur table: 2384
epoch: 1000
next table: 1768
cur table: 1787
epoch: 1000
next table: 2399
cur table: 2366
epoch: 1000
next table: 1770
cur table: 1768
epoch: 1000
next table: 2412
cur table: 2399
epoch: 1000
next table: 1765
cur table: 1770
epoch: 1000
next table: 2415
cur table: 2412
epoch: 1000
next table: 1764
cur table: 1765
epoch: 1000
next table: 2422
cur table: 2415
epoch: 1000
next table: 1764
cur table: 1764
epoch: 1000
next table: 2433
cur table: 2422
epoch: 1000
next table: 2389
cur table: 2433
epoch: 1000
next table: 1770
cur table: 1764
epoch: 1000
next table: 2348
cur table: 2389
epoch: 1000
next table: 1793
cur table: 1770
epoch: 1000
next table: 2355
cur table: 2348
epoch: 1000
next table: 1802
cur table: 1793
epoch: 1000
next table: 2378
cur table: 2355
epoch: 1000
next table: 1804
cur table: 1802
epoch: 1000
next table: 2379
cur table: 2378
epoch: 1000
next table: 1780
cur table: 1804
epoch: 1000
next table: 2395
cur table: 2379
epoch: 1000
next table: 1758
cur table: 1780
epoch: 1000
next table: 2418
cur table: 2395
epoch: 1000
next table: 1757
cur table: 1758
epoch: 1000
next table: 2407
cur table: 2418
epoch: 1000
next table: 1757
cur table: 1757
epoch: 1000
next table: 2423
cur table: 2407
epoch: 1000
next table: 1769
cur table: 1757
epoch: 1000
next table: 2424
cur table: 2423
epoch: 1000
next table: 1766
cur table: 1769
epoch: 1000
next table: 2414
cur table: 2424
epoch: 1000
next table: 1754
cur table: 1766
epoch: 1000
next table: 2430
cur table: 2414
epoch: 1000
next table: 1751
cur table: 1754
epoch: 1000
next table: 2415
cur table: 2430
epoch: 1000
next table: 1764
cur table: 1751
epoch: 1000
next table: 2378
cur table: 2415
epoch: 1000
next table: 1770
cur table: 1764
epoch: 1000
next table: 2403
cur table: 2378
epoch: 1000
next table: 1765
cur table: 1770
epoch: 1000
next table: 2408
cur table: 2403
epoch: 1000
next table: 1755
cur table: 1765
epoch: 1000
next table: 2421
cur table: 2408
epoch: 1000
next table: 1767
cur table: 1755
epoch: 1000
next table: 2421
cur table: 2421
epoch: 1000
next table: 1753
cur table: 1767
epoch: 1000
next table: 2430
cur table: 2421
epoch: 1000
next table: 1768
cur table: 1753
epoch: 1000
next table: 2418
cur table: 2430
epoch: 1000
next table: 1759
cur table: 1768
epoch: 1000
next table: 2443
cur table: 2418
epoch: 1000
next table: 1751
cur table: 1759
epoch: 1000
next table: 2413
cur table: 2443
epoch: 1000
next table: 1750
cur table: 1751
epoch: 1000
next table: 2406
cur table: 2413
epoch: 1000
next table: 1757
cur table: 1750
epoch: 1000
next table: 2403
cur table: 2406
epoch: 1000
next table: 1755
cur table: 1757
epoch: 1000
next table: 2421
cur table: 2403
epoch: 1000
next table: 1763
cur table: 1755
epoch: 1000
next table: 2421
cur table: 2421
epoch: 1000
next table: 1752
cur table: 1763
epoch: 1000
next table: 2414
cur table: 2421
epoch: 1000
next table: 1770
cur table: 1752
epoch: 1000
next table: 2401
cur table: 2414
epoch: 1000
next table: 1774
cur table: 1770
epoch: 1000
next table: 2420
cur table: 2401
epoch: 1000
next table: 1764
cur table: 1774
epoch: 1000
next table: 2442
cur table: 2420
epoch: 1000
next table: 1763
cur table: 1764
epoch: 1000
next table: 2393
cur table: 2442
epoch: 1000
next table: 1758
cur table: 1763
epoch: 1000
next table: 2367
cur table: 2393
epoch: 1000
next table: 1784
cur table: 1758
epoch: 1000
next table: 2379
cur table: 2367
epoch: 1000
next table: 1770
cur table: 1784
epoch: 1000
next table: 2408
cur table: 2379
epoch: 1000
next table: 1772
cur table: 1770
epoch: 1000
next table: 2422
cur table: 2408
epoch: 1000
next table: 1758
cur table: 1772
epoch: 1000
next table: 2419
cur table: 2422
epoch: 1000
next table: 1767
cur table: 1758
epoch: 1000
next table: 2433
cur table: 2419
epoch: 1000
next table: 1756
cur table: 1767
epoch: 1000
next table: 2409
cur table: 2433
epoch: 1000
next table: 1761
cur table: 1756
epoch: 1000
next table: 2384
cur table: 2409
epoch: 1000
next table: 1782
cur table: 1761
epoch: 1000
next table: 2375
cur table: 2384
epoch: 1000
next table: 1789
cur table: 1782
epoch: 1000
next table: 2376
cur table: 2375
epoch: 1000
next table: 1782
cur table: 1789
epoch: 1000
next table: 2391
cur table: 2376
epoch: 1000
next table: 1776
cur table: 1782
epoch: 1000
next table: 2426
cur table: 2391
epoch: 1000
next table: 1753
cur table: 1776
epoch: 1000
next table: 2406
cur table: 2426
epoch: 1000
next table: 1764
cur table: 1753
epoch: 1000
next table: 2405
cur table: 2406
epoch: 1000
next table: 1757
cur table: 1764
epoch: 1000
next table: 2409
cur table: 2405
epoch: 1000
next table: 1761
cur table: 1757
epoch: 1000
next table: 2420
cur table: 2409
epoch: 1000
next table: 1753
cur table: 1761
epoch: 1000
next table: 2426
cur table: 2420
epoch: 1000
next table: 1770
cur table: 1753
epoch: 1000
next table: 2402
cur table: 2426
epoch: 1000
next table: 1783
cur table: 1770
epoch: 1000
next table: 2398
cur table: 2402
epoch: 1000
next table: 1771
cur table: 1783
epoch: 1000
next table: 2420
cur table: 2398
epoch: 1000
next table: 1757
cur table: 1771
epoch: 1000
next table: 2407
cur table: 2420
epoch: 1000
next table: 1760
cur table: 1757
epoch: 1000
next table: 2396
cur table: 2407
epoch: 1000
next table: 1756
cur table: 1760
epoch: 1000
next table: 2405
cur table: 2396
epoch: 1000
next table: 1757
cur table: 1756
epoch: 1000
next table: 2413
cur table: 2405
epoch: 1000
next table: 1764
cur table: 1757
epoch: 1000
next table: 2423
cur table: 2413
epoch: 1000
next table: 1759
cur table: 1764
epoch: 1000
next table: 2417
cur table: 2423
epoch: 1000
next table: 1764
cur table: 1759
epoch: 1000
next table: 2420
cur table: 2417
epoch: 1000
next table: 1763
cur table: 1764
epoch: 1000
next table: 2434
cur table: 2420
epoch: 1000
next table: 1762
cur table: 1763
epoch: 1000
next table: 2427
cur table: 2434
epoch: 1000
next table: 1755
cur table: 1762
epoch: 1000
next table: 2408
cur table: 2427
epoch: 1000
next table: 1752
cur table: 1755
epoch: 1000
next table: 2408
cur table: 2408
epoch: 1000
next table: 1755
cur table: 1752
epoch: 1000
next table: 2407
cur table: 2408
epoch: 1000
next table: 1753
cur table: 1755
epoch: 1000
next table: 2426
cur table: 2407
epoch: 1000
next table: 1758
cur table: 1753
epoch: 1000
next table: 2421
cur table: 2426
epoch: 1000
next table: 1754
cur table: 1758
epoch: 1000
next table: 2419
cur table: 2421
epoch: 1000
next table: 1765
cur table: 1754
epoch: 1000
next table: 2420
cur table: 2419
epoch: 1000
next table: 1757
cur table: 1765
epoch: 1000
next table: 2428
cur table: 2420
epoch: 1000
next table: 1762
cur table: 1757
epoch: 1000
next table: 2429
cur table: 2428
epoch: 1000
next table: 1765
cur table: 1762
epoch: 1000
next table: 2428
cur table: 2429
epoch: 1000
next table: 1750
cur table: 1765
epoch: 1000
next table: 2405
cur table: 2428
epoch: 1000
next table: 1758
cur table: 1750
epoch: 1000
next table: 2380
cur table: 2405
epoch: 1000
next table: 1769
cur table: 1758
epoch: 1000
next table: 2405
cur table: 2380
epoch: 1000
next table: 1768
cur table: 1769
epoch: 1000
next table: 2396
cur table: 2405
epoch: 1000
next table: 1780
cur table: 1768
epoch: 1000
next table: 2408
cur table: 2396
epoch: 1000
next table: 1768
cur table: 1780
epoch: 1000
next table: 2421
cur table: 2408
epoch: 1000
next table: 1794
cur table: 1768
epoch: 1000
next table: 2322
cur table: 2421
epoch: 1000
next table: 1802
cur table: 1794
epoch: 1000
next table: 2384
cur table: 2322
epoch: 1000
next table: 1794
cur table: 1802
epoch: 1000
next table: 2379
cur table: 2384
epoch: 1000
next table: 1792
cur table: 1794
epoch: 1000
next table: 2387
cur table: 2379
epoch: 1000
next table: 1786
cur table: 1792
epoch: 1000
next table: 2361
cur table: 2387
epoch: 1000
next table: 1814
cur table: 1786
epoch: 1000
next table: 2327
cur table: 2361
epoch: 1000
next table: 1780
cur table: 1814
epoch: 1000
next table: 2368
cur table: 2327
epoch: 1000
next table: 1775
cur table: 1780
epoch: 1000
next table: 2410
cur table: 2368
epoch: 1000
next table: 1779
cur table: 1775
epoch: 1000
next table: 2424
cur table: 2410
epoch: 1000
next table: 1758
cur table: 1779
epoch: 1000
next table: 2397
cur table: 2424
epoch: 1000
next table: 1770
cur table: 1758
epoch: 1000
next table: 2389
cur table: 2397
epoch: 1000
next table: 1807
cur table: 1770
epoch: 1000
next table: 2356
cur table: 2389
epoch: 1000
next table: 1798
cur table: 1807
epoch: 1000
next table: 2377
cur table: 2356
epoch: 1000
next table: 2358
cur table: 2377
epoch: 1000
next table: 1817
cur table: 1798
epoch: 1000
next table: 2351
cur table: 2358
epoch: 1000
next table: 1783
cur table: 1817
epoch: 1000
next table: 2361
cur table: 2351
epoch: 1000
next table: 1792
cur table: 1783
epoch: 1000
next table: 2390
cur table: 2361
epoch: 1000
next table: 1788
cur table: 1792
epoch: 1000
next table: 2384
cur table: 2390
epoch: 1000
next table: 1789
cur table: 1788
epoch: 1000
next table: 2372
cur table: 2384
epoch: 1000
next table: 1773
cur table: 1789
epoch: 1000
next table: 2389
cur table: 2372
epoch: 1000
next table: 1779
cur table: 1773
epoch: 1000
next table: 2399
cur table: 2389
epoch: 1000
next table: 1768
cur table: 1779
epoch: 1000
next table: 2374
cur table: 2399
epoch: 1000
next table: 1807
cur table: 1768
epoch: 1000
next table: 2378
cur table: 2374
epoch: 1000
next table: 1810
cur table: 1807
epoch: 1000
next table: 2345
cur table: 2378
epoch: 1000
next table: 1787
cur table: 1810
epoch: 1000
next table: 2385
cur table: 2345
epoch: 1000
next table: 1779
cur table: 1787
epoch: 1000
next table: 2397
cur table: 2385
epoch: 1000
next table: 1788
cur table: 1779
epoch: 1000
next table: 2378
cur table: 2397
epoch: 1000
next table: 1776
cur table: 1788
epoch: 1000
next table: 2385
cur table: 2378
epoch: 1000
next table: 1774
cur table: 1776
epoch: 1000
next table: 2397
cur table: 2385
epoch: 1000
next table: 1767
cur table: 1774
epoch: 1000
next table: 2405
cur table: 2397
epoch: 1000
next table: 1759
cur table: 1767
epoch: 1000
next table: 2421
cur table: 2405
epoch: 1000
next table: 1767
cur table: 1759
epoch: 1000
next table: 2412
cur table: 2421
epoch: 1000
next table: 1759
cur table: 1767
epoch: 1000
next table: 2419
cur table: 2412
epoch: 1000
next table: 1774
cur table: 1759
epoch: 1000
next table: 2412
cur table: 2419
epoch: 1000
next table: 1764
cur table: 1774
epoch: 1000
next table: 2424
cur table: 2412
epoch: 1000
next table: 1757
cur table: 1764
epoch: 1000
next table: 2407
cur table: 2424
epoch: 1000
next table: 1756
cur table: 1757
epoch: 1000
next table: 2399
cur table: 2407
epoch: 1000
next table: 1759
cur table: 1756
epoch: 1000
next table: 2413
cur table: 2399
epoch: 1000
next table: 1758
cur table: 1759
epoch: 1000
next table: 2401
cur table: 2413
epoch: 1000
next table: 1781
cur table: 1758
epoch: 1000
next table: 2388
cur table: 2401
epoch: 1000
next table: 1789
cur table: 1781
epoch: 1000
next table: 2392
cur table: 2388
epoch: 1000
next table: 1775
cur table: 1789
epoch: 1000
next table: 2412
cur table: 2392
epoch: 1000
next table: 1779
cur table: 1775
epoch: 1000
next table: 2379
cur table: 2412
epoch: 1000
next table: 1778
cur table: 1779
epoch: 1000
next table: 2381
cur table: 2379
epoch: 1000
next table: 1780
cur table: 1778
epoch: 1000
next table: 2384
cur table: 2381
epoch: 1000
next table: 1784
cur table: 1780
epoch: 1000
next table: 2383
cur table: 2384
epoch: 1000
next table: 1787
cur table: 1784
epoch: 1000
next table: 2397
cur table: 2383
epoch: 1000
next table: 1768
cur table: 1787
epoch: 1000
next table: 2394
cur table: 2397
epoch: 1000
next table: 1759
cur table: 1768
epoch: 1000
next table: 2400
cur table: 2394
epoch: 1000
next table: 1764
cur table: 1759
epoch: 1000
next table: 2414
cur table: 2400
epoch: 1000
next table: 1758
cur table: 1764
Heartbeat CPU 0 instructions: 10000000 cycles: 2732971 heartbeat IPC: 3.65902 cumulative IPC: 3.65902 (Simulation time: 0 hr 3 min 13 sec) 
epoch: 1000
next table: 2425
cur table: 2414
epoch: 1000
next table: 1764
cur table: 1758
epoch: 1000
next table: 2412
cur table: 2425
epoch: 1000
next table: 1758
cur table: 1764
epoch: 1000
next table: 2411
cur table: 2412
epoch: 1000
next table: 1782
cur table: 1758
epoch: 1000
next table: 2417
cur table: 2411
epoch: 1000
next table: 1769
cur table: 1782
epoch: 1000
next table: 2413
cur table: 2417
epoch: 1000
next table: 1767
cur table: 1769
epoch: 1000
next table: 2379
cur table: 2413
epoch: 1000
next table: 1755
cur table: 1767
epoch: 1000
next table: 2404
cur table: 2379
epoch: 1000
next table: 1764
cur table: 1755
epoch: 1000
next table: 2406
cur table: 2404
epoch: 1000
next table: 1772
cur table: 1764
epoch: 1000
next table: 2401
cur table: 2406
epoch: 1000
next table: 1770
cur table: 1772
epoch: 1000
next table: 2400
cur table: 2401
epoch: 1000
next table: 1781
cur table: 1770
epoch: 1000
next table: 2403
cur table: 2400
epoch: 1000
next table: 1777
cur table: 1781
epoch: 1000
next table: 2400
cur table: 2403
epoch: 1000
next table: 1769
cur table: 1777
epoch: 1000
next table: 2390
cur table: 2400
epoch: 1000
next table: 1770
cur table: 1769
epoch: 1000
next table: 2409
cur table: 2390
epoch: 1000
next table: 1756
cur table: 1770
epoch: 1000
next table: 2413
cur table: 2409
epoch: 1000
next table: 1750
cur table: 1756
epoch: 1000
next table: 2419
cur table: 2413
epoch: 1000
next table: 1758
cur table: 1750
epoch: 1000
next table: 2431
cur table: 2419
epoch: 1000
next table: 1752
cur table: 1758
epoch: 1000
next table: 2424
cur table: 2431
epoch: 1000
next table: 1767
cur table: 1752
epoch: 1000
next table: 2415
cur table: 2424
epoch: 1000
next table: 1783
cur table: 1767
epoch: 1000
next table: 2380
cur table: 2415
epoch: 1000
next table: 1774
cur table: 1783
epoch: 1000
next table: 2376
cur table: 2380
epoch: 1000
next table: 1789
cur table: 1774
epoch: 1000
next table: 2382
cur table: 2376
epoch: 1000
next table: 1761
cur table: 1789
epoch: 1000
next table: 2431
cur table: 2382
epoch: 1000
next table: 1764
cur table: 1761
epoch: 1000
next table: 2427
cur table: 2431
epoch: 1000
next table: 1752
cur table: 1764
epoch: 1000
next table: 2412
cur table: 2427
epoch: 1000
next table: 1752
cur table: 1752
epoch: 1000
next table: 2430
cur table: 2412
epoch: 1000
next table: 1754
cur table: 1752
epoch: 1000
next table: 2433
cur table: 2430
epoch: 1000
next table: 1754
cur table: 1754
epoch: 1000
next table: 2409
cur table: 2433
epoch: 1000
next table: 1786
cur table: 1754
epoch: 1000
next table: 2359
cur table: 2409
epoch: 1000
next table: 1798
cur table: 1786
epoch: 1000
next table: 2366
cur table: 2359
epoch: 1000
next table: 2394
cur table: 2366
epoch: 1000
next table: 1777
cur table: 1798
epoch: 1000
next table: 2404
cur table: 2394
epoch: 1000
next table: 1778
cur table: 1777
epoch: 1000
next table: 2428
cur table: 2404
epoch: 1000
next table: 1772
cur table: 1778
epoch: 1000
next table: 2406
cur table: 2428
epoch: 1000
next table: 1766
cur table: 1772
epoch: 1000
next table: 2411
cur table: 2406
epoch: 1000
next table: 1751
cur table: 1766
epoch: 1000
next table: 2410
cur table: 2411
epoch: 1000
next table: 1752
cur table: 1751
epoch: 1000
next table: 2409
cur table: 2410
epoch: 1000
next table: 1755
cur table: 1752
epoch: 1000
next table: 2424
cur table: 2409
epoch: 1000
next table: 1759
cur table: 1755
epoch: 1000
next table: 2416
cur table: 2424
epoch: 1000
next table: 1761
cur table: 1759
epoch: 1000
next table: 2424
cur table: 2416
epoch: 1000
next table: 1765
cur table: 1761
epoch: 1000
next table: 2425
cur table: 2424
epoch: 1000
next table: 1753
cur table: 1765
epoch: 1000
next table: 2425
cur table: 2425
epoch: 1000
next table: 1769
cur table: 1753
epoch: 1000
next table: 2399
cur table: 2425
epoch: 1000
next table: 1769
cur table: 1769
epoch: 1000
next table: 2411
cur table: 2399
epoch: 1000
next table: 1761
cur table: 1769
epoch: 1000
next table: 2401
cur table: 2411
epoch: 1000
next table: 1752
cur table: 1761
epoch: 1000
next table: 2418
cur table: 2401
epoch: 1000
next table: 1764
cur table: 1752
epoch: 1000
next table: 2377
cur table: 2418
epoch: 1000
next table: 1787
cur table: 1764
epoch: 1000
next table: 2408
cur table: 2377
epoch: 1000
next table: 1774
cur table: 1787
epoch: 1000
next table: 2331
cur table: 2408
epoch: 1000
next table: 1819
cur table: 1774
epoch: 1000
next table: 2375
cur table: 2331
epoch: 1000
next table: 1771
cur table: 1819
epoch: 1000
next table: 2426
cur table: 2375
epoch: 1000
next table: 1766
cur table: 1771
epoch: 1000
next table: 2425
cur table: 2426
epoch: 1000
next table: 1754
cur table: 1766
epoch: 1000
next table: 2414
cur table: 2425
epoch: 1000
next table: 1768
cur table: 1754
epoch: 1000
next table: 2424
cur table: 2414
epoch: 1000
next table: 1758
cur table: 1768
epoch: 1000
next table: 2429
cur table: 2424
epoch: 1000
next table: 1752
cur table: 1758
epoch: 1000
next table: 2432
cur table: 2429
epoch: 1000
next table: 1759
cur table: 1752
epoch: 1000
next table: 2410
cur table: 2432
epoch: 1000
next table: 1753
cur table: 1759
epoch: 1000
next table: 2408
cur table: 2410
epoch: 1000
next table: 1755
cur table: 1753
epoch: 1000
next table: 2418
cur table: 2408
epoch: 1000
next table: 1758
cur table: 1755
epoch: 1000
next table: 2421
cur table: 2418
epoch: 1000
next table: 1761
cur table: 1758
epoch: 1000
next table: 2423
cur table: 2421
epoch: 1000
next table: 1764
cur table: 1761
epoch: 1000
next table: 2415
cur table: 2423
epoch: 1000
next table: 1768
cur table: 1764
epoch: 1000
next table: 2410
cur table: 2415
epoch: 1000
next table: 1773
cur table: 1768
epoch: 1000
next table: 2421
cur table: 2410
epoch: 1000
next table: 1765
cur table: 1773
epoch: 1000
next table: 2397
cur table: 2421
epoch: 1000
next table: 1760
cur table: 1765
epoch: 1000
next table: 2385
cur table: 2397
epoch: 1000
next table: 1766
cur table: 1760
epoch: 1000
next table: 2387
cur table: 2385
epoch: 1000
next table: 1775
cur table: 1766
epoch: 1000
next table: 2408
cur table: 2387
epoch: 1000
next table: 1762
cur table: 1775
epoch: 1000
next table: 2431
cur table: 2408
epoch: 1000
next table: 1754
cur table: 1762
epoch: 1000
next table: 2417
cur table: 2431
epoch: 1000
next table: 1762
cur table: 1754
epoch: 1000
next table: 2434
cur table: 2417
epoch: 1000
next table: 1755
cur table: 1762
epoch: 1000
next table: 2428
cur table: 2434
epoch: 1000
next table: 1768
cur table: 1755
epoch: 1000
next table: 2416
cur table: 2428
epoch: 1000
next table: 1766
cur table: 1768
epoch: 1000
next table: 2397
cur table: 2416
epoch: 1000
next table: 1754
cur table: 1766
epoch: 1000
next table: 2405
cur table: 2397
epoch: 1000
next table: 1753
cur table: 1754
epoch: 1000
next table: 2409
cur table: 2405
epoch: 1000
next table: 1756
cur table: 1753
epoch: 1000
next table: 2430
cur table: 2409
epoch: 1000
next table: 1757
cur table: 1756
epoch: 1000
next table: 2405
cur table: 2430
epoch: 1000
next table: 1758
cur table: 1757
epoch: 1000
next table: 2426
cur table: 2405
epoch: 1000
next table: 1761
cur table: 1758
epoch: 1000
next table: 2416
cur table: 2426
epoch: 1000
next table: 1764
cur table: 1761
epoch: 1000
next table: 2437
cur table: 2416
epoch: 1000
next table: 1765
cur table: 1764
epoch: 1000
next table: 2396
cur table: 2437
epoch: 1000
next table: 1770
cur table: 1765
epoch: 1000
next table: 2396
cur table: 2396
epoch: 1000
next table: 1770
cur table: 1770
epoch: 1000
next table: 2404
cur table: 2396
epoch: 1000
next table: 1759
cur table: 1770
epoch: 1000
next table: 2415
cur table: 2404
epoch: 1000
next table: 1755
cur table: 1759
epoch: 1000
next table: 2409
cur table: 2415
epoch: 1000
next table: 1755
cur table: 1755
epoch: 1000
next table: 2423
cur table: 2409
epoch: 1000
next table: 1762
cur table: 1755
epoch: 1000
next table: 2423
cur table: 2423
epoch: 1000
next table: 1764
cur table: 1762
epoch: 1000
next table: 2407
cur table: 2423
epoch: 1000
next table: 1781
cur table: 1764
epoch: 1000
next table: 2380
cur table: 2407
epoch: 1000
next table: 1779
cur table: 1781
epoch: 1000
next table: 2377
cur table: 2380
epoch: 1000
next table: 1773
cur table: 1779
epoch: 1000
next table: 2392
cur table: 2377
epoch: 1000
next table: 1798
cur table: 1773
epoch: 1000
next table: 2381
cur table: 2392
epoch: 1000
next table: 1788
cur table: 1798
epoch: 1000
next table: 2408
cur table: 2381
epoch: 1000
next table: 1775
cur table: 1788
epoch: 1000
next table: 2386
cur table: 2408
epoch: 1000
next table: 1777
cur table: 1775
epoch: 1000
next table: 2373
cur table: 2386
epoch: 1000
next table: 1771
cur table: 1777
epoch: 1000
next table: 2389
cur table: 2373
epoch: 1000
next table: 1762
cur table: 1771
epoch: 1000
next table: 2414
cur table: 2389
epoch: 1000
next table: 1774
cur table: 1762
epoch: 1000
next table: 2405
cur table: 2414
epoch: 1000
next table: 1759
cur table: 1774
epoch: 1000
next table: 2421
cur table: 2405
epoch: 1000
next table: 1764
cur table: 1759
epoch: 1000
next table: 2435
cur table: 2421
epoch: 1000
next table: 1755
cur table: 1764
epoch: 1000
next table: 2403
cur table: 2435
epoch: 1000
next table: 1777
cur table: 1755
epoch: 1000
next table: 2391
cur table: 2403
epoch: 1000
next table: 1766
cur table: 1777
epoch: 1000
next table: 2417
cur table: 2391
epoch: 1000
next table: 1752
cur table: 1766
epoch: 1000
next table: 2409
cur table: 2417
epoch: 1000
next table: 1765
cur table: 1752
epoch: 1000
next table: 2414
cur table: 2409
epoch: 1000
next table: 1765
cur table: 1765
epoch: 1000
next table: 2395
cur table: 2414
epoch: 1000
next table: 1762
cur table: 1765
epoch: 1000
next table: 2423
cur table: 2395
epoch: 1000
next table: 1768
cur table: 1762
epoch: 1000
next table: 2413
cur table: 2423
epoch: 1000
next table: 1777
cur table: 1768
epoch: 1000
next table: 2377
cur table: 2413
epoch: 1000
next table: 1761
cur table: 1777
epoch: 1000
next table: 2403
cur table: 2377
epoch: 1000
next table: 1769
cur table: 1761
epoch: 1000
next table: 2416
cur table: 2403
epoch: 1000
next table: 1769
cur table: 1769
epoch: 1000
next table: 2420
cur table: 2416
epoch: 1000
next table: 1758
cur table: 1769
epoch: 1000
next table: 2418
cur table: 2420
epoch: 1000
next table: 1762
cur table: 1758
epoch: 1000
next table: 2404
cur table: 2418
epoch: 1000
next table: 1770
cur table: 1762
epoch: 1000
next table: 2415
cur table: 2404
epoch: 1000
next table: 1773
cur table: 1770
epoch: 1000
next table: 2353
cur table: 2415
epoch: 1000
next table: 1800
cur table: 1773
epoch: 1000
next table: 2370
cur table: 2353
epoch: 1000
next table: 1783
cur table: 1800
epoch: 1000
next table: 2397
cur table: 2370
epoch: 1000
next table: 1787
cur table: 1783
epoch: 1000
next table: 2377
cur table: 2397
epoch: 1000
next table: 1781
cur table: 1787
epoch: 1000
next table: 2406
cur table: 2377
epoch: 1000
next table: 1786
cur table: 1781
epoch: 1000
next table: 2371
cur table: 2406
epoch: 1000
next table: 1780
cur table: 1786
epoch: 1000
next table: 2399
cur table: 2371
epoch: 1000
next table: 1761
cur table: 1780
epoch: 1000
next table: 2403
cur table: 2399
epoch: 1000
next table: 1761
cur table: 1761
epoch: 1000
next table: 2420
cur table: 2403
epoch: 1000
next table: 1752
cur table: 1761
epoch: 1000
next table: 2410
cur table: 2420
epoch: 1000
next table: 1765
cur table: 1752
epoch: 1000
next table: 2416
cur table: 2410
epoch: 1000
next table: 1760
cur table: 1765
epoch: 1000
next table: 2429
cur table: 2416
epoch: 1000
next table: 1762
cur table: 1760
epoch: 1000
next table: 2408
cur table: 2429
epoch: 1000
next table: 1758
cur table: 1762
epoch: 1000
next table: 2406
cur table: 2408
epoch: 1000
next table: 1766
cur table: 1758
epoch: 1000
next table: 2401
cur table: 2406
epoch: 1000
next table: 1769
cur table: 1766
epoch: 1000
next table: 2407
cur table: 2401
epoch: 1000
next table: 1766
cur table: 1769
epoch: 1000
next table: 2422
cur table: 2407
epoch: 1000
next table: 1756
cur table: 1766
epoch: 1000
next table: 2414
cur table: 2422
epoch: 1000
next table: 1761
cur table: 1756
epoch: 1000
next table: 2413
cur table: 2414
epoch: 1000
next table: 1782
cur table: 1761
epoch: 1000
next table: 2396
cur table: 2413
epoch: 1000
next table: 1784
cur table: 1782
epoch: 1000
next table: 2363
cur table: 2396
epoch: 1000
next table: 1783
cur table: 1784
epoch: 1000
next table: 2374
cur table: 2363
epoch: 1000
next table: 2379
cur table: 2374
epoch: 1000
next table: 1788
cur table: 1783
epoch: 1000
next table: 2395
cur table: 2379
epoch: 1000
next table: 1788
cur table: 1788
epoch: 1000
next table: 2383
cur table: 2395
epoch: 1000
next table: 1791
cur table: 1788
epoch: 1000
next table: 2339
cur table: 2383
epoch: 1000
next table: 1807
cur table: 1791
epoch: 1000
next table: 2326
cur table: 2339
epoch: 1000
next table: 1847
cur table: 1807
epoch: 1000
next table: 2369
cur table: 2326
epoch: 1000
next table: 1794
cur table: 1847
epoch: 1000
next table: 2333
cur table: 2369
epoch: 1000
next table: 1784
cur table: 1794
epoch: 1000
next table: 2410
cur table: 2333
epoch: 1000
next table: 1753
cur table: 1784
epoch: 1000
next table: 2424
cur table: 2410
epoch: 1000
next table: 1757
cur table: 1753
epoch: 1000
next table: 2424
cur table: 2424
epoch: 1000
next table: 1758
cur table: 1757
epoch: 1000
next table: 2422
cur table: 2424
epoch: 1000
next table: 1761
cur table: 1758
epoch: 1000
next table: 2429
cur table: 2422
epoch: 1000
next table: 1758
cur table: 1761
epoch: 1000
next table: 2433
cur table: 2429
epoch: 1000
next table: 1757
cur table: 1758
epoch: 1000
next table: 2415
cur table: 2433
epoch: 1000
next table: 1776
cur table: 1757
epoch: 1000
next table: 2384
cur table: 2415
epoch: 1000
next table: 1766
cur table: 1776
epoch: 1000
next table: 2391
cur table: 2384
epoch: 1000
next table: 1763
cur table: 1766
epoch: 1000
next table: 2420
cur table: 2391
epoch: 1000
next table: 1753
cur table: 1763
epoch: 1000
next table: 2419
cur table: 2420
epoch: 1000
next table: 1754
cur table: 1753
epoch: 1000
next table: 2422
cur table: 2419
epoch: 1000
next table: 1761
cur table: 1754
epoch: 1000
next table: 2404
cur table: 2422
epoch: 1000
next table: 1787
cur table: 1761
epoch: 1000
next table: 2393
cur table: 2404
epoch: 1000
next table: 1778
cur table: 1787
epoch: 1000
next table: 2401
cur table: 2393
epoch: 1000
next table: 1770
cur table: 1778
epoch: 1000
next table: 2369
cur table: 2401
epoch: 1000
next table: 1778
cur table: 1770
epoch: 1000
next table: 2401
cur table: 2369
epoch: 1000
next table: 1801
cur table: 1778
epoch: 1000
next table: 2363
cur table: 2401
epoch: 1000
next table: 1791
cur table: 1801
epoch: 1000
next table: 2408
cur table: 2363
epoch: 1000
next table: 1774
cur table: 1791
epoch: 1000
next table: 2366
cur table: 2408
epoch: 1000
next table: 1769
cur table: 1774
epoch: 1000
next table: 2393
cur table: 2366
epoch: 1000
next table: 1768
cur table: 1769
epoch: 1000
next table: 2395
cur table: 2393
epoch: 1000
next table: 1758
cur table: 1768
epoch: 1000
next table: 2418
cur table: 2395
epoch: 1000
next table: 1779
cur table: 1758
epoch: 1000
next table: 2423
cur table: 2418
epoch: 1000
next table: 1762
cur table: 1779
epoch: 1000
next table: 2412
cur table: 2423
epoch: 1000
next table: 1748
cur table: 1762
epoch: 1000
next table: 2442
cur table: 2412
epoch: 1000
next table: 1768
cur table: 1748
epoch: 1000
next table: 2379
cur table: 2442
epoch: 1000
next table: 1794
cur table: 1768
epoch: 1000
next table: 2358
cur table: 2379
epoch: 1000
next table: 1786
cur table: 1794
epoch: 1000
next table: 2386
cur table: 2358
epoch: 1000
next table: 1780
cur table: 1786
epoch: 1000
next table: 2385
cur table: 2386
epoch: 1000
next table: 1783
cur table: 1780
epoch: 1000
next table: 2401
cur table: 2385
epoch: 1000
next table: 1762
cur table: 1783
epoch: 1000
next table: 2418
cur table: 2401
epoch: 1000
next table: 1757
cur table: 1762
epoch: 1000
next table: 2409
cur table: 2418
epoch: 1000
next table: 1762
cur table: 1757
epoch: 1000
next table: 2401
cur table: 2409
epoch: 1000
next table: 1760
cur table: 1762
epoch: 1000
next table: 2421
cur table: 2401
epoch: 1000
next table: 1760
cur table: 1760
epoch: 1000
next table: 2402
cur table: 2421
epoch: 1000
next table: 1784
cur table: 1760
epoch: 1000
next table: 2399
cur table: 2402
epoch: 1000
next table: 1798
cur table: 1784
epoch: 1000
next table: 2388
cur table: 2399
epoch: 1000
next table: 1777
cur table: 1798
epoch: 1000
next table: 2388
cur table: 2388
epoch: 1000
next table: 1767
cur table: 1777
epoch: 1000
next table: 2383
cur table: 2388
epoch: 1000
next table: 1779
cur table: 1767
epoch: 1000
next table: 2389
cur table: 2383
epoch: 1000
next table: 1781
cur table: 1779
epoch: 1000
next table: 2371
cur table: 2389
epoch: 1000
next table: 1823
cur table: 1781
epoch: 1000
next table: 2359
cur table: 2371
epoch: 1000
next table: 1797
cur table: 1823
epoch: 1000
next table: 2344
cur table: 2359
epoch: 1000
next table: 1836
cur table: 1797
epoch: 1000
next table: 2315
cur table: 2344
epoch: 1000
next table: 2323
cur table: 2315
epoch: 1000
next table: 1833
cur table: 1836
epoch: 1000
next table: 2306
cur table: 2323
epoch: 1000
next table: 1844
cur table: 1833
epoch: 1000
next table: 2323
cur table: 2306
epoch: 1000
next table: 1832
cur table: 1844
epoch: 1000
next table: 2381
cur table: 2323
epoch: 1000
next table: 1789
cur table: 1832
epoch: 1000
next table: 2366
cur table: 2381
epoch: 1000
next table: 1770
cur table: 1789
epoch: 1000
next table: 2389
cur table: 2366
epoch: 1000
next table: 1788
cur table: 1770
epoch: 1000
next table: 2353
cur table: 2389
epoch: 1000
next table: 1807
cur table: 1788
epoch: 1000
next table: 2385
cur table: 2353
epoch: 1000
next table: 1796
cur table: 1807
epoch: 1000
next table: 2290
cur table: 2385
epoch: 1000
next table: 1855
cur table: 1796
epoch: 1000
next table: 2316
cur table: 2290
epoch: 1000
next table: 1827
cur table: 1855
epoch: 1000
next table: 2290
cur table: 2316
epoch: 1000
next table: 1871
cur table: 1827
epoch: 1000
next table: 2311
cur table: 2290
epoch: 1000
next table: 1846
cur table: 1871
epoch: 1000
next table: 2314
cur table: 2311
epoch: 1000
next table: 1855
cur table: 1846
epoch: 1000
next table: 2285
cur table: 2314
epoch: 1000
next table: 1809
cur table: 1855
epoch: 1000
next table: 2343
cur table: 2285
epoch: 1000
next table: 1790
cur table: 1809
epoch: 1000
next table: 2388
cur table: 2343
epoch: 1000
next table: 1766
cur table: 1790
epoch: 1000
next table: 2392
cur table: 2388
epoch: 1000
next table: 2358
cur table: 2392
epoch: 1000
next table: 1788
cur table: 1766
epoch: 1000
next table: 2400
cur table: 2358
epoch: 1000
next table: 1770
cur table: 1788
epoch: 1000
next table: 2416
cur table: 2400
epoch: 1000
next table: 1779
cur table: 1770
epoch: 1000
next table: 2396
cur table: 2416
epoch: 1000
next table: 1774
cur table: 1779
epoch: 1000
next table: 2388
cur table: 2396
epoch: 1000
next table: 1778
cur table: 1774
epoch: 1000
next table: 2340
cur table: 2388
epoch: 1000
next table: 1810
cur table: 1778
epoch: 1000
next table: 2395
cur table: 2340
epoch: 1000
next table: 1788
cur table: 1810
epoch: 1000
next table: 2366
cur table: 2395
epoch: 1000
next table: 1796
cur table: 1788
epoch: 1000
next table: 2376
cur table: 2366
epoch: 1000
next table: 1794
cur table: 1796
epoch: 1000
next table: 2343
cur table: 2376
epoch: 1000
next table: 1791
cur table: 1794
epoch: 1000
next table: 2346
cur table: 2343
epoch: 1000
next table: 1822
cur table: 1791
epoch: 1000
next table: 2388
cur table: 2346
epoch: 1000
next table: 1776
cur table: 1822
epoch: 1000
next table: 2389
cur table: 2388
epoch: 1000
next table: 1798
cur table: 1776
epoch: 1000
next table: 2330
cur table: 2389
epoch: 1000
next table: 1804
cur table: 1798
epoch: 1000
next table: 2351
cur table: 2330
epoch: 1000
next table: 1819
cur table: 1804
Heartbeat CPU 0 instructions: 20000002 cycles: 5468820 heartbeat IPC: 3.65517 cumulative IPC: 3.6571 (Simulation time: 0 hr 6 min 26 sec) 
epoch: 1000
next table: 2375
cur table: 2351
epoch: 1000
next table: 1815
cur table: 1819
epoch: 1000
next table: 2313
cur table: 2375
epoch: 1000
next table: 1871
cur table: 1815
epoch: 1000
next table: 2286
cur table: 2313
epoch: 1000
next table: 1805
cur table: 1871
epoch: 1000
next table: 2344
cur table: 2286
epoch: 1000
next table: 1830
cur table: 1805
epoch: 1000
next table: 2313
cur table: 2344
epoch: 1000
next table: 1777
cur table: 1830
epoch: 1000
next table: 2397
cur table: 2313
epoch: 1000
next table: 1780
cur table: 1777
epoch: 1000
next table: 2382
cur table: 2397
epoch: 1000
next table: 1817
cur table: 1780
epoch: 1000
next table: 2348
cur table: 2382
epoch: 1000
next table: 1823
cur table: 1817
epoch: 1000
next table: 2313
cur table: 2348
epoch: 1000
next table: 2338
cur table: 2313
epoch: 1000
next table: 1837
cur table: 1823
epoch: 1000
next table: 2304
cur table: 2338
epoch: 1000
next table: 1836
cur table: 1837
epoch: 1000
next table: 2361
cur table: 2304
epoch: 1000
next table: 1804
cur table: 1836
epoch: 1000
next table: 2376
cur table: 2361
epoch: 1000
next table: 1798
cur table: 1804
epoch: 1000
next table: 2401
cur table: 2376
epoch: 1000
next table: 1786
cur table: 1798
epoch: 1000
next table: 2314
cur table: 2401
epoch: 1000
next table: 1809
cur table: 1786
epoch: 1000
next table: 2325
cur table: 2314
epoch: 1000
next table: 1832
cur table: 1809
epoch: 1000
next table: 2306
cur table: 2325
epoch: 1000
next table: 1875
cur table: 1832
epoch: 1000
next table: 2228
cur table: 2306
epoch: 1000
next table: 1904
cur table: 1875
epoch: 1000
next table: 2267
cur table: 2228
epoch: 1000
next table: 1897
cur table: 1904
epoch: 1000
next table: 2236
cur table: 2267
epoch: 1000
next table: 1834
cur table: 1897
epoch: 1000
next table: 2349
cur table: 2236
epoch: 1000
next table: 1860
cur table: 1834
epoch: 1000
next table: 2256
cur table: 2349
epoch: 1000
next table: 2336
cur table: 2256
epoch: 1000
next table: 1855
cur table: 1860
epoch: 1000
next table: 2309
cur table: 2336
epoch: 1000
next table: 1816
cur table: 1855
epoch: 1000
next table: 2316
cur table: 2309
epoch: 1000
next table: 1837
cur table: 1816
epoch: 1000
next table: 2311
cur table: 2316
epoch: 1000
next table: 1836
cur table: 1837
epoch: 1000
next table: 2343
cur table: 2311
epoch: 1000
next table: 1799
cur table: 1836
epoch: 1000
next table: 2367
cur table: 2343
epoch: 1000
next table: 1798
cur table: 1799
epoch: 1000
next table: 2346
cur table: 2367
epoch: 1000
next table: 1842
cur table: 1798
epoch: 1000
next table: 2291
cur table: 2346
epoch: 1000
next table: 1848
cur table: 1842
epoch: 1000
next table: 2319
cur table: 2291
epoch: 1000
next table: 1868
cur table: 1848
epoch: 1000
next table: 2236
cur table: 2319
epoch: 1000
next table: 1858
cur table: 1868
epoch: 1000
next table: 2326
cur table: 2236
epoch: 1000
next table: 1869
cur table: 1858
epoch: 1000
next table: 2271
cur table: 2326
epoch: 1000
next table: 1855
cur table: 1869
epoch: 1000
next table: 2298
cur table: 2271
epoch: 1000
next table: 2275
cur table: 2298
epoch: 1000
next table: 1860
cur table: 1855
epoch: 1000
next table: 2278
cur table: 2275
epoch: 1000
next table: 1864
cur table: 1860
epoch: 1000
next table: 2285
cur table: 2278
epoch: 1000
next table: 1864
cur table: 1864
epoch: 1000
next table: 2286
cur table: 2285
epoch: 1000
next table: 1843
cur table: 1864
epoch: 1000
next table: 2315
cur table: 2286
epoch: 1000
next table: 1850
cur table: 1843
epoch: 1000
next table: 2283
cur table: 2315
epoch: 1000
next table: 1860
cur table: 1850
epoch: 1000
next table: 2322
cur table: 2283
epoch: 1000
next table: 1850
cur table: 1860
epoch: 1000
next table: 2271
cur table: 2322
epoch: 1000
next table: 1881
cur table: 1850
epoch: 1000
next table: 2309
cur table: 2271
epoch: 1000
next table: 1856
cur table: 1881
epoch: 1000
next table: 2275
cur table: 2309
epoch: 1000
next table: 1853
cur table: 1856
epoch: 1000
next table: 2286
cur table: 2275
epoch: 1000
next table: 2292
cur table: 2286
epoch: 1000
next table: 1848
cur table: 1853
epoch: 1000
next table: 2279
cur table: 2292
epoch: 1000
next table: 1867
cur table: 1848
epoch: 1000
next table: 2316
cur table: 2279
epoch: 1000
next table: 1830
cur table: 1867
epoch: 1000
next table: 2297
cur table: 2316
epoch: 1000
next table: 1879
cur table: 1830
epoch: 1000
next table: 2279
cur table: 2297
epoch: 1000
next table: 1843
cur table: 1879
epoch: 1000
next table: 2267
cur table: 2279
epoch: 1000
next table: 1874
cur table: 1843
epoch: 1000
next table: 2312
cur table: 2267
epoch: 1000
next table: 1871
cur table: 1874
epoch: 1000
next table: 2257
cur table: 2312
epoch: 1000
next table: 1857
cur table: 1871
epoch: 1000
next table: 2326
cur table: 2257
epoch: 1000
next table: 1841
cur table: 1857
epoch: 1000
next table: 2281
cur table: 2326
epoch: 1000
next table: 1901
cur table: 1841
epoch: 1000
next table: 2260
cur table: 2281
epoch: 1000
next table: 2181
cur table: 2260
epoch: 1000
next table: 1920
cur table: 1901
epoch: 1000
next table: 2237
cur table: 2181
epoch: 1000
next table: 1888
cur table: 1920
epoch: 1000
next table: 2257
cur table: 2237
epoch: 1000
next table: 1891
cur table: 1888
epoch: 1000
next table: 2284
cur table: 2257
epoch: 1000
next table: 1850
cur table: 1891
epoch: 1000
next table: 2320
cur table: 2284
epoch: 1000
next table: 1824
cur table: 1850
epoch: 1000
next table: 2347
cur table: 2320
epoch: 1000
next table: 1853
cur table: 1824
epoch: 1000
next table: 2269
cur table: 2347
epoch: 1000
next table: 1840
cur table: 1853
epoch: 1000
next table: 2339
cur table: 2269
epoch: 1000
next table: 1839
cur table: 1840
epoch: 1000
next table: 2303
cur table: 2339
epoch: 1000
next table: 1852
cur table: 1839
epoch: 1000
next table: 2298
cur table: 2303
epoch: 1000
next table: 2299
cur table: 2298
epoch: 1000
next table: 1846
cur table: 1852
epoch: 1000
next table: 2286
cur table: 2299
epoch: 1000
next table: 1845
cur table: 1846
epoch: 1000
next table: 2361
cur table: 2286
epoch: 1000
next table: 1810
cur table: 1845
epoch: 1000
next table: 2314
cur table: 2361
epoch: 1000
next table: 1831
cur table: 1810
epoch: 1000
next table: 2293
cur table: 2314
epoch: 1000
next table: 1864
cur table: 1831
epoch: 1000
next table: 2322
cur table: 2293
epoch: 1000
next table: 1835
cur table: 1864
epoch: 1000
next table: 2287
cur table: 2322
epoch: 1000
next table: 1851
cur table: 1835
epoch: 1000
next table: 2307
cur table: 2287
epoch: 1000
next table: 1863
cur table: 1851
epoch: 1000
next table: 2257
cur table: 2307
epoch: 1000
next table: 1874
cur table: 1863
epoch: 1000
next table: 2323
cur table: 2257
epoch: 1000
next table: 1848
cur table: 1874
epoch: 1000
next table: 2265
cur table: 2323
epoch: 1000
next table: 1852
cur table: 1848
epoch: 1000
next table: 2294
cur table: 2265
epoch: 1000
next table: 2288
cur table: 2294
epoch: 1000
next table: 1852
cur table: 1852
epoch: 1000
next table: 2299
cur table: 2288
epoch: 1000
next table: 1842
cur table: 1852
epoch: 1000
next table: 2299
cur table: 2299
epoch: 1000
next table: 1859
cur table: 1842
epoch: 1000
next table: 2293
cur table: 2299
epoch: 1000
next table: 1834
cur table: 1859
epoch: 1000
next table: 2326
cur table: 2293
epoch: 1000
next table: 1866
cur table: 1834
epoch: 1000
next table: 2270
cur table: 2326
epoch: 1000
next table: 1857
cur table: 1866
epoch: 1000
next table: 2314
cur table: 2270
epoch: 1000
next table: 1856
cur table: 1857
epoch: 1000
next table: 2264
cur table: 2314
epoch: 1000
next table: 1856
cur table: 1856
epoch: 1000
next table: 2322
cur table: 2264
epoch: 1000
next table: 1834
cur table: 1856
epoch: 1000
next table: 2324
cur table: 2322
epoch: 1000
next table: 1820
cur table: 1834
epoch: 1000
next table: 2334
cur table: 2324
epoch: 1000
next table: 1827
cur table: 1820
epoch: 1000
next table: 2321
cur table: 2334
epoch: 1000
next table: 1822
cur table: 1827
epoch: 1000
next table: 2319
cur table: 2321
epoch: 1000
next table: 2314
cur table: 2319
epoch: 1000
next table: 1835
cur table: 1822
epoch: 1000
next table: 2360
cur table: 2314
epoch: 1000
next table: 1818
cur table: 1835
epoch: 1000
next table: 2370
cur table: 2360
epoch: 1000
next table: 1787
cur table: 1818
epoch: 1000
next table: 2367
cur table: 2370
epoch: 1000
next table: 1788
cur table: 1787
epoch: 1000
next table: 2388
cur table: 2367
epoch: 1000
next table: 1786
cur table: 1788
epoch: 1000
next table: 2360
cur table: 2388
epoch: 1000
next table: 1811
cur table: 1786
epoch: 1000
next table: 2406
cur table: 2360
epoch: 1000
next table: 1776
cur table: 1811
epoch: 1000
next table: 2288
cur table: 2406
epoch: 1000
next table: 1851
cur table: 1776
epoch: 1000
next table: 2301
cur table: 2288
epoch: 1000
next table: 1864
cur table: 1851
epoch: 1000
next table: 2252
cur table: 2301
epoch: 1000
next table: 1873
cur table: 1864
epoch: 1000
next table: 2305
cur table: 2252
epoch: 1000
next table: 1824
cur table: 1873
epoch: 1000
next table: 2324
cur table: 2305
epoch: 1000
next table: 1850
cur table: 1824
epoch: 1000
next table: 2291
cur table: 2324
epoch: 1000
next table: 1868
cur table: 1850
epoch: 1000
next table: 2301
cur table: 2291
epoch: 1000
next table: 1853
cur table: 1868
epoch: 1000
next table: 2272
cur table: 2301
epoch: 1000
next table: 2301
cur table: 2272
epoch: 1000
next table: 1869
cur table: 1853
epoch: 1000
next table: 2256
cur table: 2301
epoch: 1000
next table: 1873
cur table: 1869
epoch: 1000
next table: 2325
cur table: 2256
epoch: 1000
next table: 1854
cur table: 1873
epoch: 1000
next table: 2265
cur table: 2325
epoch: 1000
next table: 1832
cur table: 1854
epoch: 1000
next table: 2332
cur table: 2265
epoch: 1000
next table: 1819
cur table: 1832
epoch: 1000
next table: 2298
cur table: 2332
epoch: 1000
next table: 1856
cur table: 1819
epoch: 1000
next table: 2321
cur table: 2298
epoch: 1000
next table: 1814
cur table: 1856
epoch: 1000
next table: 2320
cur table: 2321
epoch: 1000
next table: 1862
cur table: 1814
epoch: 1000
next table: 2286
cur table: 2320
epoch: 1000
next table: 1837
cur table: 1862
epoch: 1000
next table: 2322
cur table: 2286
epoch: 1000
next table: 1833
cur table: 1837
epoch: 1000
next table: 2336
cur table: 2322
epoch: 1000
next table: 1846
cur table: 1833
epoch: 1000
next table: 2304
cur table: 2336
epoch: 1000
next table: 1819
cur table: 1846
epoch: 1000
next table: 2356
cur table: 2304
epoch: 1000
next table: 2320
cur table: 2356
epoch: 1000
next table: 1829
cur table: 1819
epoch: 1000
next table: 2308
cur table: 2320
epoch: 1000
next table: 1830
cur table: 1829
epoch: 1000
next table: 2339
cur table: 2308
epoch: 1000
next table: 1826
cur table: 1830
epoch: 1000
next table: 2304
cur table: 2339
epoch: 1000
next table: 1828
cur table: 1826
epoch: 1000
next table: 2329
cur table: 2304
epoch: 1000
next table: 1821
cur table: 1828
epoch: 1000
next table: 2357
cur table: 2329
epoch: 1000
next table: 1829
cur table: 1821
epoch: 1000
next table: 2292
cur table: 2357
epoch: 1000
next table: 1842
cur table: 1829
epoch: 1000
next table: 2318
cur table: 2292
epoch: 1000
next table: 1850
cur table: 1842
epoch: 1000
next table: 2314
cur table: 2318
epoch: 1000
next table: 1870
cur table: 1850
epoch: 1000
next table: 2256
cur table: 2314
epoch: 1000
next table: 1857
cur table: 1870
epoch: 1000
next table: 2307
cur table: 2256
epoch: 1000
next table: 1845
cur table: 1857
epoch: 1000
next table: 2278
cur table: 2307
epoch: 1000
next table: 1850
cur table: 1845
epoch: 1000
next table: 2312
cur table: 2278
epoch: 1000
next table: 2281
cur table: 2312
epoch: 1000
next table: 1851
cur table: 1850
epoch: 1000
next table: 2304
cur table: 2281
epoch: 1000
next table: 1857
cur table: 1851
epoch: 1000
next table: 2284
cur table: 2304
epoch: 1000
next table: 1842
cur table: 1857
epoch: 1000
next table: 2310
cur table: 2284
epoch: 1000
next table: 1850
cur table: 1842
epoch: 1000
next table: 2296
cur table: 2310
epoch: 1000
next table: 1866
cur table: 1850
epoch: 1000
next table: 2260
cur table: 2296
epoch: 1000
next table: 1868
cur table: 1866
epoch: 1000
next table: 2291
cur table: 2260
epoch: 1000
next table: 1903
cur table: 1868
epoch: 1000
next table: 2255
cur table: 2291
epoch: 1000
next table: 1861
cur table: 1903
epoch: 1000
next table: 2271
cur table: 2255
epoch: 1000
next table: 1874
cur table: 1861
epoch: 1000
next table: 2278
cur table: 2271
epoch: 1000
next table: 1809
cur table: 1874
epoch: 1000
next table: 2356
cur table: 2278
epoch: 1000
next table: 2347
cur table: 2356
epoch: 1000
next table: 1803
cur table: 1809
epoch: 1000
next table: 2378
cur table: 2347
epoch: 1000
next table: 1789
cur table: 1803
epoch: 1000
next table: 2372
cur table: 2378
epoch: 1000
next table: 1798
cur table: 1789
epoch: 1000
next table: 2402
cur table: 2372
epoch: 1000
next table: 1776
cur table: 1798
epoch: 1000
next table: 2327
cur table: 2402
epoch: 1000
next table: 1808
cur table: 1776
epoch: 1000
next table: 2368
cur table: 2327
epoch: 1000
next table: 1799
cur table: 1808
epoch: 1000
next table: 2372
cur table: 2368
epoch: 1000
next table: 1807
cur table: 1799
epoch: 1000
next table: 2417
cur table: 2372
epoch: 1000
next table: 1768
cur table: 1807
epoch: 1000
next table: 2393
cur table: 2417
epoch: 1000
next table: 1760
cur table: 1768
epoch: 1000
next table: 2343
cur table: 2393
epoch: 1000
next table: 1821
cur table: 1760
epoch: 1000
next table: 2337
cur table: 2343
epoch: 1000
next table: 1813
cur table: 1821
epoch: 1000
next table: 2309
cur table: 2337
epoch: 1000
next table: 1861
cur table: 1813
epoch: 1000
next table: 2262
cur table: 2309
epoch: 1000
next table: 1854
cur table: 1861
epoch: 1000
next table: 2328
cur table: 2262
epoch: 1000
next table: 1854
cur table: 1854
epoch: 1000
next table: 2283
cur table: 2328
epoch: 1000
next table: 1846
cur table: 1854
epoch: 1000
next table: 2318
cur table: 2283
epoch: 1000
next table: 1901
cur table: 1846
epoch: 1000
next table: 2235
cur table: 2318
epoch: 1000
next table: 2252
cur table: 2235
epoch: 1000
next table: 1903
cur table: 1901
epoch: 1000
next table: 2272
cur table: 2252
epoch: 1000
next table: 1866
cur table: 1903
epoch: 1000
next table: 2261
cur table: 2272
epoch: 1000
next table: 1870
cur table: 1866
epoch: 1000
next table: 2306
cur table: 2261
epoch: 1000
next table: 1821
cur table: 1870
epoch: 1000
next table: 2365
cur table: 2306
epoch: 1000
next table: 1808
cur table: 1821
epoch: 1000
next table: 2364
cur table: 2365
epoch: 1000
next table: 1796
cur table: 1808
epoch: 1000
next table: 2322
cur table: 2364
epoch: 1000
next table: 1835
cur table: 1796
epoch: 1000
next table: 2324
cur table: 2322
epoch: 1000
next table: 1853
cur table: 1835
epoch: 1000
next table: 2273
cur table: 2324
epoch: 1000
next table: 1860
cur table: 1853
epoch: 1000
next table: 2292
cur table: 2273
epoch: 1000
next table: 1849
cur table: 1860
epoch: 1000
next table: 2313
cur table: 2292
epoch: 1000
next table: 1849
cur table: 1849
epoch: 1000
next table: 2291
cur table: 2313
epoch: 1000
next table: 1831
cur table: 1849
epoch: 1000
next table: 2353
cur table: 2291
epoch: 1000
next table: 2221
cur table: 2353
epoch: 1000
next table: 1886
cur table: 1831
epoch: 1000
next table: 2345
cur table: 2221
epoch: 1000
next table: 1810
cur table: 1886
epoch: 1000
next table: 2299
cur table: 2345
epoch: 1000
next table: 1841
cur table: 1810
epoch: 1000
next table: 2319
cur table: 2299
epoch: 1000
next table: 1831
cur table: 1841
epoch: 1000
next table: 2287
cur table: 2319
epoch: 1000
next table: 1879
cur table: 1831
epoch: 1000
next table: 2285
cur table: 2287
epoch: 1000
next table: 1839
cur table: 1879
epoch: 1000
next table: 2312
cur table: 2285
epoch: 1000
next table: 1868
cur table: 1839
epoch: 1000
next table: 2292
cur table: 2312
epoch: 1000
next table: 1834
cur table: 1868
epoch: 1000
next table: 2318
cur table: 2292
epoch: 1000
next table: 1816
cur table: 1834
epoch: 1000
next table: 2379
cur table: 2318
epoch: 1000
next table: 1770
cur table: 1816
epoch: 1000
next table: 2374
cur table: 2379
epoch: 1000
next table: 1791
cur table: 1770
epoch: 1000
next table: 2351
cur table: 2374
epoch: 1000
next table: 1896
cur table: 1791
epoch: 1000
next table: 2240
cur table: 2351
epoch: 1000
next table: 2268
cur table: 2240
epoch: 1000
next table: 1874
cur table: 1896
epoch: 1000
next table: 2298
cur table: 2268
epoch: 1000
next table: 1859
cur table: 1874
epoch: 1000
next table: 2319
cur table: 2298
epoch: 1000
next table: 1832
cur table: 1859
epoch: 1000
next table: 2299
cur table: 2319
epoch: 1000
next table: 1863
cur table: 1832
epoch: 1000
next table: 2264
cur table: 2299
epoch: 1000
next table: 1847
cur table: 1863
epoch: 1000
next table: 2313
cur table: 2264
epoch: 1000
next table: 1855
cur table: 1847
epoch: 1000
next table: 2306
cur table: 2313
epoch: 1000
next table: 1879
cur table: 1855
epoch: 1000
next table: 2273
cur table: 2306
epoch: 1000
next table: 1810
cur table: 1879
epoch: 1000
next table: 2351
cur table: 2273
epoch: 1000
next table: 1865
cur table: 1810
epoch: 1000
next table: 2252
cur table: 2351
epoch: 1000
next table: 1850
cur table: 1865
epoch: 1000
next table: 2326
cur table: 2252
epoch: 1000
next table: 2219
cur table: 2326
epoch: 1000
next table: 1881
cur table: 1850
epoch: 1000
next table: 2353
cur table: 2219
epoch: 1000
next table: 1831
cur table: 1881
epoch: 1000
next table: 2276
cur table: 2353
epoch: 1000
next table: 1850
cur table: 1831
epoch: 1000
next table: 2334
cur table: 2276
epoch: 1000
next table: 1834
cur table: 1850
epoch: 1000
next table: 2300
cur table: 2334
epoch: 1000
next table: 1865
cur table: 1834
epoch: 1000
next table: 2285
cur table: 2300
epoch: 1000
next table: 1855
cur table: 1865
epoch: 1000
next table: 2295
cur table: 2285
epoch: 1000
next table: 1853
cur table: 1855
epoch: 1000
next table: 2283
cur table: 2295
epoch: 1000
next table: 1874
cur table: 1853
epoch: 1000
next table: 2306
cur table: 2283
epoch: 1000
next table: 1816
cur table: 1874
epoch: 1000
next table: 2294
cur table: 2306
epoch: 1000
next table: 1833
cur table: 1816
epoch: 1000
next table: 2316
cur table: 2294
epoch: 1000
next table: 2215
cur table: 2316
epoch: 1000
next table: 1920
cur table: 1833
epoch: 1000
next table: 2296
cur table: 2215
epoch: 1000
next table: 1861
cur table: 1920
epoch: 1000
next table: 2279
cur table: 2296
epoch: 1000
next table: 1868
cur table: 1861
epoch: 1000
next table: 2192
cur table: 2279
epoch: 1000
next table: 1929
cur table: 1868
epoch: 1000
next table: 2221
cur table: 2192
epoch: 1000
next table: 1906
cur table: 1929
epoch: 1000
next table: 2261
cur table: 2221
epoch: 1000
next table: 1899
cur table: 1906
epoch: 1000
next table: 2282
cur table: 2261
epoch: 1000
next table: 1845
cur table: 1899
epoch: 1000
next table: 2308
cur table: 2282
epoch: 1000
next table: 1839
cur table: 1845
epoch: 1000
next table: 2302
cur table: 2308
epoch: 1000
next table: 1832
cur table: 1839
epoch: 1000
next table: 2350
cur table: 2302
epoch: 1000
next table: 2288
cur table: 2350
epoch: 1000
next table: 1827
cur table: 1832
epoch: 1000
next table: 2311
cur table: 2288
epoch: 1000
next table: 1834
cur table: 1827
epoch: 1000
next table: 2324
cur table: 2311
epoch: 1000
next table: 1842
cur table: 1834
epoch: 1000
next table: 2293
cur table: 2324
epoch: 1000
next table: 1849
cur table: 1842
epoch: 1000
next table: 2343
cur table: 2293
epoch: 1000
next table: 1834
cur table: 1849
epoch: 1000
next table: 2252
cur table: 2343
epoch: 1000
next table: 1868
cur table: 1834
epoch: 1000
next table: 2322
cur table: 2252
epoch: 1000
next table: 1831
cur table: 1868
epoch: 1000
next table: 2345
cur table: 2322
epoch: 1000
next table: 1817
cur table: 1831
epoch: 1000
next table: 2335
cur table: 2345
epoch: 1000
next table: 1829
cur table: 1817
epoch: 1000
next table: 2304
cur table: 2335
epoch: 1000
next table: 1882
cur table: 1829
epoch: 1000
next table: 2270
cur table: 2304
epoch: 1000
next table: 1799
cur table: 1882
epoch: 1000
next table: 2349
cur table: 2270
epoch: 1000
next table: 1812
cur table: 1799
epoch: 1000
next table: 2360
cur table: 2349
epoch: 1000
next table: 1829
cur table: 1812
epoch: 1000
next table: 2302
cur table: 2360
Heartbeat CPU 0 instructions: 30000000 cycles: 8201859 heartbeat IPC: 3.65893 cumulative IPC: 3.65771 (Simulation time: 0 hr 9 min 40 sec) 
epoch: 1000
next table: 1774
cur table: 1829
epoch: 1000
next table: 2398
cur table: 2302
epoch: 1000
next table: 2360
cur table: 2398
epoch: 1000
next table: 1816
cur table: 1774
epoch: 1000
next table: 2351
cur table: 2360
epoch: 1000
next table: 1818
cur table: 1816
epoch: 1000
next table: 2279
cur table: 2351
epoch: 1000
next table: 1859
cur table: 1818
epoch: 1000
next table: 2337
cur table: 2279
epoch: 1000
next table: 1847
cur table: 1859
epoch: 1000
next table: 2255
cur table: 2337
epoch: 1000
next table: 1858
cur table: 1847
epoch: 1000
next table: 2298
cur table: 2255
epoch: 1000
next table: 1845
cur table: 1858
epoch: 1000
next table: 2264
cur table: 2298
epoch: 1000
next table: 1868
cur table: 1845
epoch: 1000
next table: 2308
cur table: 2264
epoch: 1000
next table: 1847
cur table: 1868
epoch: 1000
next table: 2276
cur table: 2308
epoch: 1000
next table: 1871
cur table: 1847
epoch: 1000
next table: 2286
cur table: 2276
epoch: 1000
next table: 1845
cur table: 1871
epoch: 1000
next table: 2327
cur table: 2286
epoch: 1000
next table: 1845
cur table: 1845
epoch: 1000
next table: 2284
cur table: 2327
epoch: 1000
next table: 2309
cur table: 2284
epoch: 1000
next table: 1868
cur table: 1845
epoch: 1000
next table: 2291
cur table: 2309
epoch: 1000
next table: 1851
cur table: 1868
epoch: 1000
next table: 2320
cur table: 2291
epoch: 1000
next table: 1843
cur table: 1851
epoch: 1000
next table: 2296
cur table: 2320
epoch: 1000
next table: 1837
cur table: 1843
epoch: 1000
next table: 2326
cur table: 2296
epoch: 1000
next table: 1812
cur table: 1837
epoch: 1000
next table: 2337
cur table: 2326
epoch: 1000
next table: 1825
cur table: 1812
epoch: 1000
next table: 2288
cur table: 2337
epoch: 1000
next table: 1842
cur table: 1825
epoch: 1000
next table: 2349
cur table: 2288
epoch: 1000
next table: 1795
cur table: 1842
epoch: 1000
next table: 2348
cur table: 2349
epoch: 1000
next table: 1873
cur table: 1795
epoch: 1000
next table: 2266
cur table: 2348
epoch: 1000
next table: 1840
cur table: 1873
epoch: 1000
next table: 2348
cur table: 2266
epoch: 1000
next table: 1844
cur table: 1840
epoch: 1000
next table: 2289
cur table: 2348
epoch: 1000
next table: 1846
cur table: 1844
epoch: 1000
next table: 2311
cur table: 2289
epoch: 1000
next table: 2260
cur table: 2311
epoch: 1000
next table: 1878
cur table: 1846
epoch: 1000
next table: 2268
cur table: 2260
epoch: 1000
next table: 1885
cur table: 1878
epoch: 1000
next table: 2295
cur table: 2268
epoch: 1000
next table: 1841
cur table: 1885
epoch: 1000
next table: 2311
cur table: 2295
epoch: 1000
next table: 1822
cur table: 1841
epoch: 1000
next table: 2399
cur table: 2311
epoch: 1000
next table: 1768
cur table: 1822
epoch: 1000
next table: 2361
cur table: 2399
epoch: 1000
next table: 1835
cur table: 1768
epoch: 1000
next table: 2296
cur table: 2361
epoch: 1000
next table: 1842
cur table: 1835
epoch: 1000
next table: 2309
cur table: 2296
epoch: 1000
next table: 1845
cur table: 1842
epoch: 1000
next table: 2334
cur table: 2309
epoch: 1000
next table: 1803
cur table: 1845
epoch: 1000
next table: 2368
cur table: 2334
epoch: 1000
next table: 1779
cur table: 1803
epoch: 1000
next table: 2390
cur table: 2368
epoch: 1000
next table: 1767
cur table: 1779
epoch: 1000
next table: 2412
cur table: 2390
epoch: 1000
next table: 1763
cur table: 1767
epoch: 1000
next table: 2388
cur table: 2412
epoch: 1000
next table: 1793
cur table: 1763
epoch: 1000
next table: 2366
cur table: 2388
epoch: 1000
next table: 1813
cur table: 1793
epoch: 1000
next table: 2319
cur table: 2366
epoch: 1000
next table: 1886
cur table: 1813
epoch: 1000
next table: 2258
cur table: 2319
epoch: 1000
next table: 1837
cur table: 1886
epoch: 1000
next table: 2297
cur table: 2258
epoch: 1000
next table: 2324
cur table: 2297
epoch: 1000
next table: 1861
cur table: 1837
epoch: 1000
next table: 2290
cur table: 2324
epoch: 1000
next table: 1846
cur table: 1861
epoch: 1000
next table: 2295
cur table: 2290
epoch: 1000
next table: 1882
cur table: 1846
epoch: 1000
next table: 2293
cur table: 2295
epoch: 1000
next table: 1817
cur table: 1882
epoch: 1000
next table: 2336
cur table: 2293
epoch: 1000
next table: 1845
cur table: 1817
epoch: 1000
next table: 2296
cur table: 2336
epoch: 1000
next table: 1829
cur table: 1845
epoch: 1000
next table: 2306
cur table: 2296
epoch: 1000
next table: 1858
cur table: 1829
epoch: 1000
next table: 2311
cur table: 2306
epoch: 1000
next table: 1859
cur table: 1858
epoch: 1000
next table: 2245
cur table: 2311
epoch: 1000
next table: 1866
cur table: 1859
epoch: 1000
next table: 2319
cur table: 2245
epoch: 1000
next table: 1853
cur table: 1866
epoch: 1000
next table: 2258
cur table: 2319
epoch: 1000
next table: 2301
cur table: 2258
epoch: 1000
next table: 1868
cur table: 1853
epoch: 1000
next table: 2277
cur table: 2301
epoch: 1000
next table: 1858
cur table: 1868
epoch: 1000
next table: 2296
cur table: 2277
epoch: 1000
next table: 1867
cur table: 1858
epoch: 1000
next table: 2320
cur table: 2296
epoch: 1000
next table: 1826
cur table: 1867
epoch: 1000
next table: 2311
cur table: 2320
epoch: 1000
next table: 1841
cur table: 1826
epoch: 1000
next table: 2329
cur table: 2311
epoch: 1000
next table: 1833
cur table: 1841
epoch: 1000
next table: 2295
cur table: 2329
epoch: 1000
next table: 1819
cur table: 1833
epoch: 1000
next table: 2360
cur table: 2295
epoch: 1000
next table: 1785
cur table: 1819
epoch: 1000
next table: 2382
cur table: 2360
epoch: 1000
next table: 1768
cur table: 1785
epoch: 1000
next table: 2429
cur table: 2382
epoch: 1000
next table: 1799
cur table: 1768
epoch: 1000
next table: 2343
cur table: 2429
epoch: 1000
next table: 1812
cur table: 1799
epoch: 1000
next table: 2345
cur table: 2343
epoch: 1000
next table: 1834
cur table: 1812
epoch: 1000
next table: 2337
cur table: 2345
epoch: 1000
next table: 1823
cur table: 1834
epoch: 1000
next table: 2294
cur table: 2337
epoch: 1000
next table: 1850
cur table: 1823
epoch: 1000
next table: 2316
cur table: 2294
epoch: 1000
next table: 1832
cur table: 1850
epoch: 1000
next table: 2324
cur table: 2316
epoch: 1000
next table: 2293
cur table: 2324
epoch: 1000
next table: 1826
cur table: 1832
epoch: 1000
next table: 2337
cur table: 2293
epoch: 1000
next table: 1817
cur table: 1826
epoch: 1000
next table: 2343
cur table: 2337
epoch: 1000
next table: 1836
cur table: 1817
epoch: 1000
next table: 2315
cur table: 2343
epoch: 1000
next table: 1810
cur table: 1836
epoch: 1000
next table: 2332
cur table: 2315
epoch: 1000
next table: 1863
cur table: 1810
epoch: 1000
next table: 2286
cur table: 2332
epoch: 1000
next table: 1825
cur table: 1863
epoch: 1000
next table: 2325
cur table: 2286
epoch: 1000
next table: 1845
cur table: 1825
epoch: 1000
next table: 2331
cur table: 2325
epoch: 1000
next table: 1836
cur table: 1845
epoch: 1000
next table: 2311
cur table: 2331
epoch: 1000
next table: 1825
cur table: 1836
epoch: 1000
next table: 2314
cur table: 2311
epoch: 1000
next table: 1839
cur table: 1825
epoch: 1000
next table: 2318
cur table: 2314
epoch: 1000
next table: 1800
cur table: 1839
epoch: 1000
next table: 2369
cur table: 2318
epoch: 1000
next table: 1783
cur table: 1800
epoch: 1000
next table: 2394
cur table: 2369
epoch: 1000
next table: 1768
cur table: 1783
epoch: 1000
next table: 2396
cur table: 2394
epoch: 1000
next table: 1830
cur table: 1768
epoch: 1000
next table: 2330
cur table: 2396
epoch: 1000
next table: 1827
cur table: 1830
epoch: 1000
next table: 2306
cur table: 2330
epoch: 1000
next table: 2310
cur table: 2306
epoch: 1000
next table: 1872
cur table: 1827
epoch: 1000
next table: 2286
cur table: 2310
epoch: 1000
next table: 1826
cur table: 1872
epoch: 1000
next table: 2373
cur table: 2286
epoch: 1000
next table: 1796
cur table: 1826
epoch: 1000
next table: 2398
cur table: 2373
epoch: 1000
next table: 1783
cur table: 1796
epoch: 1000
next table: 2369
cur table: 2398
epoch: 1000
next table: 1786
cur table: 1783
epoch: 1000
next table: 2377
cur table: 2369
epoch: 1000
next table: 1771
cur table: 1786
epoch: 1000
next table: 2355
cur table: 2377
epoch: 1000
next table: 1814
cur table: 1771
epoch: 1000
next table: 2348
cur table: 2355
epoch: 1000
next table: 1822
cur table: 1814
epoch: 1000
next table: 2278
cur table: 2348
epoch: 1000
next table: 1876
cur table: 1822
epoch: 1000
next table: 2312
cur table: 2278
epoch: 1000
next table: 1818
cur table: 1876
epoch: 1000
next table: 2321
cur table: 2312
epoch: 1000
next table: 1859
cur table: 1818
epoch: 1000
next table: 2290
cur table: 2321
epoch: 1000
next table: 1848
cur table: 1859
epoch: 1000
next table: 2344
cur table: 2290
epoch: 1000
next table: 1851
cur table: 1848
epoch: 1000
next table: 2275
cur table: 2344
epoch: 1000
next table: 1823
cur table: 1851
epoch: 1000
next table: 2317
cur table: 2275
epoch: 1000
next table: 1838
cur table: 1823
epoch: 1000
next table: 2321
cur table: 2317
epoch: 1000
next table: 2306
cur table: 2321
epoch: 1000
next table: 1828
cur table: 1838
epoch: 1000
next table: 2338
cur table: 2306
epoch: 1000
next table: 1851
cur table: 1828
epoch: 1000
next table: 2251
cur table: 2338
epoch: 1000
next table: 1840
cur table: 1851
epoch: 1000
next table: 2328
cur table: 2251
epoch: 1000
next table: 1839
cur table: 1840
epoch: 1000
next table: 2367
cur table: 2328
epoch: 1000
next table: 1790
cur table: 1839
epoch: 1000
next table: 2372
cur table: 2367
epoch: 1000
next table: 1795
cur table: 1790
epoch: 1000
next table: 2369
cur table: 2372
epoch: 1000
next table: 1808
cur table: 1795
epoch: 1000
next table: 2359
cur table: 2369
epoch: 1000
next table: 1825
cur table: 1808
epoch: 1000
next table: 2294
cur table: 2359
epoch: 1000
next table: 1849
cur table: 1825
epoch: 1000
next table: 2275
cur table: 2294
epoch: 1000
next table: 1857
cur table: 1849
epoch: 1000
next table: 2301
cur table: 2275
epoch: 1000
next table: 1858
cur table: 1857
epoch: 1000
next table: 2290
cur table: 2301
epoch: 1000
next table: 1841
cur table: 1858
epoch: 1000
next table: 2345
cur table: 2290
epoch: 1000
next table: 1832
cur table: 1841
epoch: 1000
next table: 2281
cur table: 2345
epoch: 1000
next table: 2337
cur table: 2281
epoch: 1000
next table: 1824
cur table: 1832
epoch: 1000
next table: 2414
cur table: 2337
epoch: 1000
next table: 1773
cur table: 1824
epoch: 1000
next table: 2428
cur table: 2414
epoch: 1000
next table: 1765
cur table: 1773
epoch: 1000
next table: 2311
cur table: 2428
epoch: 1000
next table: 1819
cur table: 1765
epoch: 1000
next table: 2382
cur table: 2311
epoch: 1000
next table: 1788
cur table: 1819
epoch: 1000
next table: 2340
cur table: 2382
epoch: 1000
next table: 1821
cur table: 1788
epoch: 1000
next table: 2322
cur table: 2340
epoch: 1000
next table: 1824
cur table: 1821
epoch: 1000
next table: 2321
cur table: 2322
epoch: 1000
next table: 1814
cur table: 1824
epoch: 1000
next table: 2355
cur table: 2321
epoch: 1000
next table: 1832
cur table: 1814
epoch: 1000
next table: 2311
cur table: 2355
epoch: 1000
next table: 1822
cur table: 1832
epoch: 1000
next table: 2337
cur table: 2311
epoch: 1000
next table: 1817
cur table: 1822
epoch: 1000
next table: 2344
cur table: 2337
epoch: 1000
next table: 1834
cur table: 1817
epoch: 1000
next table: 2313
cur table: 2344
epoch: 1000
next table: 1818
cur table: 1834
epoch: 1000
next table: 2337
cur table: 2313
epoch: 1000
next table: 1859
cur table: 1818
epoch: 1000
next table: 2324
cur table: 2337
epoch: 1000
next table: 1817
cur table: 1859
epoch: 1000
next table: 2306
cur table: 2324
epoch: 1000
next table: 1822
cur table: 1817
epoch: 1000
next table: 2327
cur table: 2306
epoch: 1000
next table: 1819
cur table: 1822
epoch: 1000
next table: 2346
cur table: 2327
epoch: 1000
next table: 2315
cur table: 2346
epoch: 1000
next table: 1816
cur table: 1819
epoch: 1000
next table: 2342
cur table: 2315
epoch: 1000
next table: 1822
cur table: 1816
epoch: 1000
next table: 2337
cur table: 2342
epoch: 1000
next table: 1832
cur table: 1822
epoch: 1000
next table: 2344
cur table: 2337
epoch: 1000
next table: 1795
cur table: 1832
epoch: 1000
next table: 2365
cur table: 2344
epoch: 1000
next table: 1811
cur table: 1795
epoch: 1000
next table: 2316
cur table: 2365
epoch: 1000
next table: 1865
cur table: 1811
epoch: 1000
next table: 2243
cur table: 2316
epoch: 1000
next table: 1890
cur table: 1865
epoch: 1000
next table: 2330
cur table: 2243
epoch: 1000
next table: 1831
cur table: 1890
epoch: 1000
next table: 2297
cur table: 2330
epoch: 1000
next table: 1816
cur table: 1831
epoch: 1000
next table: 2313
cur table: 2297
epoch: 1000
next table: 1847
cur table: 1816
epoch: 1000
next table: 2313
cur table: 2313
epoch: 1000
next table: 1826
cur table: 1847
epoch: 1000
next table: 2324
cur table: 2313
epoch: 1000
next table: 1853
cur table: 1826
epoch: 1000
next table: 2311
cur table: 2324
epoch: 1000
next table: 1817
cur table: 1853
epoch: 1000
next table: 2330
cur table: 2311
epoch: 1000
next table: 2304
cur table: 2330
epoch: 1000
next table: 1853
cur table: 1817
epoch: 1000
next table: 2335
cur table: 2304
epoch: 1000
next table: 1813
cur table: 1853
epoch: 1000
next table: 2299
cur table: 2335
epoch: 1000
next table: 1850
cur table: 1813
epoch: 1000
next table: 2342
cur table: 2299
epoch: 1000
next table: 1821
cur table: 1850
epoch: 1000
next table: 2332
cur table: 2342
epoch: 1000
next table: 1823
cur table: 1821
epoch: 1000
next table: 2316
cur table: 2332
epoch: 1000
next table: 1826
cur table: 1823
epoch: 1000
next table: 2328
cur table: 2316
epoch: 1000
next table: 1841
cur table: 1826
epoch: 1000
next table: 2277
cur table: 2328
epoch: 1000
next table: 1828
cur table: 1841
epoch: 1000
next table: 2355
cur table: 2277
epoch: 1000
next table: 1817
cur table: 1828
epoch: 1000
next table: 2327
cur table: 2355
epoch: 1000
next table: 1822
cur table: 1817
epoch: 1000
next table: 2358
cur table: 2327
epoch: 1000
next table: 1765
cur table: 1822
epoch: 1000
next table: 2400
cur table: 2358
epoch: 1000
next table: 1770
cur table: 1765
epoch: 1000
next table: 2425
cur table: 2400
epoch: 1000
next table: 1789
cur table: 1770
epoch: 1000
next table: 2375
cur table: 2425
epoch: 1000
next table: 1805
cur table: 1789
epoch: 1000
next table: 2380
cur table: 2375
epoch: 1000
next table: 1815
cur table: 1805
epoch: 1000
next table: 2292
cur table: 2380
epoch: 1000
next table: 1819
cur table: 1815
epoch: 1000
next table: 2335
cur table: 2292
epoch: 1000
next table: 1845
cur table: 1819
epoch: 1000
next table: 2297
cur table: 2335
epoch: 1000
next table: 2302
cur table: 2297
epoch: 1000
next table: 1848
cur table: 1845
epoch: 1000
next table: 2363
cur table: 2302
epoch: 1000
next table: 1813
cur table: 1848
epoch: 1000
next table: 2293
cur table: 2363
epoch: 1000
next table: 1843
cur table: 1813
epoch: 1000
next table: 2282
cur table: 2293
epoch: 1000
next table: 1866
cur table: 1843
epoch: 1000
next table: 2301
cur table: 2282
epoch: 1000
next table: 1851
cur table: 1866
epoch: 1000
next table: 2300
cur table: 2301
epoch: 1000
next table: 1865
cur table: 1851
epoch: 1000
next table: 2322
cur table: 2300
epoch: 1000
next table: 1849
cur table: 1865
epoch: 1000
next table: 2263
cur table: 2322
epoch: 1000
next table: 1847
cur table: 1849
epoch: 1000
next table: 2296
cur table: 2263
epoch: 1000
next table: 1875
cur table: 1847
epoch: 1000
next table: 2224
cur table: 2296
epoch: 1000
next table: 1911
cur table: 1875
epoch: 1000
next table: 2246
cur table: 2224
epoch: 1000
next table: 2228
cur table: 2246
epoch: 1000
next table: 1907
cur table: 1911
epoch: 1000
next table: 2167
cur table: 2228
epoch: 1000
next table: 1939
cur table: 1907
epoch: 1000
next table: 2283
cur table: 2167
epoch: 1000
next table: 1946
cur table: 1939
epoch: 1000
next table: 2172
cur table: 2283
epoch: 1000
next table: 1957
cur table: 1946
epoch: 1000
next table: 2183
cur table: 2172
epoch: 1000
next table: 1916
cur table: 1957
epoch: 1000
next table: 2210
cur table: 2183
epoch: 1000
next table: 1891
cur table: 1916
epoch: 1000
next table: 2271
cur table: 2210
epoch: 1000
next table: 2324
cur table: 2271
epoch: 1000
next table: 1834
cur table: 1891
epoch: 1000
next table: 2270
cur table: 2324
epoch: 1000
next table: 1854
cur table: 1834
epoch: 1000
next table: 2293
cur table: 2270
epoch: 1000
next table: 1857
cur table: 1854
epoch: 1000
next table: 2314
cur table: 2293
epoch: 1000
next table: 1830
cur table: 1857
epoch: 1000
next table: 2341
cur table: 2314
epoch: 1000
next table: 1828
cur table: 1830
epoch: 1000
next table: 2317
cur table: 2341
epoch: 1000
next table: 1819
cur table: 1828
epoch: 1000
next table: 2340
cur table: 2317
epoch: 1000
next table: 1821
cur table: 1819
epoch: 1000
next table: 2379
cur table: 2340
epoch: 1000
next table: 1761
cur table: 1821
epoch: 1000
next table: 2375
cur table: 2379
epoch: 1000
next table: 1846
cur table: 1761
epoch: 1000
next table: 2286
cur table: 2375
epoch: 1000
next table: 1904
cur table: 1846
epoch: 1000
next table: 2277
cur table: 2286
epoch: 1000
next table: 1869
cur table: 1904
epoch: 1000
next table: 2254
cur table: 2277
epoch: 1000
next table: 1851
cur table: 1869
epoch: 1000
next table: 2295
cur table: 2254
epoch: 1000
next table: 2308
cur table: 2295
epoch: 1000
next table: 1823
cur table: 1851
epoch: 1000
next table: 2394
cur table: 2308
epoch: 1000
next table: 1766
cur table: 1823
epoch: 1000
next table: 2385
cur table: 2394
epoch: 1000
next table: 1795
cur table: 1766
epoch: 1000
next table: 2355
cur table: 2385
epoch: 1000
next table: 1809
cur table: 1795
epoch: 1000
next table: 2324
cur table: 2355
epoch: 1000
next table: 1823
cur table: 1809
epoch: 1000
next table: 2339
cur table: 2324
epoch: 1000
next table: 1815
cur table: 1823
epoch: 1000
next table: 2355
cur table: 2339
epoch: 1000
next table: 1834
cur table: 1815
epoch: 1000
next table: 2291
cur table: 2355
epoch: 1000
next table: 1833
cur table: 1834
epoch: 1000
next table: 2355
cur table: 2291
epoch: 1000
next table: 1792
cur table: 1833
epoch: 1000
next table: 2398
cur table: 2355
epoch: 1000
next table: 1799
cur table: 1792
epoch: 1000
next table: 2346
cur table: 2398
epoch: 1000
next table: 1789
cur table: 1799
epoch: 1000
next table: 2370
cur table: 2346
epoch: 1000
next table: 1778
cur table: 1789
epoch: 1000
next table: 2369
cur table: 2370
epoch: 1000
next table: 1784
cur table: 1778
epoch: 1000
next table: 2384
cur table: 2369
epoch: 1000
next table: 1870
cur table: 1784
epoch: 1000
next table: 2247
cur table: 2384
epoch: 1000
next table: 1853
cur table: 1870
epoch: 1000
next table: 2311
cur table: 2247
epoch: 1000
next table: 1875
cur table: 1853
epoch: 1000
next table: 2238
cur table: 2311
epoch: 1000
next table: 1856
cur table: 1875
epoch: 1000
next table: 2329
cur table: 2238
epoch: 1000
next table: 2291
cur table: 2329
epoch: 1000
next table: 1869
cur table: 1856
epoch: 1000
next table: 2299
cur table: 2291
epoch: 1000
next table: 1830
cur table: 1869
epoch: 1000
next table: 2368
cur table: 2299
epoch: 1000
next table: 1799
cur table: 1830
epoch: 1000
next table: 2366
cur table: 2368
epoch: 1000
next table: 1774
cur table: 1799
epoch: 1000
next table: 2392
cur table: 2366
epoch: 1000
next table: 1772
cur table: 1774
epoch: 1000
next table: 2403
cur table: 2392
epoch: 1000
next table: 1768
cur table: 1772
epoch: 1000
next table: 2399
cur table: 2403
epoch: 1000
next table: 1778
cur table: 1768
epoch: 1000
next table: 2395
cur table: 2399
epoch: 1000
next table: 1780
cur table: 1778
epoch: 1000
next table: 2405
cur table: 2395
epoch: 1000
next table: 1787
cur table: 1780
epoch: 1000
next table: 2313
cur table: 2405
epoch: 1000
next table: 1820
cur table: 1787
epoch: 1000
next table: 2348
cur table: 2313
epoch: 1000
next table: 1837
cur table: 1820
epoch: 1000
next table: 2282
cur table: 2348
epoch: 1000
next table: 1900
cur table: 1837
epoch: 1000
next table: 2265
cur table: 2282
epoch: 1000
next table: 1834
cur table: 1900
epoch: 1000
next table: 2299
cur table: 2265
epoch: 1000
next table: 1879
cur table: 1834
epoch: 1000
next table: 2239
cur table: 2299
epoch: 1000
next table: 1890
cur table: 1879
epoch: 1000
next table: 2271
cur table: 2239
epoch: 1000
next table: 2256
cur table: 2271
epoch: 1000
next table: 1874
cur table: 1890
epoch: 1000
next table: 2304
cur table: 2256
epoch: 1000
next table: 1851
cur table: 1874
epoch: 1000
next table: 2234
cur table: 2304
epoch: 1000
next table: 1901
cur table: 1851
Heartbeat CPU 0 instructions: 40000001 cycles: 10937725 heartbeat IPC: 3.65515 cumulative IPC: 3.65707 (Simulation time: 0 hr 12 min 48 sec) 
epoch: 1000
next table: 2284
cur table: 2234
epoch: 1000
next table: 1850
cur table: 1901
epoch: 1000
next table: 2276
cur table: 2284
epoch: 1000
next table: 1893
cur table: 1850
epoch: 1000
next table: 2300
cur table: 2276
epoch: 1000
next table: 1857
cur table: 1893
epoch: 1000
next table: 2235
cur table: 2300
epoch: 1000
next table: 1897
cur table: 1857
epoch: 1000
next table: 2260
cur table: 2235
epoch: 1000
next table: 1858
cur table: 1897
epoch: 1000
next table: 2307
cur table: 2260
epoch: 1000
next table: 1882
cur table: 1858
epoch: 1000
next table: 2253
cur table: 2307
epoch: 1000
next table: 2278
cur table: 2253
epoch: 1000
next table: 1876
cur table: 1882
epoch: 1000
next table: 2251
cur table: 2278
epoch: 1000
next table: 1870
cur table: 1876
epoch: 1000
next table: 2283
cur table: 2251
epoch: 1000
next table: 1873
cur table: 1870
epoch: 1000
next table: 2270
cur table: 2283
epoch: 1000
next table: 1882
cur table: 1873
[...]
epoch: 1000
next table: 2272
cur table: 2317
epoch: 1000
next table: 1897
cur table: 1839
epoch: 1000
next table: 2224
cur table: 2272
epoch: 1000
next table: 1929
cur table: 1897
epoch: 1000
next table: 2220
cur table: 2224
epoch: 1000
next table: 1894
cur table: 1929
epoch: 1000
next table: 2247
cur table: 2220
epoch: 1000
next table: 1908
cur table: 1894
epoch: 1000
next table: 2259
cur table: 2247
epoch: 1000
next table: 2240
cur table: 2259
epoch: 1000
next table: 1868
cur table: 1908
epoch: 1000
next table: 2316
cur table: 2240
epoch: 1000
next table: 1872
cur table: 1868
epoch: 1000
next table: 2234
cur table: 2316
epoch: 1000
next table: 1845
cur table: 1872
epoch: 1000
next table: 2377
cur table: 2234
epoch: 1000
next table: 1813
cur table: 1845
epoch: 1000
next table: 2292
cur table: 2377
epoch: 1000
next table: 1866
cur table: 1813
epoch: 1000
next table: 2278
cur table: 2292
epoch: 1000
next table: 1872
cur table: 1866
epoch: 1000
next table: 2254
cur table: 2278
epoch: 1000
next table: 1926
cur table: 1872
epoch: 1000
next table: 2237
cur table: 2254
epoch: 1000
next table: 1869
cur table: 1926
epoch: 1000
next table: 2277
cur table: 2237
epoch: 1000
next table: 1833
cur table: 1869
epoch: 1000
next table: 2332
cur table: 2277
epoch: 1000
next table: 1824
cur table: 1833
epoch: 1000
next table: 2321
cur table: 2332
epoch: 1000
next table: 1793
cur table: 1824
epoch: 1000
next table: 2366
cur table: 2321
epoch: 1000
next table: 2372
cur table: 2366
epoch: 1000
next table: 1785
cur table: 1793
epoch: 1000
next table: 2404
cur table: 2372
epoch: 1000
next table: 1767
cur table: 1785
epoch: 1000
next table: 2411
cur table: 2404
epoch: 1000
next table: 1769
cur table: 1767
epoch: 1000
next table: 2365
cur table: 2411
epoch: 1000
next table: 1817
cur table: 1769
epoch: 1000
next table: 2365
cur table: 2365
epoch: 1000
next table: 1787
cur table: 1817
epoch: 1000
next table: 2386
cur table: 2365
epoch: 1000
next table: 1799
cur table: 1787
epoch: 1000
next table: 2404
cur table: 2386
epoch: 1000
next table: 1750
cur table: 1799
epoch: 1000
next table: 2423
cur table: 2404
epoch: 1000
next table: 1750
cur table: 1750
epoch: 1000
next table: 2424
cur table: 2423
epoch: 1000
next table: 1759
cur table: 1750
epoch: 1000
next table: 2436
cur table: 2424
epoch: 1000
next table: 1756
cur table: 1759
epoch: 1000
next table: 2379
cur table: 2436
epoch: 1000
next table: 1778
cur table: 1756
epoch: 1000
next table: 2378
cur table: 2379
epoch: 1000
next table: 1784
cur table: 1778
Heartbeat CPU 0 instructions: 100000000 cycles: 64217045 heartbeat IPC: 0.995089 cumulative IPC: 0.989249 (Simulation time: 0 hr 28 min 17 sec) 
Finished CPU 0 instructions: 50000000 cycles: 50543411 cumulative IPC: 0.989249 (Simulation time: 0 hr 28 min 17 sec) 

ChampSim completed all CPUs

Region of Interest Statistics

CPU 0 cumulative IPC: 0.989249 instructions: 50000000 cycles: 50543411
ITLB TOTAL     ACCESS:    6467071  HIT:    6467071  MISS:          0  HIT %:        100  MISS %:          0   MPKI: 0
ITLB LOAD TRANSLATION ACCESS:    6467071  HIT:    6467071  MISS:          0  HIT %:        100  MISS %:          0   MPKI: 0
ITLB PREFETCH  REQUESTED:          0  ISSUED:          0  USEFUL:          0  USELESS:          0
ITLB USEFUL LOAD PREFETCHES:          0 PREFETCH ISSUED TO LOWER LEVEL:          0  ACCURACY: -nan
ITLB TIMELY PREFETCHES:          0 LATE PREFETCHES: 0 DROPPED PREFETCHES: 0
ITLB PREFETCHES SAME FILL-ORIGIN LEVEL: 0 DIFFERENT FILL-ORIGIN LEVEL: 0
ITLB AVERAGE MISS LATENCY: -nan cycles
ITLB RQ	ACCESS:    8480558	FORWARD:          0	MERGED:    2013487	TO_CACHE:    6467071

Revised Interactions: positive negative neutral
ITLB_interactions 0 0 0 -nan -nan -nan
DTLB TOTAL     ACCESS:    9038545  HIT:    9007542  MISS:      31003  HIT %:     99.657  MISS %:   0.343009   MPKI: 0.62006
DTLB LOAD TRANSLATION ACCESS:    9038545  HIT:    9007542  MISS:      31003  HIT %:     99.657  MISS %:   0.343009   MPKI: 0.62006
DTLB PREFETCH  REQUESTED:          0  ISSUED:          0  USEFUL:          0  USELESS:          0
DTLB USEFUL LOAD PREFETCHES:          0 PREFETCH ISSUED TO LOWER LEVEL:          0  ACCURACY: -nan
DTLB TIMELY PREFETCHES:          0 LATE PREFETCHES: 0 DROPPED PREFETCHES: 0
DTLB PREFETCHES SAME FILL-ORIGIN LEVEL: 0 DIFFERENT FILL-ORIGIN LEVEL: 0
DTLB AVERAGE MISS LATENCY: 99.2902 cycles
DTLB RQ	ACCESS:   13325621	FORWARD:          0	MERGED:    4282561	TO_CACHE:    9043060

Revised Interactions: positive negative neutral
DTLB_interactions 0 0 0 -nan -nan -nan
STLB TOTAL     ACCESS:     231872  HIT:     215052  MISS:      16820  HIT %:     92.746  MISS %:      7.254   MPKI: 0.3364
STLB LOAD TRANSLATION ACCESS:      31003  HIT:      14183  MISS:      16820  HIT %:    45.7472  MISS %:    54.2528   MPKI: 0.3364
STLB TRANSLATION FROM L1D PREFETCHER ACCESS:     200869  HIT:     200869  MISS:          0  HIT %:        100  MISS %:          0   MPKI: 0
STLB PREFETCH  REQUESTED:          0  ISSUED:          0  USEFUL:          0  USELESS:          0
STLB USEFUL LOAD PREFETCHES:          0 PREFETCH ISSUED TO LOWER LEVEL:          0  ACCURACY: -nan
STLB TIMELY PREFETCHES:          0 LATE PREFETCHES: 0 DROPPED PREFETCHES: 0
STLB PREFETCHES SAME FILL-ORIGIN LEVEL: 0 DIFFERENT FILL-ORIGIN LEVEL: 0
STLB AVERAGE MISS LATENCY: 164.953 cycles
STLB RQ	ACCESS:     308693	FORWARD:          0	MERGED:      76821	TO_CACHE:     231872

Revised Interactions: positive negative neutral
STLB_interactions 0 0 0 -nan -nan -nan
STLB Hit, L1D data hit: 0
STLB Hit, L2C data hit: 0
STLB Hit, LLC data hit: 0
STLB Hit, LLC data miss: 0
STLB STLB hints to L2: 0
L1D TOTAL     ACCESS:   13582618  HIT:   11806836  MISS:    1775782  HIT %:    86.9261  MISS %:    13.0739   MPKI: 35.5156
L1D LOAD      ACCESS:    6121831  HIT:    6112845  MISS:       8986  HIT %:    99.8532  MISS %:   0.146786   MPKI: 0.17972
L1D RFO       ACCESS:    7187059  HIT:    5680339  MISS:    1506720  HIT %:    79.0357  MISS %:    20.9643   MPKI: 30.1344
L1D PREFETCH  ACCESS:     273728  HIT:      13652  MISS:     260076  HIT %:    4.98743  MISS %:    95.0126   MPKI: 5.20152
L1D PREFETCH  REQUESTED:     555558  ISSUED:     555380  USEFUL:     259553  USELESS:        522
L1D USEFUL LOAD PREFETCHES:     259553 PREFETCH ISSUED TO LOWER LEVEL:     260076  ACCURACY: 99.7989
L1D TIMELY PREFETCHES:     259553 LATE PREFETCHES: 4649 DROPPED PREFETCHES: 0
L1D PREFETCHES SAME FILL-ORIGIN LEVEL: 260076 DIFFERENT FILL-ORIGIN LEVEL: 0
L1D AVERAGE MISS LATENCY: 287.954 cycles
L1D RQ	ACCESS:   11511256	FORWARD:          0	MERGED:    4650060	TO_CACHE:    6130892
L1D WQ	ACCESS:    7438276	FORWARD:     730304	MERGED:     243547	TO_CACHE:    7194729
L1D PQ	ACCESS:     277690	FORWARD:          0	MERGED:          0	TO_CACHE:     277690

Revised Interactions: positive negative neutral
L1D_interactions 0 0 0 -nan -nan -nan
L1D UNIQUE REGIONS ACCESSED: 0
L1D REGIONS CONFLICTS: 0
L1D Cross Page Prefetch Requests: 0
L1D Same Page Prefetch Requests: 564575
L1D ROI Sum of L1D PQ occupancy: 23034977
L1D PREFETCHES PUSHED FROM L2C: 0
L1I TOTAL     ACCESS:    8480557  HIT:    8480557  MISS:          0  HIT %:        100  MISS %:          0   MPKI: 0
L1I LOAD      ACCESS:    8480557  HIT:    8480557  MISS:          0  HIT %:        100  MISS %:          0   MPKI: 0
L1I PREFETCH  REQUESTED:          0  ISSUED:          0  USEFUL:          0  USELESS:          0
L1I USEFUL LOAD PREFETCHES:          0 PREFETCH ISSUED TO LOWER LEVEL:          0  ACCURACY: -nan
L1I TIMELY PREFETCHES:          0 LATE PREFETCHES: 0 DROPPED PREFETCHES: 0
L1I PREFETCHES SAME FILL-ORIGIN LEVEL: 0 DIFFERENT FILL-ORIGIN LEVEL: 0
L1I AVERAGE MISS LATENCY: -nan cycles
L1I RQ	ACCESS:   11880026	FORWARD:          0	MERGED:    3399468	TO_CACHE:    8480558

Revised Interactions: positive negative neutral
L1I_interactions 0 0 0 -nan -nan -nan
BTB TOTAL     ACCESS:     534175  HIT:     534169  MISS:          6  HIT %:    99.9989  MISS %: 0.00112323   MPKI: 0.00012
BTB BRANCH_DIRECT_JUMP	ACCESS:       1868  HIT:       1867  MISS:          1
BTB BRANCH_INDIRECT	ACCESS:          0  HIT:          0  MISS:          0
BTB BRANCH_CONDITIONAL	ACCESS:     532307  HIT:     532302  MISS:          5
BTB BRANCH_DIRECT_CALL	ACCESS:          0  HIT:          0  MISS:          0
BTB BRANCH_INDIRECT_CALL	ACCESS:          0  HIT:          0  MISS:          0
BTB BRANCH_RETURN	ACCESS:          0  HIT:          0  MISS:          0
BTB BRANCH_OTHER ACCESS:          0  HIT:          0  MISS:          0

L2C TOTAL     ACCESS:    3658778  HIT:    2506130  MISS:    1152648  HIT %:    68.4964  MISS %:    31.5036   MPKI: 23.053
L2C LOAD      ACCESS:       8986  HIT:        805  MISS:       8181  HIT %:    8.95838  MISS %:    91.0416   MPKI: 0.16362
L2C DATA LOAD MPKI: 0.16362
L2C INSTRUCTION LOAD MPKI: 0
L2C RFO       ACCESS:    1506720  HIT:     646525  MISS:     860195  HIT %:    42.9094  MISS %:    57.0906   MPKI: 17.2039
L2C PREFETCH  ACCESS:     619532  HIT:     358476  MISS:     261056  HIT %:    57.8624  MISS %:    42.1376   MPKI: 5.22112
L2C DATA PREFETCH MPKI: 5.22112
L2C INSTRUCTION PREFETCH MPKI: 0
L2C WRITEBACK ACCESS:    1506720  HIT:    1485669  MISS:      21051  HIT %:    98.6029  MISS %:    1.39714   MPKI: 0.42102
L2C LOAD TRANSLATION ACCESS:      16820  HIT:      14655  MISS:       2165  HIT %:    87.1284  MISS %:    12.8716   MPKI: 0.0433
L2C PREFETCH  REQUESTED:     514805  ISSUED:     514804  USEFUL:        805  USELESS:     260851
L2C USEFUL LOAD PREFETCHES:        805 PREFETCH ISSUED TO LOWER LEVEL:     261151  ACCURACY: 0.308251
L2C TIMELY PREFETCHES:        805 LATE PREFETCHES: 95 DROPPED PREFETCHES: 0
L2C PREFETCHES SAME FILL-ORIGIN LEVEL: 176960 DIFFERENT FILL-ORIGIN LEVEL: 0
L2C AVERAGE MISS LATENCY: 504.055 cycles
L2C RQ	ACCESS:    1532530	FORWARD:          0	MERGED:          0	TO_CACHE:    1532530
L2C WQ	ACCESS:    1506720	FORWARD:          0	MERGED:          0	TO_CACHE:    1506720
L2C PQ	ACCESS:     774880	FORWARD:          0	MERGED:     119355	TO_CACHE:     655525

Revised Interactions: positive negative neutral
L2C_interactions 1363 259879 168874 0.316891 60.4207 39.2624
L2C Instructions Evicting Data 0
L2C Translations Evicting Data 2165
L2C Data Evicting Data 1127316
L2C Instructions Evicting Instructions 0
L2C Translations Evicting Instructions 0
L2C Data Evicting Instructions 0
L2C Instructions Evicting Translations 0
L2C Translations Evicting Translations 0
L2C Data Evicting Translations 2116
L2C Dense regions hint from L2: 0
PSCL5 TOTAL     ACCESS:      16820  HIT:      16820  MISS:          0  HIT %:        100  MISS %:          0   MPKI: 0
PSCL5 LOAD TRANSLATION ACCESS:      16820  HIT:      16820  MISS:          0  HIT %:        100  MISS %:          0   MPKI: 0
PSCL5 PREFETCH  REQUESTED:          0  ISSUED:          0  USEFUL:          0  USELESS:          0
PSCL5 USEFUL LOAD PREFETCHES:          0 PREFETCH ISSUED TO LOWER LEVEL:          0  ACCURACY: -nan
PSCL5 TIMELY PREFETCHES:          0 LATE PREFETCHES: 0 DROPPED PREFETCHES: 0
PSCL5 PREFETCHES SAME FILL-ORIGIN LEVEL: 0 DIFFERENT FILL-ORIGIN LEVEL: 0

Revised Interactions: positive negative neutral
PSCL5_interactions 0 0 0 -nan -nan -nan
PSCL4 TOTAL     ACCESS:      16820  HIT:      16820  MISS:          0  HIT %:        100  MISS %:          0   MPKI: 0
PSCL4 LOAD TRANSLATION ACCESS:      16820  HIT:      16820  MISS:          0  HIT %:        100  MISS %:          0   MPKI: 0
PSCL4 PREFETCH  REQUESTED:          0  ISSUED:          0  USEFUL:          0  USELESS:          0
PSCL4 USEFUL LOAD PREFETCHES:          0 PREFETCH ISSUED TO LOWER LEVEL:          0  ACCURACY: -nan
PSCL4 TIMELY PREFETCHES:          0 LATE PREFETCHES: 0 DROPPED PREFETCHES: 0
PSCL4 PREFETCHES SAME FILL-ORIGIN LEVEL: 0 DIFFERENT FILL-ORIGIN LEVEL: 0

Revised Interactions: positive negative neutral
PSCL4_interactions 0 0 0 -nan -nan -nan
PSCL3 TOTAL     ACCESS:      16820  HIT:      16819  MISS:          1  HIT %:    99.9941  MISS %:  0.0059453   MPKI: 2e-05
PSCL3 LOAD TRANSLATION ACCESS:      16820  HIT:      16819  MISS:          1  HIT %:    99.9941  MISS %:  0.0059453   MPKI: 2e-05
PSCL3 PREFETCH  REQUESTED:          0  ISSUED:          0  USEFUL:          0  USELESS:          0
PSCL3 USEFUL LOAD PREFETCHES:          0 PREFETCH ISSUED TO LOWER LEVEL:          0  ACCURACY: -nan
PSCL3 TIMELY PREFETCHES:          0 LATE PREFETCHES: 0 DROPPED PREFETCHES: 0
PSCL3 PREFETCHES SAME FILL-ORIGIN LEVEL: 0 DIFFERENT FILL-ORIGIN LEVEL: 0

Revised Interactions: positive negative neutral
PSCL3_interactions 0 0 0 -nan -nan -nan
PSCL2 TOTAL     ACCESS:      16820  HIT:      16803  MISS:         17  HIT %:    99.8989  MISS %:    0.10107   MPKI: 0.00034
PSCL2 LOAD TRANSLATION ACCESS:      16820  HIT:      16803  MISS:         17  HIT %:    99.8989  MISS %:    0.10107   MPKI: 0.00034
PSCL2 PREFETCH  REQUESTED:          0  ISSUED:          0  USEFUL:          0  USELESS:          0
PSCL2 USEFUL LOAD PREFETCHES:          0 PREFETCH ISSUED TO LOWER LEVEL:          0  ACCURACY: -nan
PSCL2 TIMELY PREFETCHES:          0 LATE PREFETCHES: 0 DROPPED PREFETCHES: 0
PSCL2 PREFETCHES SAME FILL-ORIGIN LEVEL: 0 DIFFERENT FILL-ORIGIN LEVEL: 0

Revised Interactions: positive negative neutral
PSCL2_interactions 0 0 0 -nan -nan -nan
LLC TOTAL     ACCESS:    1991170  HIT:     900159  MISS:    1091011  HIT %:    45.2075  MISS %:    54.7925   MPKI: 21.8202
LLC LOAD      ACCESS:       8086  HIT:          0  MISS:       8086  HIT %:          0  MISS %:        100   MPKI: 0.16172
LLC RFO       ACCESS:     860187  HIT:      53023  MISS:     807164  HIT %:    6.16412  MISS %:    93.8359   MPKI: 16.1433
LLC PREFETCH  ACCESS:     261151  HIT:        134  MISS:     261017  HIT %:  0.0513113  MISS %:    99.9487   MPKI: 5.22034
LLC WRITEBACK ACCESS:     859581  HIT:     846966  MISS:      12615  HIT %:    98.5324  MISS %:    1.46758   MPKI: 0.2523
LLC LOAD TRANSLATION ACCESS:       2165  HIT:         36  MISS:       2129  HIT %:    1.66282  MISS %:    98.3372   MPKI: 0.04258
LLC PREFETCH  REQUESTED:          0  ISSUED:          0  USEFUL:          0  USELESS:     263494
LLC USEFUL LOAD PREFETCHES:          0 PREFETCH ISSUED TO LOWER LEVEL:     261017  ACCURACY: 0
LLC TIMELY PREFETCHES:          0 LATE PREFETCHES: 0 DROPPED PREFETCHES: 0
LLC PREFETCHES SAME FILL-ORIGIN LEVEL: 0 DIFFERENT FILL-ORIGIN LEVEL: 0
LLC AVERAGE MISS LATENCY: 500.956 cycles
LLC RQ	ACCESS:     870450	FORWARD:          0	MERGED:          0	TO_CACHE:     870442
LLC WQ	ACCESS:     859581	FORWARD:          8	MERGED:          0	TO_CACHE:     859581
LLC PQ	ACCESS:     261151	FORWARD:          0	MERGED:          0	TO_CACHE:     261151

Revised Interactions: positive negative neutral
LLC_interactions 40 260696 190648 0.00886163 57.7548 42.2363
LLC Dense regions hint to LLC: 0

RAW hits: 159032
Loads Generated: 11670289
Loads sent to L1D: 11511256
Stores Generated: 7438269
Stores sent to L1D: 7438276
Major fault: 0 Minor fault: 20044
Allocated PAGES: 20044

stream: 
stream:times selected: 3263306
stream:pref_filled: 67579
stream:pref_useful: 67312
stream:pref_late: 1088
stream:misses: 14985
stream:misses_by_poll: 0

CS: 
CS:times selected: 508290
CS:pref_filled: 301284
CS:pref_useful: 301151
CS:pref_late: 323
CS:misses: 1741
CS:misses_by_poll: 437

CPLX: 
CPLX:times selected: 2754355
CPLX:pref_filled: 153677
CPLX:pref_useful: 153489
CPLX:pref_late: 653
CPLX:misses: 9806
CPLX:misses_by_poll: 319

NL_L1: 
NL:times selected: 1239
NL:pref_filled: 51
NL:pref_useful: 51
NL:pref_late: 0
NL:misses: 28
NL:misses_by_poll: 0

total selections: 6527190
total_filled: 260076
total_useful: 259553
total_late: 2064
total_polluted: 756
total_misses_after_warmup: 18048
conflicts: 59390
Degree Incremented Times: 159237
Degree Decremented Times: 0

L1 IP Table Write Accesses: 5313236
L1 IP Table Read Accesses: 5253846
L1 RST Write Accesses: 1524834
L1 RST Read Accesses: 3049668
L1 CSPT Write Accesses: 1524834
L1 CSPT Read Accesses: 4987261
L1 RR Filter Tag Write Accesses: 277868
L1 RR Filter Tag Read Accesses: 268038401
L1 IP Table Tag Write Accesses: 6130893
L1 IP Table Tag Read Accesses: 6130893
L1 RST Tag Write Accesses: 0
L1 RST Tag Read Accesses: 13738709
L1 RR Filter Write Accesses: 0
L1 RR Filter Read Accesses: 12217518
test: 232487
L2 IP Table Read Accesses: 480126
L2 IP Table Write Accesses: 471145
L2 IP Table Tag Read Accesses: 240068
L2 IP Table Tag Write Accesses: 240068

DRAM Statistics
 CHANNEL 0
 RQ ROW_BUFFER_HIT:      92445  ROW_BUFFER_MISS:     985951
 DBUS_CONGESTED:          0
 WQ ROW_BUFFER_HIT:     123094  ROW_BUFFER_MISS:     681454  FULL:          0

 AVG_CONGESTED_CYCLE: -
 All warmup complete: 2
Channel 0 Bank busy for read cycles: 0
Channel 0 Bank busy for write cycles: 0
Channel 0
Rank 0
0banks busy for read cycles: 16806
0banks busy for write cycles: 0
1banks busy for read cycles: 744286
1banks busy for write cycles: 85336
2banks busy for read cycles: 1906737
2banks busy for write cycles: 85333
3banks busy for read cycles: 3584840
3banks busy for write cycles: 85330
4banks busy for read cycles: 3151064
4banks busy for write cycles: 85328
5banks busy for read cycles: 5799093
5banks busy for write cycles: 85336
6banks busy for read cycles: 4942718
6banks busy for write cycles: 87725
7banks busy for read cycles: 5223651
7banks busy for write cycles: 958527
8banks busy for read cycles: 5951511
8banks busy for write cycles: 17749791

CPU 0 Branch Prediction Accuracy: 99.6998% MPKI: 0.03208 Average ROB Occupancy at Mispredict: 24.9857
Branch types
NOT_BRANCH: 49465302 98.9306%
BRANCH_DIRECT_JUMP: 1868 0.003736%
BRANCH_INDIRECT: 0 0%
BRANCH_CONDITIONAL: 532501 1.065%
BRANCH_DIRECT_CALL: 0 0%
BRANCH_INDIRECT_CALL: 0 0%
BRANCH_RETURN: 0 0%
BRANCH_OTHER: 0 0%

@sumon_overall_L1D    259553      4649      4649       522    260076    555380    555558
@Sumon_Early_by_class_L1D     32521    182161     44867         0
@Sumon_Late_by_class_L1D       640       320       639         0

@Sumon_Early_by_cycle_L1D      1403      6066      4102     14229      9887    121268     99282      3304        12         0         0         0
@Sumon_Late_by_cycle_L1D       163       140       120       239       815       122
@Sumon_Early_stream_L1D       668      4918      1813      9699      2481     12942         0         0         0         0         0         0
@Sumon_Early_CS_L1D       261       366       508      1309      1524     86899     90026      1268         0         0         0         0
@Sumon_Early_CPLX_L1D       474       781      1779      3220      5882     21427      9256      2036        12         0         0         0
@Sumon_Late_stream_L1D        69        45        36        98       343        49
@Sumon_Late_CS_L1D        25        35        27        53       147        33
@Sumon_Late_CPLX_L1D        69        60        57        88       325        40
@sumon_overall_L2C       805        95         0    260851    261056    514804    514805
@Sumon_Early_by_class_L2C       327       478         0         0
@Sumon_Late_by_class_L2C        80        15         0         0

@Sumon_Early_by_cycle_L2C        64        56        56       139        35       354       101         0         0         0         0         0
@Sumon_Late_by_cycle_L2C         0         4         9         0        47        35
@Sumon_Early_stream_L2C        55        52        49       115        22        34         0         0         0         0         0         0
@Sumon_Early_CS_L2C         9         4         7        24        13       320       101         0         0         0         0         0
@Sumon_Early_CPLX_L2C         0         0         0         0         0         0         0         0         0         0         0         0
@Sumon_Late_stream_L2C         0         3         7         0        40        30
@Sumon_Late_CS_L2C         0         1         2         0         7         5
@Sumon_Late_CPLX_L2C         0         0         0         0         0         0
DRAM PAGES: 1048576
Allocated PAGES: 20044
