
*** ChampSim Multicore Out-of-Order Simulator ***

Warmup Instructions: 10000000
Simulation Instructions: 50000000
Number of CPUs: 1
LLC sets: 2048
LLC ways: 16
Off-chip DRAM Size: 4096 MB Channels: 1 Width: 64-bit Data Rate: 6400 MT/s
CPU 0 runs traces/SPEC2017/623.xalancbmk_s-10B.champsimtrace.xz
.xz
CPU 0 Bimodal branch predictor
BTB has LRU replacement policy
ITLB has LRU replacement policy
DTLB has LRU replacement policy
STLB has LRU replacement policy
L1I has LRU replacement policy
IP Table Entries: 256
L1D has LRU replacement policy
IP_Table L2 entries: 256
L2C has LRU replacement policy
LLC has LRU replacement policy
Heartbeat CPU 0 instructions: 10000003 cycles: 3120609 heartbeat IPC: 3.2045 cumulative IPC: 3.2045 (Simulation time: 0 hr 23 min 52 sec) 

Warmup complete CPU 0 instructions: 10000003 cycles: 3120609 (Simulation time: 0 hr 23 min 52 sec) 

Heartbeat CPU 0 instructions: 20000000 cycles: 41965482 heartbeat IPC: 0.257434 cumulative IPC: 0.257434 (Simulation time: 0 hr 47 min 46 sec) 
Heartbeat CPU 0 instructions: 30000001 cycles: 80525073 heartbeat IPC: 0.259339 cumulative IPC: 0.258383 (Simulation time: 1 hr 11 min 23 sec) 
Heartbeat CPU 0 instructions: 40000000 cycles: 116587912 heartbeat IPC: 0.277294 cumulative IPC: 0.264393 (Simulation time: 1 hr 26 min 21 sec) 
Heartbeat CPU 0 instructions: 50000000 cycles: 158191524 heartbeat IPC: 0.240364 cumulative IPC: 0.257946 (Simulation time: 1 hr 37 min 16 sec) 
Heartbeat CPU 0 instructions: 60000001 cycles: 196531369 heartbeat IPC: 0.260825 cumulative IPC: 0.258517 (Simulation time: 1 hr 43 min 43 sec) 
Finished CPU 0 instructions: 50000002 cycles: 193410761 cumulative IPC: 0.258517 (Simulation time: 1 hr 43 min 43 sec) 

ChampSim completed all CPUs

Region of Interest Statistics

CPU 0 cumulative IPC: 0.258517 instructions: 50000002 cycles: 193410761
ITLB TOTAL     ACCESS:    7746523  HIT:    7716615  MISS:      29908  HIT %:    99.6139  MISS %:   0.386083   MPKI: 0.59816
ITLB LOAD TRANSLATION ACCESS:    7746523  HIT:    7716615  MISS:      29908  HIT %:    99.6139  MISS %:   0.386083   MPKI: 0.59816
ITLB PREFETCH  REQUESTED:          0  ISSUED:          0  USEFUL:          0  USELESS:          0
ITLB USEFUL LOAD PREFETCHES:          0 PREFETCH ISSUED TO LOWER LEVEL:          0  ACCURACY: -nan
ITLB TIMELY PREFETCHES:          0 LATE PREFETCHES: 0 DROPPED PREFETCHES: 0
ITLB PREFETCHES SAME FILL-ORIGIN LEVEL: 0 DIFFERENT FILL-ORIGIN LEVEL: 0
ITLB AVERAGE MISS LATENCY: 19.7043 cycles
ITLB RQ	ACCESS:    8913000	FORWARD:          0	MERGED:    1159476	TO_CACHE:    7753524

DTLB TOTAL     ACCESS:   10282087  HIT:    9941003  MISS:     341084  HIT %:    96.6827  MISS %:    3.31726   MPKI: 6.82168
DTLB LOAD TRANSLATION ACCESS:   10282087  HIT:    9941003  MISS:     341084  HIT %:    96.6827  MISS %:    3.31726   MPKI: 6.82168
DTLB PREFETCH  REQUESTED:          0  ISSUED:          0  USEFUL:          0  USELESS:          0
DTLB USEFUL LOAD PREFETCHES:          0 PREFETCH ISSUED TO LOWER LEVEL:          0  ACCURACY: -nan
DTLB TIMELY PREFETCHES:          0 LATE PREFETCHES: 0 DROPPED PREFETCHES: 0
DTLB PREFETCHES SAME FILL-ORIGIN LEVEL: 0 DIFFERENT FILL-ORIGIN LEVEL: 0
DTLB AVERAGE MISS LATENCY: 70.7414 cycles
DTLB RQ	ACCESS:   11369086	FORWARD:          0	MERGED:    1023935	TO_CACHE:   10345151

STLB TOTAL     ACCESS:    1562060  HIT:    1298551  MISS:     263509  HIT %:    83.1307  MISS %:    16.8693   MPKI: 5.27018
STLB LOAD TRANSLATION ACCESS:     370992  HIT:     107579  MISS:     263413  HIT %:    28.9977  MISS %:    71.0023   MPKI: 5.26826
STLB TRANSLATION FROM L1D PREFETCHER ACCESS:    1191068  HIT:    1190972  MISS:         96  HIT %:    99.9919  MISS %: 0.00805999   MPKI: 0.00192
STLB PREFETCH  REQUESTED:          0  ISSUED:          0  USEFUL:         96  USELESS:          0
STLB USEFUL LOAD PREFETCHES:         96 PREFETCH ISSUED TO LOWER LEVEL:          0  ACCURACY: inf
STLB TIMELY PREFETCHES:         96 LATE PREFETCHES: 0 DROPPED PREFETCHES: 0
STLB PREFETCHES SAME FILL-ORIGIN LEVEL: 0 DIFFERENT FILL-ORIGIN LEVEL: 0
STLB AVERAGE MISS LATENCY: 81.1469 cycles
STLB RQ	ACCESS:    2192545	FORWARD:          0	MERGED:     630420	TO_CACHE:    1562125

STLB Hit, L1D data hit: 0
STLB Hit, L2C data hit: 0
STLB Hit, LLC data hit: 0
STLB Hit, LLC data miss: 0
STLB STLB hints to L2: 0
L1D TOTAL     ACCESS:   12789018  HIT:   10498180  MISS:    2290838  HIT %:    82.0875  MISS %:    17.9125   MPKI: 45.8168
L1D LOAD      ACCESS:    9050421  HIT:    7871358  MISS:    1179063  HIT %:    86.9723  MISS %:    13.0277   MPKI: 23.5813
L1D RFO       ACCESS:    2232409  HIT:    2212673  MISS:      19736  HIT %:    99.1159  MISS %:   0.884067   MPKI: 0.39472
L1D PREFETCH  ACCESS:    1506188  HIT:     414149  MISS:    1092039  HIT %:    27.4965  MISS %:    72.5035   MPKI: 21.8408
L1D PREFETCH  REQUESTED:    3643124  ISSUED:    3643111  USEFUL:     205749  USELESS:     886148
L1D USEFUL LOAD PREFETCHES:     205749 PREFETCH ISSUED TO LOWER LEVEL:    1145689  ACCURACY: 17.9585
L1D TIMELY PREFETCHES:     205749 LATE PREFETCHES: 53173 DROPPED PREFETCHES: 0
L1D PREFETCHES SAME FILL-ORIGIN LEVEL: 1145689 DIFFERENT FILL-ORIGIN LEVEL: 0
L1D AVERAGE MISS LATENCY: 2.34676e+06 cycles
L1D RQ	ACCESS:   14736872	FORWARD:          0	MERGED:    5590149	TO_CACHE:    9090096
L1D WQ	ACCESS:    2303184	FORWARD:      56632	MERGED:      24194	TO_CACHE:    2278990
L1D PQ	ACCESS:    1821558	FORWARD:          0	MERGED:          0	TO_CACHE:    1821553

L1D UNIQUE REGIONS ACCESSED: 0
L1D REGIONS CONFLICTS: 0
L1D Cross Page Prefetch Requests: 0
L1D Same Page Prefetch Requests: 2163886
L1D ROI Sum of L1D PQ occupancy: 23604377
L1D PREFETCHES PUSHED FROM L2C: 0
L1I TOTAL     ACCESS:    8865027  HIT:    8693680  MISS:     171347  HIT %:    98.0672  MISS %:    1.93284   MPKI: 3.42694
L1I LOAD      ACCESS:    8865027  HIT:    8693680  MISS:     171347  HIT %:    98.0672  MISS %:    1.93284   MPKI: 3.42694
L1I PREFETCH  REQUESTED:          0  ISSUED:          0  USEFUL:          0  USELESS:          0
L1I USEFUL LOAD PREFETCHES:          0 PREFETCH ISSUED TO LOWER LEVEL:          0  ACCURACY: -nan
L1I TIMELY PREFETCHES:          0 LATE PREFETCHES: 0 DROPPED PREFETCHES: 0
L1I PREFETCHES SAME FILL-ORIGIN LEVEL: 0 DIFFERENT FILL-ORIGIN LEVEL: 0
L1I AVERAGE MISS LATENCY: 42.2038 cycles
L1I RQ	ACCESS:   15117565	FORWARD:          0	MERGED:    6204565	TO_CACHE:    8913000

BTB TOTAL     ACCESS:    8242341  HIT:    8167689  MISS:      74652  HIT %:    99.0943  MISS %:   0.905714   MPKI: 1.49304
BTB BRANCH_DIRECT_JUMP	ACCESS:     118676  HIT:     118023  MISS:        653
BTB BRANCH_INDIRECT	ACCESS:      21952  HIT:       8655  MISS:      13297
BTB BRANCH_CONDITIONAL	ACCESS:    6931277  HIT:    6928565  MISS:       2712
BTB BRANCH_DIRECT_CALL	ACCESS:     319784  HIT:     318786  MISS:        998
BTB BRANCH_INDIRECT_CALL	ACCESS:     265434  HIT:     262598  MISS:       2836
BTB BRANCH_RETURN	ACCESS:     585218  HIT:     531062  MISS:      54156
BTB BRANCH_OTHER ACCESS:          0  HIT:          0  MISS:          0

L2C TOTAL     ACCESS:    2806220  HIT:     583507  MISS:    2222713  HIT %:    20.7933  MISS %:    79.2067   MPKI: 44.4543
L2C LOAD      ACCESS:    1297235  HIT:     231492  MISS:    1065743  HIT %:     17.845  MISS %:     82.155   MPKI: 21.3149
L2C DATA LOAD MPKI: 20.5037
L2C INSTRUCTION LOAD MPKI: 0.81112
L2C RFO       ACCESS:      19253  HIT:       8111  MISS:      11142  HIT %:    42.1285  MISS %:    57.8715   MPKI: 0.22284
L2C PREFETCH  ACCESS:    1183508  HIT:     101307  MISS:    1082201  HIT %:    8.55989  MISS %:    91.4401   MPKI: 21.644
L2C DATA PREFETCH MPKI: 21.644
L2C INSTRUCTION PREFETCH MPKI: 0
L2C WRITEBACK ACCESS:      41551  HIT:      41358  MISS:        193  HIT %:    99.5355  MISS %:   0.464489   MPKI: 0.00386
L2C LOAD TRANSLATION ACCESS:     264553  HIT:     201191  MISS:      63362  HIT %:    76.0494  MISS %:    23.9506   MPKI: 1.26724
L2C TRANSLATION FROM L1D PREFETCHER ACCESS:        120  HIT:         48  MISS:         72  HIT %:         40  MISS %:         60   MPKI: 0.00144
L2C PREFETCH  REQUESTED:      40226  ISSUED:      40226  USEFUL:      11743  USELESS:    1069806
L2C USEFUL LOAD PREFETCHES:      11743 PREFETCH ISSUED TO LOWER LEVEL:    1082689  ACCURACY: 1.08461
L2C TIMELY PREFETCHES:      11743 LATE PREFETCHES: 487 DROPPED PREFETCHES: 0
L2C PREFETCHES SAME FILL-ORIGIN LEVEL: 14935 DIFFERENT FILL-ORIGIN LEVEL: 0
L2C AVERAGE MISS LATENCY: 135.354 cycles
L2C RQ	ACCESS:    1581170	FORWARD:          0	MERGED:          0	TO_CACHE:    1581163
L2C WQ	ACCESS:      41551	FORWARD:          7	MERGED:          0	TO_CACHE:      41551
L2C PQ	ACCESS:    1185915	FORWARD:          0	MERGED:        851	TO_CACHE:    1185064

L2C Instructions Evicting Data 38512
L2C Translations Evicting Data 60784
L2C Data Evicting Data 2018266
L2C Instructions Evicting Instructions 1215
L2C Translations Evicting Instructions 752
L2C Data Evicting Instructions 39547
L2C Instructions Evicting Translations 829
L2C Translations Evicting Translations 1898
L2C Data Evicting Translations 60717
L2C Dense regions hint from L2: 0
PSCL5 TOTAL     ACCESS:     263509  HIT:     263509  MISS:          0  HIT %:        100  MISS %:          0   MPKI: 0
PSCL5 LOAD TRANSLATION ACCESS:     263413  HIT:     263413  MISS:          0  HIT %:        100  MISS %:          0   MPKI: 0
PSCL5 TRANSLATION FROM L1D PREFETCHER ACCESS:         96  HIT:         96  MISS:          0  HIT %:        100  MISS %:          0   MPKI: 0
PSCL5 PREFETCH  REQUESTED:          0  ISSUED:          0  USEFUL:          0  USELESS:          0
PSCL5 USEFUL LOAD PREFETCHES:          0 PREFETCH ISSUED TO LOWER LEVEL:          0  ACCURACY: -nan
PSCL5 TIMELY PREFETCHES:          0 LATE PREFETCHES: 0 DROPPED PREFETCHES: 0
PSCL5 PREFETCHES SAME FILL-ORIGIN LEVEL: 0 DIFFERENT FILL-ORIGIN LEVEL: 0

PSCL4 TOTAL     ACCESS:     263509  HIT:     263509  MISS:          0  HIT %:        100  MISS %:          0   MPKI: 0
PSCL4 LOAD TRANSLATION ACCESS:     263413  HIT:     263413  MISS:          0  HIT %:        100  MISS %:          0   MPKI: 0
PSCL4 TRANSLATION FROM L1D PREFETCHER ACCESS:         96  HIT:         96  MISS:          0  HIT %:        100  MISS %:          0   MPKI: 0
PSCL4 PREFETCH  REQUESTED:          0  ISSUED:          0  USEFUL:          0  USELESS:          0
PSCL4 USEFUL LOAD PREFETCHES:          0 PREFETCH ISSUED TO LOWER LEVEL:          0  ACCURACY: -nan
PSCL4 TIMELY PREFETCHES:          0 LATE PREFETCHES: 0 DROPPED PREFETCHES: 0
PSCL4 PREFETCHES SAME FILL-ORIGIN LEVEL: 0 DIFFERENT FILL-ORIGIN LEVEL: 0

PSCL3 TOTAL     ACCESS:     263509  HIT:     263509  MISS:          0  HIT %:        100  MISS %:          0   MPKI: 0
PSCL3 LOAD TRANSLATION ACCESS:     263413  HIT:     263413  MISS:          0  HIT %:        100  MISS %:          0   MPKI: 0
PSCL3 TRANSLATION FROM L1D PREFETCHER ACCESS:         96  HIT:         96  MISS:          0  HIT %:        100  MISS %:          0   MPKI: 0
PSCL3 PREFETCH  REQUESTED:          0  ISSUED:          0  USEFUL:          0  USELESS:          0
PSCL3 USEFUL LOAD PREFETCHES:          0 PREFETCH ISSUED TO LOWER LEVEL:          0  ACCURACY: -nan
PSCL3 TIMELY PREFETCHES:          0 LATE PREFETCHES: 0 DROPPED PREFETCHES: 0
PSCL3 PREFETCHES SAME FILL-ORIGIN LEVEL: 0 DIFFERENT FILL-ORIGIN LEVEL: 0

PSCL2 TOTAL     ACCESS:     263509  HIT:     262345  MISS:       1164  HIT %:    99.5583  MISS %:   0.441731   MPKI: 0.02328
PSCL2 LOAD TRANSLATION ACCESS:     263437  HIT:     262273  MISS:       1164  HIT %:    99.5581  MISS %:   0.441851   MPKI: 0.02328
PSCL2 TRANSLATION FROM L1D PREFETCHER ACCESS:         72  HIT:         72  MISS:          0  HIT %:        100  MISS %:          0   MPKI: 0
PSCL2 PREFETCH  REQUESTED:          0  ISSUED:          0  USEFUL:          0  USELESS:          0
PSCL2 USEFUL LOAD PREFETCHES:          0 PREFETCH ISSUED TO LOWER LEVEL:          0  ACCURACY: -nan
PSCL2 TIMELY PREFETCHES:          0 LATE PREFETCHES: 0 DROPPED PREFETCHES: 0
PSCL2 PREFETCHES SAME FILL-ORIGIN LEVEL: 0 DIFFERENT FILL-ORIGIN LEVEL: 0

LLC TOTAL     ACCESS:    2244500  HIT:     136038  MISS:    2108462  HIT %:    6.06095  MISS %:    93.9391   MPKI: 42.1692
LLC LOAD      ACCESS:    1065257  HIT:      59295  MISS:    1005962  HIT %:    5.56626  MISS %:    94.4337   MPKI: 20.1192
LLC RFO       ACCESS:      11141  HIT:       1773  MISS:       9368  HIT %:    15.9142  MISS %:    84.0858   MPKI: 0.18736
LLC PREFETCH  ACCESS:    1082688  HIT:      51032  MISS:    1031656  HIT %:    4.71345  MISS %:    95.2865   MPKI: 20.6331
LLC WRITEBACK ACCESS:      21980  HIT:      21887  MISS:         93  HIT %:    99.5769  MISS %:   0.423112   MPKI: 0.00186
LLC LOAD TRANSLATION ACCESS:      63362  HIT:       2051  MISS:      61311  HIT %:    3.23696  MISS %:     96.763   MPKI: 1.22622
LLC TRANSLATION FROM L1D PREFETCHER ACCESS:         72  HIT:          0  MISS:         72  HIT %:          0  MISS %:        100   MPKI: 0.00144
LLC PREFETCH  REQUESTED:          0  ISSUED:          0  USEFUL:       8137  USELESS:    1022237
LLC USEFUL LOAD PREFETCHES:       8137 PREFETCH ISSUED TO LOWER LEVEL:    1031657  ACCURACY: 0.788731
LLC TIMELY PREFETCHES:       8137 LATE PREFETCHES: 0 DROPPED PREFETCHES: 0
LLC PREFETCHES SAME FILL-ORIGIN LEVEL: 0 DIFFERENT FILL-ORIGIN LEVEL: 0
LLC AVERAGE MISS LATENCY: 111.081 cycles
LLC RQ	ACCESS:    1139834	FORWARD:          0	MERGED:          0	TO_CACHE:    1139834
LLC WQ	ACCESS:      21980	FORWARD:          0	MERGED:          0	TO_CACHE:      21980
LLC PQ	ACCESS:    1082689	FORWARD:          0	MERGED:          0	TO_CACHE:    1082689

LLC Dense regions hint to LLC: 0

RAW hits: 59419
Loads Generated: 14796291
Loads sent to L1D: 14736872
Stores Generated: 2303186
Stores sent to L1D: 2303184
Major fault: 0 Minor fault: 10925
Allocated PAGES: 10925

stream: 
stream:times selected: 2822200
stream:pref_filled: 913906
stream:pref_useful: 178672
stream:pref_late: 59603
stream:misses: 368395
stream:misses_by_poll: 0

CS: 
CS:times selected: 76951
CS:pref_filled: 68442
CS:pref_useful: 46396
CS:pref_late: 647
CS:misses: 9844
CS:misses_by_poll: 91

CPLX: 
CPLX:times selected: 2719141
CPLX:pref_filled: 300609
CPLX:pref_useful: 24734
CPLX:pref_late: 1502
CPLX:misses: 1022568
CPLX:misses_by_poll: 771

NL_L1: 
NL:times selected: 24044
NL:pref_filled: 9181
NL:pref_useful: 2016
NL:pref_late: 895
NL:misses: 12226
NL:misses_by_poll: 0

total selections: 5642336
total_filled: 1092039
total_useful: 205749
total_late: 64035
total_polluted: 862
total_misses_after_warmup: 1218738
conflicts: 483651
Degree Incremented Times: 1587
Degree Decremented Times: 170964

L1 IP Table Write Accesses: 8307239
L1 IP Table Read Accesses: 7823588
L1 RST Write Accesses: 2332764
L1 RST Read Accesses: 4665528
L1 CSPT Write Accesses: 2332764
L1 CSPT Read Accesses: 4582375
L1 RR Filter Tag Write Accesses: 1821571
L1 RR Filter Tag Read Accesses: 88759203
L1 IP Table Tag Write Accesses: 9090096
L1 IP Table Tag Read Accesses: 9090096
L1 RST Tag Write Accesses: 0
L1 RST Tag Read Accesses: 21334329
L1 RR Filter Write Accesses: 0
L1 RR Filter Read Accesses: 2955021
test: 1767474
L2 IP Table Read Accesses: 4497579
L2 IP Table Write Accesses: 3431294
L2 IP Table Tag Read Accesses: 2269347
L2 IP Table Tag Write Accesses: 2269347

DRAM Statistics
 CHANNEL 0
 RQ ROW_BUFFER_HIT:    1448286  ROW_BUFFER_MISS:     660083
 DBUS_CONGESTED:        432
 WQ ROW_BUFFER_HIT:       1093  ROW_BUFFER_MISS:      15698  FULL:          0

 AVG_CONGESTED_CYCLE: 4
 All warmup complete: 2
Channel 0 Bank busy for read cycles: 0
Channel 0 Bank busy for write cycles: 0
Channel 0
Rank 0
0banks busy for read cycles: 109813883
0banks busy for write cycles: 13236
1banks busy for read cycles: 34759290
1banks busy for write cycles: 2364251
2banks busy for read cycles: 22238756
2banks busy for write cycles: 415595
3banks busy for read cycles: 11344268
3banks busy for write cycles: 77696
4banks busy for read cycles: 6206838
4banks busy for write cycles: 17779
5banks busy for read cycles: 4090632
5banks busy for write cycles: 3442
6banks busy for read cycles: 1644985
6banks busy for write cycles: 337
7banks busy for read cycles: 348845
7banks busy for write cycles: 0
8banks busy for read cycles: 70929
8banks busy for write cycles: 0

CPU 0 Branch Prediction Accuracy: 94.93% MPKI: 13.2206 Average ROB Occupancy at Mispredict: 36.8616
Branch types
NOT_BRANCH: 36961555 73.9231%
BRANCH_DIRECT_JUMP: 118676 0.237352%
BRANCH_INDIRECT: 21952 0.043904%
BRANCH_CONDITIONAL: 11727061 23.4541%
BRANCH_DIRECT_CALL: 319784 0.639568%
BRANCH_INDIRECT_CALL: 265434 0.530868%
BRANCH_RETURN: 585218 1.17044%
BRANCH_OTHER: 0 0%

@sumon_overall_L1D    205749     53173    886148   1092039   3643111   3643124
@Sumon_Early_by_class_L1D    146986     36544     20456       768
@Sumon_Late_by_class_L1D     49223       634      1284       768

@Sumon_Early_by_cycle_L1D     48251     14954     27819     23872     16277     34558      9679      3349     10332     15007       894       757
@Sumon_Late_by_cycle_L1D     35586     17374       213         0         0         0         0         0         0         0         0         0
@Sumon_Early_stream_L1D     46008     13476     19745     19515     12925     24722      6087      2161       853       727       412       355
@Sumon_Early_CS_L1D       486       331      2804      1658      1696      4317      1472       577      9104     13782       191       126
@Sumon_Early_CPLX_L1D       782       904      5231      2655      1568      5304      2086       593       366       432       263       272
@Sumon_Late_stream_L1D     32725     16335       163         0         0         0         0         0         0         0         0         0
@Sumon_Late_CS_L1D       242       344        48         0         0         0         0         0         0         0         0         0
@Sumon_Late_CPLX_L1D       882       401         1         0         0         0         0         0         0         0         0         0
@sumon_overall_L2C     11743       487   1069806   1082273     40226     40226
@Sumon_Early_by_class_L2C      4291       645      2292         0
@Sumon_Late_by_class_L2C         0         0         0         0

@Sumon_Early_by_cycle_L2C       733       290       268       258       128       239       146       205       556       457       481      7982
@Sumon_Late_by_cycle_L2C       256       206        25         0         0         0         0         0         0         0         0         0
@Sumon_Early_stream_L2C         0         0         0        22         2         0         0         0         4        16        86      4161
@Sumon_Early_CS_L2C         0         0         0         0         0         0         0         0         0        20        14       611
@Sumon_Early_CPLX_L2C         0         0         0         0         0         0         0         0         3        14        71      2204
@Sumon_Late_stream_L2C         0         0         0         0         0         0         0         0         0         0         0         0
@Sumon_Late_CS_L2C         0         0         0         0         0         0         0         0         0         0         0         0
@Sumon_Late_CPLX_L2C         0         0         0         0         0         0         0         0         0         0         0         0
DRAM PAGES: 1048576
Allocated PAGES: 10925
