
*** ChampSim Multicore Out-of-Order Simulator ***

Warmup Instructions: 10000000
Simulation Instructions: 50000000
Number of CPUs: 1
LLC sets: 2048
LLC ways: 16
Off-chip DRAM Size: 4096 MB Channels: 1 Width: 64-bit Data Rate: 6400 MT/s
CPU 0 runs traces/SPEC2017/654.roms_s-294B.champsimtrace.xz
.xz
CPU 0 Bimodal branch predictor
BTB has LRU replacement policy
ITLB has LRU replacement policy
DTLB has LRU replacement policy
STLB has LRU replacement policy
L1I has LRU replacement policy
IP Table Entries: 256
L1D has LRU replacement policy
IP_Table L2 entries: 256
L2C has LRU replacement policy
LLC has LRU replacement policy
Heartbeat CPU 0 instructions: 10000001 cycles: 3208761 heartbeat IPC: 3.11647 cumulative IPC: 3.11647 (Simulation time: 0 hr 27 min 31 sec) 

Warmup complete CPU 0 instructions: 10000001 cycles: 3208761 (Simulation time: 0 hr 27 min 31 sec) 

Heartbeat CPU 0 instructions: 20000000 cycles: 12778522 heartbeat IPC: 1.04496 cumulative IPC: 1.04496 (Simulation time: 0 hr 47 min 30 sec) 
Heartbeat CPU 0 instructions: 30000003 cycles: 22349176 heartbeat IPC: 1.04486 cumulative IPC: 1.04491 (Simulation time: 1 hr 7 min 22 sec) 
Heartbeat CPU 0 instructions: 40000001 cycles: 31916766 heartbeat IPC: 1.0452 cumulative IPC: 1.045 (Simulation time: 1 hr 22 min 44 sec) 
Heartbeat CPU 0 instructions: 50000002 cycles: 41485285 heartbeat IPC: 1.04509 cumulative IPC: 1.04503 (Simulation time: 1 hr 32 min 19 sec) 
Heartbeat CPU 0 instructions: 60000002 cycles: 51064604 heartbeat IPC: 1.04392 cumulative IPC: 1.0448 (Simulation time: 1 hr 39 min 36 sec) 
Finished CPU 0 instructions: 50000001 cycles: 47855843 cumulative IPC: 1.0448 (Simulation time: 1 hr 39 min 36 sec) 

ChampSim completed all CPUs

Region of Interest Statistics

CPU 0 cumulative IPC: 1.0448 instructions: 50000001 cycles: 47855843
ITLB TOTAL     ACCESS:    6687923  HIT:    6687923  MISS:          0  HIT %:        100  MISS %:          0   MPKI: 0
ITLB LOAD TRANSLATION ACCESS:    6687923  HIT:    6687923  MISS:          0  HIT %:        100  MISS %:          0   MPKI: 0
ITLB PREFETCH  REQUESTED:          0  ISSUED:          0  USEFUL:          0  USELESS:          0
ITLB USEFUL LOAD PREFETCHES:          0 PREFETCH ISSUED TO LOWER LEVEL:          0  ACCURACY: -nan
ITLB TIMELY PREFETCHES:          0 LATE PREFETCHES: 0 DROPPED PREFETCHES: 0
ITLB PREFETCHES SAME FILL-ORIGIN LEVEL: 0 DIFFERENT FILL-ORIGIN LEVEL: 0
ITLB AVERAGE MISS LATENCY: -nan cycles
ITLB RQ	ACCESS:    8355407	FORWARD:          0	MERGED:    1667485	TO_CACHE:    6687922

DTLB TOTAL     ACCESS:   13484631  HIT:   13464876  MISS:      19755  HIT %:    99.8535  MISS %:     0.1465   MPKI: 0.3951
DTLB LOAD TRANSLATION ACCESS:   13484631  HIT:   13464876  MISS:      19755  HIT %:    99.8535  MISS %:     0.1465   MPKI: 0.3951
DTLB PREFETCH  REQUESTED:          0  ISSUED:          0  USEFUL:          0  USELESS:          0
DTLB USEFUL LOAD PREFETCHES:          0 PREFETCH ISSUED TO LOWER LEVEL:          0  ACCURACY: -nan
DTLB TIMELY PREFETCHES:          0 LATE PREFETCHES: 0 DROPPED PREFETCHES: 0
DTLB PREFETCHES SAME FILL-ORIGIN LEVEL: 0 DIFFERENT FILL-ORIGIN LEVEL: 0
DTLB AVERAGE MISS LATENCY: 385.496 cycles
DTLB RQ	ACCESS:   14547600	FORWARD:          0	MERGED:    1060723	TO_CACHE:   13486877

STLB TOTAL     ACCESS:     864307  HIT:     847876  MISS:      16431  HIT %:    98.0989  MISS %:    1.90106   MPKI: 0.32862
STLB LOAD TRANSLATION ACCESS:      19755  HIT:       3324  MISS:      16431  HIT %:    16.8261  MISS %:    83.1739   MPKI: 0.32862
STLB TRANSLATION FROM L1D PREFETCHER ACCESS:     844552  HIT:     844552  MISS:          0  HIT %:        100  MISS %:          0   MPKI: 0
STLB PREFETCH  REQUESTED:          0  ISSUED:          0  USEFUL:          0  USELESS:          0
STLB USEFUL LOAD PREFETCHES:          0 PREFETCH ISSUED TO LOWER LEVEL:          0  ACCURACY: -nan
STLB TIMELY PREFETCHES:          0 LATE PREFETCHES: 0 DROPPED PREFETCHES: 0
STLB PREFETCHES SAME FILL-ORIGIN LEVEL: 0 DIFFERENT FILL-ORIGIN LEVEL: 0
STLB AVERAGE MISS LATENCY: 451.471 cycles
STLB RQ	ACCESS:    4568776	FORWARD:          0	MERGED:    3704469	TO_CACHE:     864307

STLB Hit, L1D data hit: 0
STLB Hit, L2C data hit: 0
STLB Hit, LLC data hit: 0
STLB Hit, LLC data miss: 0
STLB STLB hints to L2: 0
L1D TOTAL     ACCESS:   19056095  HIT:   18335047  MISS:     721048  HIT %:    96.2162  MISS %:    3.78382   MPKI: 14.421
L1D LOAD      ACCESS:   12832178  HIT:   12770505  MISS:      61673  HIT %:    99.5194  MISS %:   0.480612   MPKI: 1.23346
L1D RFO       ACCESS:    1677918  HIT:    1673188  MISS:       4730  HIT %:    99.7181  MISS %:   0.281897   MPKI: 0.0946
L1D PREFETCH  ACCESS:    4545999  HIT:    3891354  MISS:     654645  HIT %:    85.5995  MISS %:    14.4005   MPKI: 13.0929
L1D PREFETCH  REQUESTED:    9846158  ISSUED:    9098042  USEFUL:     599299  USELESS:      55333
L1D USEFUL LOAD PREFETCHES:     599299 PREFETCH ISSUED TO LOWER LEVEL:     665795  ACCURACY: 90.0125
L1D TIMELY PREFETCHES:     599299 LATE PREFETCHES: 272 DROPPED PREFETCHES: 0
L1D PREFETCHES SAME FILL-ORIGIN LEVEL: 665795 DIFFERENT FILL-ORIGIN LEVEL: 0
L1D AVERAGE MISS LATENCY: 10063 cycles
L1D RQ	ACCESS:   19112601	FORWARD:          0	MERGED:    6264873	TO_CACHE:   12847725
L1D WQ	ACCESS:    1699875	FORWARD:          3	MERGED:          0	TO_CACHE:    1699875
L1D PQ	ACCESS:    4549021	FORWARD:          0	MERGED:          0	TO_CACHE:    4549021

L1D UNIQUE REGIONS ACCESSED: 0
L1D REGIONS CONFLICTS: 0
L1D Cross Page Prefetch Requests: 0
L1D Same Page Prefetch Requests: 5519043
L1D ROI Sum of L1D PQ occupancy: 66689930
L1D PREFETCHES PUSHED FROM L2C: 0
L1I TOTAL     ACCESS:    8355407  HIT:    8355407  MISS:          0  HIT %:        100  MISS %:          0   MPKI: 0
L1I LOAD      ACCESS:    8355407  HIT:    8355407  MISS:          0  HIT %:        100  MISS %:          0   MPKI: 0
L1I PREFETCH  REQUESTED:          0  ISSUED:          0  USEFUL:          0  USELESS:          0
L1I USEFUL LOAD PREFETCHES:          0 PREFETCH ISSUED TO LOWER LEVEL:          0  ACCURACY: -nan
L1I TIMELY PREFETCHES:          0 LATE PREFETCHES: 0 DROPPED PREFETCHES: 0
L1I PREFETCHES SAME FILL-ORIGIN LEVEL: 0 DIFFERENT FILL-ORIGIN LEVEL: 0
L1I AVERAGE MISS LATENCY: -nan cycles
L1I RQ	ACCESS:   13368495	FORWARD:          0	MERGED:    5013088	TO_CACHE:    8355407

BTB TOTAL     ACCESS:    2106371  HIT:    2106360  MISS:         11  HIT %:    99.9995  MISS %: 0.000522225   MPKI: 0.00022
BTB BRANCH_DIRECT_JUMP	ACCESS:         40  HIT:         39  MISS:          1
BTB BRANCH_INDIRECT	ACCESS:          0  HIT:          0  MISS:          0
BTB BRANCH_CONDITIONAL	ACCESS:    2106251  HIT:    2106243  MISS:          8
BTB BRANCH_DIRECT_CALL	ACCESS:         40  HIT:         39  MISS:          1
BTB BRANCH_INDIRECT_CALL	ACCESS:          0  HIT:          0  MISS:          0
BTB BRANCH_RETURN	ACCESS:         40  HIT:         39  MISS:          1
BTB BRANCH_OTHER ACCESS:          0  HIT:          0  MISS:          0

L2C TOTAL     ACCESS:    3365224  HIT:    2607014  MISS:     758210  HIT %:    77.4693  MISS %:    22.5307   MPKI: 15.1642
L2C LOAD      ACCESS:      61398  HIT:      36451  MISS:      24947  HIT %:    59.3684  MISS %:    40.6316   MPKI: 0.49894
L2C DATA LOAD MPKI: 0.49894
L2C INSTRUCTION LOAD MPKI: 0
L2C RFO       ACCESS:       4730  HIT:        477  MISS:       4253  HIT %:    10.0846  MISS %:    89.9154   MPKI: 0.08506
L2C PREFETCH  ACCESS:    3253963  HIT:    2540397  MISS:     713566  HIT %:    78.0709  MISS %:    21.9291   MPKI: 14.2713
L2C DATA PREFETCH MPKI: 14.2713
L2C INSTRUCTION PREFETCH MPKI: 0
L2C WRITEBACK ACCESS:      20488  HIT:      18593  MISS:       1895  HIT %:    90.7507  MISS %:    9.24932   MPKI: 0.0379
L2C LOAD TRANSLATION ACCESS:      24645  HIT:      11096  MISS:      13549  HIT %:    45.0233  MISS %:    54.9767   MPKI: 0.27098
L2C PREFETCH  REQUESTED:    3249310  ISSUED:    3058292  USEFUL:      33286  USELESS:     680523
L2C USEFUL LOAD PREFETCHES:      33286 PREFETCH ISSUED TO LOWER LEVEL:     713640  ACCURACY: 4.66426
L2C TIMELY PREFETCHES:      33286 LATE PREFETCHES: 67 DROPPED PREFETCHES: 0
L2C PREFETCHES SAME FILL-ORIGIN LEVEL: 581216 DIFFERENT FILL-ORIGIN LEVEL: 0
L2C AVERAGE MISS LATENCY: 111.435 cycles
L2C RQ	ACCESS:      90776	FORWARD:          0	MERGED:          0	TO_CACHE:      90773
L2C WQ	ACCESS:      20488	FORWARD:         46	MERGED:          0	TO_CACHE:      20488
L2C PQ	ACCESS:    3713210	FORWARD:          0	MERGED:     448843	TO_CACHE:    3264324

L2C Instructions Evicting Data 0
L2C Translations Evicting Data 13267
L2C Data Evicting Data 729556
L2C Instructions Evicting Instructions 0
L2C Translations Evicting Instructions 0
L2C Data Evicting Instructions 0
L2C Instructions Evicting Translations 0
L2C Translations Evicting Translations 282
L2C Data Evicting Translations 13210
L2C Dense regions hint from L2: 0
PSCL5 TOTAL     ACCESS:      16431  HIT:      16431  MISS:          0  HIT %:        100  MISS %:          0   MPKI: 0
PSCL5 LOAD TRANSLATION ACCESS:      16431  HIT:      16431  MISS:          0  HIT %:        100  MISS %:          0   MPKI: 0
PSCL5 PREFETCH  REQUESTED:          0  ISSUED:          0  USEFUL:          0  USELESS:          0
PSCL5 USEFUL LOAD PREFETCHES:          0 PREFETCH ISSUED TO LOWER LEVEL:          0  ACCURACY: -nan
PSCL5 TIMELY PREFETCHES:          0 LATE PREFETCHES: 0 DROPPED PREFETCHES: 0
PSCL5 PREFETCHES SAME FILL-ORIGIN LEVEL: 0 DIFFERENT FILL-ORIGIN LEVEL: 0

PSCL4 TOTAL     ACCESS:      16431  HIT:      16431  MISS:          0  HIT %:        100  MISS %:          0   MPKI: 0
PSCL4 LOAD TRANSLATION ACCESS:      16431  HIT:      16431  MISS:          0  HIT %:        100  MISS %:          0   MPKI: 0
PSCL4 PREFETCH  REQUESTED:          0  ISSUED:          0  USEFUL:          0  USELESS:          0
PSCL4 USEFUL LOAD PREFETCHES:          0 PREFETCH ISSUED TO LOWER LEVEL:          0  ACCURACY: -nan
PSCL4 TIMELY PREFETCHES:          0 LATE PREFETCHES: 0 DROPPED PREFETCHES: 0
PSCL4 PREFETCHES SAME FILL-ORIGIN LEVEL: 0 DIFFERENT FILL-ORIGIN LEVEL: 0

PSCL3 TOTAL     ACCESS:      16430  HIT:      16425  MISS:          5  HIT %:    99.9696  MISS %:  0.0304321   MPKI: 0.0001
PSCL3 LOAD TRANSLATION ACCESS:      16430  HIT:      16425  MISS:          5  HIT %:    99.9696  MISS %:  0.0304321   MPKI: 0.0001
PSCL3 PREFETCH  REQUESTED:          0  ISSUED:          0  USEFUL:          0  USELESS:          0
PSCL3 USEFUL LOAD PREFETCHES:          0 PREFETCH ISSUED TO LOWER LEVEL:          0  ACCURACY: -nan
PSCL3 TIMELY PREFETCHES:          0 LATE PREFETCHES: 0 DROPPED PREFETCHES: 0
PSCL3 PREFETCHES SAME FILL-ORIGIN LEVEL: 0 DIFFERENT FILL-ORIGIN LEVEL: 0

PSCL2 TOTAL     ACCESS:      16431  HIT:       8154  MISS:       8277  HIT %:    49.6257  MISS %:    50.3743   MPKI: 0.16554
PSCL2 LOAD TRANSLATION ACCESS:      16431  HIT:       8154  MISS:       8277  HIT %:    49.6257  MISS %:    50.3743   MPKI: 0.16554
PSCL2 PREFETCH  REQUESTED:          0  ISSUED:          0  USEFUL:          0  USELESS:          0
PSCL2 USEFUL LOAD PREFETCHES:          0 PREFETCH ISSUED TO LOWER LEVEL:          0  ACCURACY: -nan
PSCL2 TIMELY PREFETCHES:          0 LATE PREFETCHES: 0 DROPPED PREFETCHES: 0
PSCL2 PREFETCHES SAME FILL-ORIGIN LEVEL: 0 DIFFERENT FILL-ORIGIN LEVEL: 0

LLC TOTAL     ACCESS:     761852  HIT:     137058  MISS:     624794  HIT %:    17.9901  MISS %:    82.0099   MPKI: 12.4959
LLC LOAD      ACCESS:      24880  HIT:       3587  MISS:      21293  HIT %:    14.4172  MISS %:    85.5828   MPKI: 0.42586
LLC RFO       ACCESS:       4253  HIT:         40  MISS:       4213  HIT %:   0.940513  MISS %:    99.0595   MPKI: 0.08426
LLC PREFETCH  ACCESS:     713637  HIT:     119528  MISS:     594109  HIT %:    16.7491  MISS %:    83.2509   MPKI: 11.8822
LLC WRITEBACK ACCESS:       5533  HIT:       4489  MISS:       1044  HIT %:    81.1314  MISS %:    18.8686   MPKI: 0.02088
LLC LOAD TRANSLATION ACCESS:      13549  HIT:       9414  MISS:       4135  HIT %:    69.4811  MISS %:    30.5189   MPKI: 0.0827
LLC PREFETCH  REQUESTED:          0  ISSUED:          0  USEFUL:         16  USELESS:     594219
LLC USEFUL LOAD PREFETCHES:         16 PREFETCH ISSUED TO LOWER LEVEL:     594112  ACCURACY: 0.00269309
LLC TIMELY PREFETCHES:         16 LATE PREFETCHES: 0 DROPPED PREFETCHES: 0
LLC PREFETCHES SAME FILL-ORIGIN LEVEL: 0 DIFFERENT FILL-ORIGIN LEVEL: 0
LLC AVERAGE MISS LATENCY: 95.6645 cycles
LLC RQ	ACCESS:      42682	FORWARD:          0	MERGED:          0	TO_CACHE:      42682
LLC WQ	ACCESS:       5533	FORWARD:          0	MERGED:          0	TO_CACHE:       5533
LLC PQ	ACCESS:     713640	FORWARD:          0	MERGED:          0	TO_CACHE:     713640

LLC Dense regions hint to LLC: 0

RAW hits: 75
Loads Generated: 19112677
Loads sent to L1D: 19112601
Stores Generated: 1699875
Stores sent to L1D: 1699875
Major fault: 0 Minor fault: 20110
Allocated PAGES: 20110

stream: 
stream:times selected: 1264095
stream:pref_filled: 793348
stream:pref_useful: 725756
stream:pref_late: 381
stream:misses: 10
stream:misses_by_poll: 0

CS: 
CS:times selected: 1262513
CS:pref_filled: 1098
CS:pref_useful: 1078
CS:pref_late: 4
CS:misses: 79992
CS:misses_by_poll: 4

CPLX: 
CPLX:times selected: 1548
CPLX:pref_filled: 73
CPLX:pref_useful: 12
CPLX:pref_late: 0
CPLX:misses: 523
CPLX:misses_by_poll: 0

NL_L1: 
NL:times selected: 2
NL:pref_filled: 2
NL:pref_useful: 2
NL:pref_late: 0
NL:misses: 0
NL:misses_by_poll: 0

total selections: 2528158
total_filled: 654645
total_useful: 599299
total_late: 387
total_polluted: 4
total_misses_after_warmup: 77217
conflicts: 17
Degree Incremented Times: 178929
Degree Decremented Times: 0

L1 IP Table Write Accesses: 12847504
L1 IP Table Read Accesses: 12847487
L1 RST Write Accesses: 1054367
L1 RST Read Accesses: 2108734
L1 CSPT Write Accesses: 1054367
L1 CSPT Read Accesses: 1058425
L1 RR Filter Tag Write Accesses: 5297137
L1 RR Filter Tag Read Accesses: 261878016
L1 IP Table Tag Write Accesses: 12847722
L1 IP Table Tag Read Accesses: 12847722
L1 RST Tag Write Accesses: 0
L1 RST Tag Read Accesses: 9498849
L1 RR Filter Write Accesses: 0
L1 RR Filter Read Accesses: 9034386
test: 35076
L2 IP Table Read Accesses: 1152046
L2 IP Table Write Accesses: 1090651
L2 IP Table Tag Read Accesses: 576024
L2 IP Table Tag Write Accesses: 576024

DRAM Statistics
 CHANNEL 0
 RQ ROW_BUFFER_HIT:     527017  ROW_BUFFER_MISS:      96734
 DBUS_CONGESTED:         63
 WQ ROW_BUFFER_HIT:        968  ROW_BUFFER_MISS:       4324  FULL:          0

 AVG_CONGESTED_CYCLE: 5
 All warmup complete: 2
Channel 0 Bank busy for read cycles: 0
Channel 0 Bank busy for write cycles: 0
Channel 0
Rank 0
0banks busy for read cycles: 28019411
0banks busy for write cycles: 3222
1banks busy for read cycles: 11804834
1banks busy for write cycles: 474702
2banks busy for read cycles: 2925022
2banks busy for write cycles: 108714
3banks busy for read cycles: 1176666
3banks busy for write cycles: 42087
4banks busy for read cycles: 684978
4banks busy for write cycles: 22462
5banks busy for read cycles: 481278
5banks busy for write cycles: 15099
6banks busy for read cycles: 498229
6banks busy for write cycles: 7719
7banks busy for read cycles: 1128143
7banks busy for write cycles: 5272
8banks busy for read cycles: 455669
8banks busy for write cycles: 2337

CPU 0 Branch Prediction Accuracy: 99.9267% MPKI: 0.03682 Average ROB Occupancy at Mispredict: 64.7127
Branch types
NOT_BRANCH: 47488929 94.9779%
BRANCH_DIRECT_JUMP: 40 8e-05%
BRANCH_INDIRECT: 0 0%
BRANCH_CONDITIONAL: 2510869 5.02174%
BRANCH_DIRECT_CALL: 40 8e-05%
BRANCH_INDIRECT_CALL: 0 0%
BRANCH_RETURN: 40 8e-05%
BRANCH_OTHER: 0 0%

@sumon_overall_L1D    599299       272     55333    654645   9098042   9846158
@Sumon_Early_by_class_L1D    598610       677        12         0
@Sumon_Late_by_class_L1D       270         0         0         0

@Sumon_Early_by_cycle_L1D       543      1943     21717     13934     18112    199528    343042        18         2        51       141       268
@Sumon_Late_by_cycle_L1D       232        40         0         0         0         0         0         0         0         0         0         0
@Sumon_Early_stream_L1D       543      1943     21682     13906     18074    198944    343038        18         2        51       141       268
@Sumon_Early_CS_L1D         0         0        32        26        36       579         4         0         0         0         0         0
@Sumon_Early_CPLX_L1D         0         0         3         2         2         5         0         0         0         0         0         0
@Sumon_Late_stream_L1D       230        40         0         0         0         0         0         0         0         0         0         0
@Sumon_Late_CS_L1D         0         0         0         0         0         0         0         0         0         0         0         0
@Sumon_Late_CPLX_L1D         0         0         0         0         0         0         0         0         0         0         0         0
@sumon_overall_L2C     33286        67    680523    713566   3058292   3249310
@Sumon_Early_by_class_L2C     33238        48         0         0
@Sumon_Late_by_class_L2C        60         0         0         0

@Sumon_Early_by_cycle_L2C         2        72      3310      1138      2314     13489     12156       102         0         0         0       703
@Sumon_Late_by_cycle_L2C        34        31         2         0         0         0         0         0         0         0         0         0
@Sumon_Early_stream_L2C         2        72      3309      1136      2312     13446     12156       102         0         0         0       703
@Sumon_Early_CS_L2C         0         0         1         2         2        43         0         0         0         0         0         0
@Sumon_Early_CPLX_L2C         0         0         0         0         0         0         0         0         0         0         0         0
@Sumon_Late_stream_L2C        27        31         2         0         0         0         0         0         0         0         0         0
@Sumon_Late_CS_L2C         0         0         0         0         0         0         0         0         0         0         0         0
@Sumon_Late_CPLX_L2C         0         0         0         0         0         0         0         0         0         0         0         0
DRAM PAGES: 1048576
Allocated PAGES: 20110
