
*** ChampSim Multicore Out-of-Order Simulator ***

Warmup Instructions: 50000000
Simulation Instructions: 50000000
Number of CPUs: 1
LLC sets: 2048
LLC ways: 16
Off-chip DRAM Size: 4096 MB Channels: 1 Width: 64-bit Data Rate: 6400 MT/s
CPU 0 runs ../../biswa/SPEC2017Traces/602.gcc_s-1850B.champsimtrace.xz
.xz
CPU 0 Bimodal branch predictor
BTB has LRU replacement policy
ITLB has LRU replacement policy
DTLB has LRU replacement policy
STLB has LRU replacement policy
L1I has LRU replacement policy
L1D has LRU replacement policy
Bingo PHT WAYS: 16 and PHT_SIZE: 16384
Initialize DRRIP state for L2C
Initialize SRRIP state
epoch: 1000
next table: 2811
cur table: 11994
epoch: 1000
next table: 2454
cur table: 2811
epoch: 1000
next table: 2265
cur table: 2454
epoch: 1000
next table: 2330
cur table: 2265
epoch: 1000
next table: 2306
cur table: 2330
epoch: 1000
next table: 2333
cur table: 2306
epoch: 1000
next table: 2309
cur table: 2333
epoch: 1000
next table: 2376
cur table: 2309
epoch: 1000
next table: 2255
cur table: 2376
epoch: 1000
next table: 2309
cur table: 2255
epoch: 1000
next table: 2329
cur table: 2309
epoch: 1000
next table: 2224
cur table: 2329
epoch: 1000
next table: 2364
cur table: 2224
epoch: 1000
next table: 2343
cur table: 2364
epoch: 1000
next table: 2272
cur table: 2343
epoch: 1000
next table: 2305
cur table: 2272
epoch: 1000
next table: 2302
cur table: 2305
epoch: 1000
next table: 2370
cur table: 2302
epoch: 1000
next table: 2218
cur table: 2370
epoch: 1000
next table: 2365
cur table: 2218
epoch: 1000
next table: 2234
cur table: 2365
epoch: 1000
next table: 2341
cur table: 2234
epoch: 1000
next table: 1056
cur table: 3489
epoch: 1000
next table: 2300
cur table: 2341
epoch: 1000
next table: 1091
cur table: 1056
epoch: 1000
next table: 2365
cur table: 2300
epoch: 1000
next table: 1040
cur table: 1091
epoch: 1000
next table: 2296
cur table: 2365
epoch: 1000
next table: 1096
cur table: 1040
epoch: 1000
next table: 2320
cur table: 2296
epoch: 1000
next table: 2352
cur table: 2320
epoch: 1000
next table: 1089
cur table: 1096
epoch: 1000
next table: 2401
cur table: 2352
epoch: 1000
next table: 1095
cur table: 1089
epoch: 1000
next table: 2352
cur table: 2401
epoch: 1000
next table: 1047
cur table: 1095
epoch: 1000
next table: 2284
cur table: 2352
epoch: 1000
next table: 1052
cur table: 1047
epoch: 1000
next table: 2346
cur table: 2284
epoch: 1000
next table: 1056
cur table: 1052
epoch: 1000
next table: 2358
cur table: 2346
epoch: 1000
next table: 1050
cur table: 1056
epoch: 1000
next table: 2361
cur table: 2358
epoch: 1000
next table: 1082
cur table: 1050
epoch: 1000
next table: 2338
cur table: 2361
epoch: 1000
next table: 1057
cur table: 1082
epoch: 1000
next table: 2285
cur table: 2338
epoch: 1000
next table: 1048
cur table: 1057
epoch: 1000
next table: 2400
cur table: 2285
epoch: 1000
next table: 1056
cur table: 1048
epoch: 1000
next table: 2323
cur table: 2400
epoch: 1000
next table: 1086
cur table: 1056
epoch: 1000
next table: 2355
cur table: 2323
epoch: 1000
next table: 1079
cur table: 1086
epoch: 1000
next table: 2319
cur table: 2355
epoch: 1000
next table: 1056
cur table: 1079
epoch: 1000
next table: 2244
cur table: 2319
epoch: 1000
next table: 1041
cur table: 1056
epoch: 1000
next table: 2311
cur table: 2244
epoch: 1000
next table: 1040
cur table: 1041
epoch: 1000
next table: 2243
cur table: 2311
epoch: 1000
next table: 1044
cur table: 1040
epoch: 1000
next table: 2332
cur table: 2243
epoch: 1000
next table: 1041
cur table: 1044
epoch: 1000
next table: 2371
cur table: 2332
epoch: 1000
next table: 1037
cur table: 1041
epoch: 1000
next table: 2333
cur table: 2371
epoch: 1000
next table: 1044
cur table: 1037
epoch: 1000
next table: 2256
cur table: 2333
epoch: 1000
next table: 1051
cur table: 1044
epoch: 1000
next table: 2341
cur table: 2256
epoch: 1000
next table: 1065
cur table: 1051
epoch: 1000
next table: 2312
cur table: 2341
epoch: 1000
next table: 1045
cur table: 1065
epoch: 1000
next table: 2293
cur table: 2312
epoch: 1000
next table: 1068
cur table: 1045
epoch: 1000
next table: 2305
cur table: 2293
epoch: 1000
next table: 1045
cur table: 1068
epoch: 1000
next table: 2363
cur table: 2305
epoch: 1000
next table: 1054
cur table: 1045
epoch: 1000
next table: 2310
cur table: 2363
epoch: 1000
next table: 1053
cur table: 1054
epoch: 1000
next table: 2333
cur table: 2310
epoch: 1000
next table: 1041
cur table: 1053
epoch: 1000
next table: 2260
cur table: 2333
epoch: 1000
next table: 1063
cur table: 1041
epoch: 1000
next table: 2348
cur table: 2260
epoch: 1000
next table: 1082
cur table: 1063
epoch: 1000
next table: 2302
cur table: 2348
epoch: 1000
next table: 1041
cur table: 1082
epoch: 1000
next table: 2367
cur table: 2302
epoch: 1000
next table: 1035
cur table: 1041
epoch: 1000
next table: 2364
cur table: 2367
epoch: 1000
next table: 1048
cur table: 1035
epoch: 1000
next table: 2308
cur table: 2364
epoch: 1000
next table: 1097
cur table: 1048
epoch: 1000
next table: 2317
cur table: 2308
epoch: 1000
next table: 1046
cur table: 1097
epoch: 1000
next table: 2319
cur table: 2317
epoch: 1000
next table: 1046
cur table: 1046
epoch: 1000
next table: 2370
cur table: 2319
epoch: 1000
next table: 1037
cur table: 1046
epoch: 1000
next table: 2339
cur table: 2370
epoch: 1000
next table: 1062
cur table: 1037
epoch: 1000
next table: 2339
cur table: 2339
epoch: 1000
next table: 1051
cur table: 1062
epoch: 1000
next table: 2300
cur table: 2339
epoch: 1000
next table: 1042
cur table: 1051
epoch: 1000
next table: 2347
cur table: 2300
epoch: 1000
next table: 1034
cur table: 1042
epoch: 1000
next table: 2288
cur table: 2347
epoch: 1000
next table: 1044
cur table: 1034
epoch: 1000
next table: 2325
cur table: 2288
epoch: 1000
next table: 1062
cur table: 1044
epoch: 1000
next table: 2358
cur table: 2325
epoch: 1000
next table: 1045
cur table: 1062
epoch: 1000
next table: 2368
cur table: 2358
epoch: 1000
next table: 1057
cur table: 1045
epoch: 1000
next table: 2290
cur table: 2368
epoch: 1000
next table: 1038
cur table: 1057
epoch: 1000
next table: 2354
cur table: 2290
epoch: 1000
next table: 1042
cur table: 1038
epoch: 1000
next table: 2391
cur table: 2354
epoch: 1000
next table: 1049
cur table: 1042
epoch: 1000
next table: 2307
cur table: 2391
epoch: 1000
next table: 1044
cur table: 1049
epoch: 1000
next table: 2351
cur table: 2307
epoch: 1000
next table: 1040
cur table: 1044
epoch: 1000
next table: 2268
cur table: 2351
epoch: 1000
next table: 1065
cur table: 1040
epoch: 1000
next table: 2331
cur table: 2268
epoch: 1000
next table: 1095
cur table: 1065
epoch: 1000
next table: 2260
cur table: 2331
epoch: 1000
next table: 1082
cur table: 1095
epoch: 1000
next table: 2336
cur table: 2260
epoch: 1000
next table: 1039
cur table: 1082
epoch: 1000
next table: 2355
cur table: 2336
epoch: 1000
next table: 1086
cur table: 1039
epoch: 1000
next table: 2355
cur table: 2355
epoch: 1000
next table: 1044
cur table: 1086
epoch: 1000
next table: 2331
cur table: 2355
epoch: 1000
next table: 1069
cur table: 1044
epoch: 1000
next table: 2373
cur table: 2331
epoch: 1000
next table: 1062
cur table: 1069
epoch: 1000
next table: 2305
cur table: 2373
epoch: 1000
next table: 1037
cur table: 1062
epoch: 1000
next table: 2320
cur table: 2305
epoch: 1000
next table: 1047
cur table: 1037
epoch: 1000
next table: 2348
cur table: 2320
epoch: 1000
next table: 1047
cur table: 1047
epoch: 1000
next table: 2358
cur table: 2348
epoch: 1000
next table: 1069
cur table: 1047
epoch: 1000
next table: 2290
cur table: 2358
epoch: 1000
next table: 1079
cur table: 1069
epoch: 1000
next table: 2314
cur table: 2290
epoch: 1000
next table: 1036
cur table: 1079
epoch: 1000
next table: 2359
cur table: 2314
epoch: 1000
next table: 1049
cur table: 1036
epoch: 1000
next table: 2333
cur table: 2359
epoch: 1000
next table: 1052
cur table: 1049
epoch: 1000
next table: 2297
cur table: 2333
epoch: 1000
next table: 1073
cur table: 1052
epoch: 1000
next table: 2314
cur table: 2297
epoch: 1000
next table: 1037
cur table: 1073
epoch: 1000
next table: 2372
cur table: 2314
epoch: 1000
next table: 1413
cur table: 1037
epoch: 1000
next table: 1753
cur table: 2372
epoch: 1000
next table: 1063
cur table: 1413
epoch: 1000
next table: 2295
cur table: 1753
epoch: 1000
next table: 1043
cur table: 1063
epoch: 1000
next table: 2271
cur table: 2295
epoch: 1000
next table: 1045
cur table: 1043
epoch: 1000
next table: 2260
cur table: 2271
epoch: 1000
next table: 1040
cur table: 1045
epoch: 1000
next table: 2353
cur table: 2260
epoch: 1000
next table: 1042
cur table: 1040
epoch: 1000
next table: 2252
cur table: 2353
epoch: 1000
next table: 1036
cur table: 1042
epoch: 1000
next table: 2338
cur table: 2252
epoch: 1000
next table: 1055
cur table: 1036
epoch: 1000
next table: 2311
cur table: 2338
epoch: 1000
next table: 1063
cur table: 1055
epoch: 1000
next table: 2304
cur table: 2311
epoch: 1000
next table: 1050
cur table: 1063
epoch: 1000
next table: 2410
cur table: 2304
epoch: 1000
next table: 1045
cur table: 1050
epoch: 1000
next table: 2312
cur table: 2410
epoch: 1000
next table: 1038
cur table: 1045
epoch: 1000
next table: 2402
cur table: 2312
epoch: 1000
next table: 1061
cur table: 1038
epoch: 1000
next table: 2293
cur table: 2402
epoch: 1000
next table: 1063
cur table: 1061
epoch: 1000
next table: 2325
cur table: 2293
epoch: 1000
next table: 1046
cur table: 1063
epoch: 1000
next table: 2353
cur table: 2325
epoch: 1000
next table: 1039
cur table: 1046
epoch: 1000
next table: 2352
cur table: 2353
epoch: 1000
next table: 1037
cur table: 1039
epoch: 1000
next table: 2266
cur table: 2352
epoch: 1000
next table: 1039
cur table: 1037
epoch: 1000
next table: 2345
cur table: 2266
epoch: 1000
next table: 1062
cur table: 1039
epoch: 1000
next table: 2321
cur table: 2345
epoch: 1000
next table: 1059
cur table: 1062
epoch: 1000
next table: 2328
cur table: 2321
epoch: 1000
next table: 1060
cur table: 1059
epoch: 1000
next table: 2302
cur table: 2328
epoch: 1000
next table: 1042
cur table: 1060
epoch: 1000
next table: 2329
cur table: 2302
epoch: 1000
next table: 1044
cur table: 1042
epoch: 1000
next table: 2376
cur table: 2329
epoch: 1000
next table: 1086
cur table: 1044
epoch: 1000
next table: 2311
cur table: 2376
epoch: 1000
next table: 1057
cur table: 1086
epoch: 1000
next table: 2352
cur table: 2311
epoch: 1000
next table: 1039
cur table: 1057
epoch: 1000
next table: 2328
cur table: 2352
epoch: 1000
next table: 2357
cur table: 2328
epoch: 1000
next table: 1053
cur table: 1039
epoch: 1000
next table: 2311
cur table: 2357
epoch: 1000
next table: 1044
cur table: 1053
epoch: 1000
next table: 2363
cur table: 2311
epoch: 1000
next table: 1039
cur table: 1044
epoch: 1000
next table: 2375
cur table: 2363
epoch: 1000
next table: 1076
cur table: 1039
epoch: 1000
next table: 2310
cur table: 2375
epoch: 1000
next table: 1039
cur table: 1076
epoch: 1000
next table: 2353
cur table: 2310
epoch: 1000
next table: 1038
cur table: 1039
epoch: 1000
next table: 2346
cur table: 2353
epoch: 1000
next table: 1046
cur table: 1038
epoch: 1000
next table: 2290
cur table: 2346
epoch: 1000
next table: 1038
cur table: 1046
epoch: 1000
next table: 2360
cur table: 2290
epoch: 1000
next table: 1052
cur table: 1038
epoch: 1000
next table: 2334
cur table: 2360
epoch: 1000
next table: 1039
cur table: 1052
epoch: 1000
next table: 2328
cur table: 2334
epoch: 1000
next table: 1047
cur table: 1039
epoch: 1000
next table: 2265
cur table: 2328
epoch: 1000
next table: 1069
cur table: 1047
epoch: 1000
next table: 2326
cur table: 2265
epoch: 1000
next table: 1037
cur table: 1069
epoch: 1000
next table: 2309
cur table: 2326
epoch: 1000
next table: 1038
cur table: 1037
epoch: 1000
next table: 2252
cur table: 2309
epoch: 1000
next table: 1045
cur table: 1038
epoch: 1000
next table: 2299
cur table: 2252
epoch: 1000
next table: 1036
cur table: 1045
epoch: 1000
next table: 2342
cur table: 2299
epoch: 1000
next table: 1039
cur table: 1036
epoch: 1000
next table: 2315
cur table: 2342
epoch: 1000
next table: 1042
cur table: 1039
epoch: 1000
next table: 2311
cur table: 2315
epoch: 1000
next table: 1040
cur table: 1042
epoch: 1000
next table: 2302
cur table: 2311
epoch: 1000
next table: 1038
cur table: 1040
epoch: 1000
next table: 2331
cur table: 2302
epoch: 1000
next table: 1040
cur table: 1038
epoch: 1000
next table: 2368
cur table: 2331
epoch: 1000
next table: 1037
cur table: 1040
epoch: 1000
next table: 2312
cur table: 2368
epoch: 1000
next table: 1040
cur table: 1037
epoch: 1000
next table: 2306
cur table: 2312
epoch: 1000
next table: 1043
cur table: 1040
epoch: 1000
next table: 2182
cur table: 2306
epoch: 1000
next table: 1044
cur table: 1043
epoch: 1000
next table: 2322
cur table: 2182
epoch: 1000
next table: 1040
cur table: 1044
epoch: 1000
next table: 2379
cur table: 2322
epoch: 1000
next table: 1035
cur table: 1040
epoch: 1000
next table: 2323
cur table: 2379
epoch: 1000
next table: 1038
cur table: 1035
epoch: 1000
next table: 2342
cur table: 2323
epoch: 1000
next table: 1041
cur table: 1038
epoch: 1000
next table: 2363
cur table: 2342
epoch: 1000
next table: 1037
cur table: 1041
epoch: 1000
next table: 2384
cur table: 2363
epoch: 1000
next table: 1035
cur table: 1037
epoch: 1000
next table: 2292
cur table: 2384
epoch: 1000
next table: 1036
cur table: 1035
epoch: 1000
next table: 2313
cur table: 2292
epoch: 1000
next table: 1039
cur table: 1036
epoch: 1000
next table: 2347
cur table: 2313
epoch: 1000
next table: 1037
cur table: 1039
epoch: 1000
next table: 2393
cur table: 2347
epoch: 1000
next table: 1035
cur table: 1037
epoch: 1000
next table: 2353
cur table: 2393
epoch: 1000
next table: 1039
cur table: 1035
epoch: 1000
next table: 2305
cur table: 2353
epoch: 1000
next table: 1035
cur table: 1039
epoch: 1000
next table: 2398
cur table: 2305
epoch: 1000
next table: 1036
cur table: 1035
epoch: 1000
next table: 2334
cur table: 2398
epoch: 1000
next table: 1040
cur table: 1036
epoch: 1000
next table: 2345
cur table: 2334
epoch: 1000
next table: 1037
cur table: 1040
epoch: 1000
next table: 2329
cur table: 2345
epoch: 1000
next table: 1036
cur table: 1037
epoch: 1000
next table: 2332
cur table: 2329
epoch: 1000
next table: 1041
cur table: 1036
epoch: 1000
next table: 2341
cur table: 2332
epoch: 1000
next table: 1036
cur table: 1041
epoch: 1000
next table: 2428
cur table: 2341
epoch: 1000
next table: 1035
cur table: 1036
epoch: 1000
next table: 2357
cur table: 2428
epoch: 1000
next table: 1035
cur table: 1035
epoch: 1000
next table: 2366
cur table: 2357
epoch: 1000
next table: 1038
cur table: 1035
epoch: 1000
next table: 2319
cur table: 2366
epoch: 1000
next table: 1035
cur table: 1038
epoch: 1000
next table: 2393
cur table: 2319
epoch: 1000
next table: 1043
cur table: 1035
epoch: 1000
next table: 2244
cur table: 2393
epoch: 1000
next table: 1045
cur table: 1043
epoch: 1000
next table: 2261
cur table: 2244
epoch: 1000
next table: 1044
cur table: 1045
epoch: 1000
next table: 2133
cur table: 2261
epoch: 1000
next table: 1043
cur table: 1044
epoch: 1000
next table: 2255
cur table: 2133
epoch: 1000
next table: 1040
cur table: 1043
epoch: 1000
next table: 2268
cur table: 2255
epoch: 1000
next table: 1047
cur table: 1040
epoch: 1000
next table: 2258
cur table: 2268
epoch: 1000
next table: 1045
cur table: 1047
epoch: 1000
next table: 2254
cur table: 2258
epoch: 1000
next table: 1035
cur table: 1045
epoch: 1000
next table: 2296
cur table: 2254
Heartbeat CPU 0 instructions: 10000002 cycles: 3264957 heartbeat IPC: 3.06283 cumulative IPC: 3.06283 (Simulation time: 0 hr 5 min 43 sec) 
epoch: 1000
next table: 1038
cur table: 1035
epoch: 1000
next table: 2318
cur table: 2296
epoch: 1000
next table: 1038
cur table: 1038
epoch: 1000
next table: 2339
cur table: 2318
epoch: 1000
next table: 1043
cur table: 1038
epoch: 1000
next table: 2289
cur table: 2339
epoch: 1000
next table: 1034
cur table: 1043
epoch: 1000
next table: 2286
cur table: 2289
epoch: 1000
next table: 1047
cur table: 1034
epoch: 1000
next table: 2316
cur table: 2286
epoch: 1000
next table: 1048
cur table: 1047
epoch: 1000
next table: 2347
cur table: 2316
epoch: 1000
next table: 1037
cur table: 1048
epoch: 1000
next table: 2327
cur table: 2347
epoch: 1000
next table: 1035
cur table: 1037
epoch: 1000
next table: 2278
cur table: 2327
epoch: 1000
next table: 1041
cur table: 1035
epoch: 1000
next table: 2240
cur table: 2278
epoch: 1000
next table: 1044
cur table: 1041
epoch: 1000
next table: 2338
cur table: 2240
epoch: 1000
next table: 1038
cur table: 1044
epoch: 1000
next table: 2359
cur table: 2338
epoch: 1000
next table: 1038
cur table: 1038
epoch: 1000
next table: 2327
cur table: 2359
epoch: 1000
next table: 1036
cur table: 1038
epoch: 1000
next table: 2373
cur table: 2327
epoch: 1000
next table: 1037
cur table: 1036
epoch: 1000
next table: 2389
cur table: 2373
epoch: 1000
next table: 1038
cur table: 1037
epoch: 1000
next table: 2244
cur table: 2389
epoch: 1000
next table: 1033
cur table: 1038
epoch: 1000
next table: 2296
cur table: 2244
epoch: 1000
next table: 1041
cur table: 1033
epoch: 1000
next table: 2300
cur table: 2296
epoch: 1000
next table: 1042
cur table: 1041
epoch: 1000
next table: 2233
cur table: 2300
epoch: 1000
next table: 1040
cur table: 1042
epoch: 1000
next table: 2365
cur table: 2233
epoch: 1000
next table: 1035
cur table: 1040
epoch: 1000
next table: 2289
cur table: 2365
epoch: 1000
next table: 1039
cur table: 1035
epoch: 1000
next table: 2312
cur table: 2289
epoch: 1000
next table: 1036
cur table: 1039
epoch: 1000
next table: 2304
cur table: 2312
epoch: 1000
next table: 1048
cur table: 1036
epoch: 1000
next table: 2306
cur table: 2304
epoch: 1000
next table: 1044
cur table: 1048
epoch: 1000
next table: 2331
cur table: 2306
epoch: 1000
next table: 1040
cur table: 1044
epoch: 1000
next table: 2351
cur table: 2331
epoch: 1000
next table: 1039
cur table: 1040
epoch: 1000
next table: 2332
cur table: 2351
epoch: 1000
next table: 1042
cur table: 1039
epoch: 1000
next table: 2305
cur table: 2332
epoch: 1000
next table: 1036
cur table: 1042
epoch: 1000
next table: 2325
cur table: 2305
epoch: 1000
next table: 1051
cur table: 1036
epoch: 1000
next table: 2312
cur table: 2325
epoch: 1000
next table: 1039
cur table: 1051
epoch: 1000
next table: 2393
cur table: 2312
epoch: 1000
next table: 1041
cur table: 1039
epoch: 1000
next table: 2295
cur table: 2393
epoch: 1000
next table: 1037
cur table: 1041
epoch: 1000
next table: 2238
cur table: 2295
epoch: 1000
next table: 1048
cur table: 1037
epoch: 1000
next table: 2278
cur table: 2238
epoch: 1000
next table: 1043
cur table: 1048
epoch: 1000
next table: 2241
cur table: 2278
epoch: 1000
next table: 1039
cur table: 1043
epoch: 1000
next table: 2222
cur table: 2241
epoch: 1000
next table: 1044
cur table: 1039
epoch: 1000
next table: 2233
cur table: 2222
epoch: 1000
next table: 1042
cur table: 1044
epoch: 1000
next table: 2249
cur table: 2233
epoch: 1000
next table: 1037
cur table: 1042
epoch: 1000
next table: 2332
cur table: 2249
epoch: 1000
next table: 1043
cur table: 1037
epoch: 1000
next table: 2275
cur table: 2332
epoch: 1000
next table: 1055
cur table: 1043
epoch: 1000
next table: 2243
cur table: 2275
epoch: 1000
next table: 1037
cur table: 1055
epoch: 1000
next table: 2252
cur table: 2243
epoch: 1000
next table: 1049
cur table: 1037
epoch: 1000
next table: 2198
cur table: 2252
epoch: 1000
next table: 1067
cur table: 1049
epoch: 1000
next table: 2343
cur table: 2198
epoch: 1000
next table: 1039
cur table: 1067
epoch: 1000
next table: 2290
cur table: 2343
epoch: 1000
next table: 1036
cur table: 1039
epoch: 1000
next table: 2320
cur table: 2290
epoch: 1000
next table: 1037
cur table: 1036
epoch: 1000
next table: 2391
cur table: 2320
epoch: 1000
next table: 1038
cur table: 1037
epoch: 1000
next table: 2347
cur table: 2391
epoch: 1000
next table: 1036
cur table: 1038
epoch: 1000
next table: 2271
cur table: 2347
epoch: 1000
next table: 1034
cur table: 1036
epoch: 1000
next table: 2349
cur table: 2271
epoch: 1000
next table: 1037
cur table: 1034
epoch: 1000
next table: 2327
cur table: 2349
epoch: 1000
next table: 1039
cur table: 1037
epoch: 1000
next table: 2324
cur table: 2327
epoch: 1000
next table: 1038
cur table: 1039
epoch: 1000
next table: 2304
cur table: 2324
epoch: 1000
next table: 1047
cur table: 1038
epoch: 1000
next table: 2317
cur table: 2304
epoch: 1000
next table: 1036
cur table: 1047
epoch: 1000
next table: 2303
cur table: 2317
epoch: 1000
next table: 1039
cur table: 1036
epoch: 1000
next table: 2215
cur table: 2303
epoch: 1000
next table: 1033
cur table: 1039
epoch: 1000
next table: 2365
cur table: 2215
epoch: 1000
next table: 1035
cur table: 1033
epoch: 1000
next table: 2354
cur table: 2365
epoch: 1000
next table: 1040
cur table: 1035
epoch: 1000
next table: 2282
cur table: 2354
epoch: 1000
next table: 1048
cur table: 1040
epoch: 1000
next table: 2276
cur table: 2282
epoch: 1000
next table: 1045
cur table: 1048
epoch: 1000
next table: 2251
cur table: 2276
epoch: 1000
next table: 1037
cur table: 1045
epoch: 1000
next table: 2233
cur table: 2251
epoch: 1000
next table: 1046
cur table: 1037
epoch: 1000
next table: 2251
cur table: 2233
epoch: 1000
next table: 1054
cur table: 1046
epoch: 1000
next table: 2297
cur table: 2251
epoch: 1000
next table: 1037
cur table: 1054
epoch: 1000
next table: 2339
cur table: 2297
epoch: 1000
next table: 1041
cur table: 1037
epoch: 1000
next table: 2360
cur table: 2339
epoch: 1000
next table: 1037
cur table: 1041
epoch: 1000
next table: 2299
cur table: 2360
epoch: 1000
next table: 1036
cur table: 1037
epoch: 1000
next table: 2380
cur table: 2299
epoch: 1000
next table: 1039
cur table: 1036
epoch: 1000
next table: 2296
cur table: 2380
epoch: 1000
next table: 1045
cur table: 1039
epoch: 1000
next table: 2310
cur table: 2296
epoch: 1000
next table: 1035
cur table: 1045
epoch: 1000
next table: 2316
cur table: 2310
epoch: 1000
next table: 1042
cur table: 1035
epoch: 1000
next table: 2262
cur table: 2316
epoch: 1000
next table: 1041
cur table: 1042
epoch: 1000
next table: 2353
cur table: 2262
epoch: 1000
next table: 1040
cur table: 1041
epoch: 1000
next table: 2323
cur table: 2353
epoch: 1000
next table: 1038
cur table: 1040
epoch: 1000
next table: 2310
cur table: 2323
epoch: 1000
next table: 1043
cur table: 1038
epoch: 1000
next table: 2270
cur table: 2310
epoch: 1000
next table: 1035
cur table: 1043
epoch: 1000
next table: 2270
cur table: 2270
epoch: 1000
next table: 1042
cur table: 1035
epoch: 1000
next table: 2293
cur table: 2270
epoch: 1000
next table: 1039
cur table: 1042
epoch: 1000
next table: 2292
cur table: 2293
epoch: 1000
next table: 1040
cur table: 1039
epoch: 1000
next table: 2226
cur table: 2292
epoch: 1000
next table: 1035
cur table: 1040
epoch: 1000
next table: 2340
cur table: 2226
epoch: 1000
next table: 1040
cur table: 1035
epoch: 1000
next table: 2339
cur table: 2340
epoch: 1000
next table: 1040
cur table: 1040
epoch: 1000
next table: 2409
cur table: 2339
epoch: 1000
next table: 1040
cur table: 1040
epoch: 1000
next table: 2313
cur table: 2409
epoch: 1000
next table: 1051
cur table: 1040
epoch: 1000
next table: 2221
cur table: 2313
epoch: 1000
next table: 1043
cur table: 1051
epoch: 1000
next table: 2279
cur table: 2221
epoch: 1000
next table: 1038
cur table: 1043
epoch: 1000
next table: 2362
cur table: 2279
epoch: 1000
next table: 1043
cur table: 1038
epoch: 1000
next table: 2296
cur table: 2362
epoch: 1000
next table: 1038
cur table: 1043
epoch: 1000
next table: 2301
cur table: 2296
epoch: 1000
next table: 1043
cur table: 1038
epoch: 1000
next table: 2259
cur table: 2301
epoch: 1000
next table: 1043
cur table: 1043
epoch: 1000
next table: 2314
cur table: 2259
epoch: 1000
next table: 1045
cur table: 1043
epoch: 1000
next table: 2355
cur table: 2314
epoch: 1000
next table: 1039
cur table: 1045
epoch: 1000
next table: 2302
cur table: 2355
epoch: 1000
next table: 1039
cur table: 1039
epoch: 1000
next table: 2342
cur table: 2302
epoch: 1000
next table: 1035
cur table: 1039
epoch: 1000
next table: 2373
cur table: 2342
epoch: 1000
next table: 1037
cur table: 1035
epoch: 1000
next table: 2357
cur table: 2373
epoch: 1000
next table: 1035
cur table: 1037
epoch: 1000
next table: 2323
cur table: 2357
epoch: 1000
next table: 1037
cur table: 1035
epoch: 1000
next table: 2321
cur table: 2323
epoch: 1000
next table: 1037
cur table: 1037
epoch: 1000
next table: 2387
cur table: 2321
epoch: 1000
next table: 1038
cur table: 1037
epoch: 1000
next table: 2368
cur table: 2387
epoch: 1000
next table: 1038
cur table: 1038
epoch: 1000
next table: 2421
cur table: 2368
epoch: 1000
next table: 1040
cur table: 1038
epoch: 1000
next table: 2258
cur table: 2421
epoch: 1000
next table: 1037
cur table: 1040
epoch: 1000
next table: 2324
cur table: 2258
epoch: 1000
next table: 2289
cur table: 2324
epoch: 1000
next table: 1041
cur table: 1037
epoch: 1000
next table: 2337
cur table: 2289
epoch: 1000
next table: 1037
cur table: 1041
epoch: 1000
next table: 2329
cur table: 2337
epoch: 1000
next table: 1035
cur table: 1037
epoch: 1000
next table: 2340
cur table: 2329
epoch: 1000
next table: 1035
cur table: 1035
epoch: 1000
next table: 1762
cur table: 2340
epoch: 1000
next table: 1118
cur table: 1035
epoch: 1000
next table: 2308
cur table: 1762
epoch: 1000
next table: 1042
cur table: 1118
epoch: 1000
next table: 2307
cur table: 2308
epoch: 1000
next table: 1045
cur table: 1042
epoch: 1000
next table: 2321
cur table: 2307
epoch: 1000
next table: 1039
cur table: 1045
epoch: 1000
next table: 2344
cur table: 2321
epoch: 1000
next table: 1036
cur table: 1039
epoch: 1000
next table: 2319
cur table: 2344
epoch: 1000
next table: 1036
cur table: 1036
epoch: 1000
next table: 2387
cur table: 2319
epoch: 1000
next table: 1034
cur table: 1036
epoch: 1000
next table: 2313
cur table: 2387
epoch: 1000
next table: 1035
cur table: 1034
epoch: 1000
next table: 2350
cur table: 2313
epoch: 1000
next table: 1037
cur table: 1035
epoch: 1000
next table: 2361
cur table: 2350
epoch: 1000
next table: 1034
cur table: 1037
epoch: 1000
next table: 2350
cur table: 2361
epoch: 1000
next table: 1036
cur table: 1034
epoch: 1000
next table: 2375
cur table: 2350
epoch: 1000
next table: 1038
cur table: 1036
epoch: 1000
next table: 2271
cur table: 2375
epoch: 1000
next table: 1038
cur table: 1038
epoch: 1000
next table: 2303
cur table: 2271
epoch: 1000
next table: 1038
cur table: 1038
epoch: 1000
next table: 2378
cur table: 2303
epoch: 1000
next table: 1038
cur table: 1038
epoch: 1000
next table: 2341
cur table: 2378
epoch: 1000
next table: 1038
cur table: 1038
epoch: 1000
next table: 2323
cur table: 2341
epoch: 1000
next table: 1038
cur table: 1038
epoch: 1000
next table: 2306
cur table: 2323
epoch: 1000
next table: 1036
cur table: 1038
epoch: 1000
next table: 2378
cur table: 2306
epoch: 1000
next table: 1034
cur table: 1036
epoch: 1000
next table: 2327
cur table: 2378
epoch: 1000
next table: 1040
cur table: 1034
epoch: 1000
next table: 2201
cur table: 2327
epoch: 1000
next table: 1046
cur table: 1040
epoch: 1000
next table: 2295
cur table: 2201
epoch: 1000
next table: 1039
cur table: 1046
epoch: 1000
next table: 2257
cur table: 2295
epoch: 1000
next table: 1044
cur table: 1039
epoch: 1000
next table: 2247
cur table: 2257
epoch: 1000
next table: 1049
cur table: 1044
epoch: 1000
next table: 2256
cur table: 2247
epoch: 1000
next table: 1038
cur table: 1049
epoch: 1000
next table: 2299
cur table: 2256
epoch: 1000
next table: 1041
cur table: 1038
epoch: 1000
next table: 2321
cur table: 2299
epoch: 1000
next table: 1041
cur table: 1041
epoch: 1000
next table: 2203
cur table: 2321
epoch: 1000
next table: 1041
cur table: 1041
epoch: 1000
next table: 2301
cur table: 2203
epoch: 1000
next table: 1049
cur table: 1041
epoch: 1000
next table: 2391
cur table: 2301
epoch: 1000
next table: 1040
cur table: 1049
epoch: 1000
next table: 2209
cur table: 2391
epoch: 1000
next table: 1047
cur table: 1040
epoch: 1000
next table: 2207
cur table: 2209
epoch: 1000
next table: 1043
cur table: 1047
epoch: 1000
next table: 2344
cur table: 2207
epoch: 1000
next table: 1038
cur table: 1043
epoch: 1000
next table: 2347
cur table: 2344
epoch: 1000
next table: 1047
cur table: 1038
epoch: 1000
next table: 2268
cur table: 2347
epoch: 1000
next table: 1040
cur table: 1047
epoch: 1000
next table: 2266
cur table: 2268
epoch: 1000
next table: 1036
cur table: 1040
epoch: 1000
next table: 2372
cur table: 2266
epoch: 1000
next table: 1043
cur table: 1036
epoch: 1000
next table: 2288
cur table: 2372
epoch: 1000
next table: 1036
cur table: 1043
epoch: 1000
next table: 2377
cur table: 2288
epoch: 1000
next table: 1040
cur table: 1036
epoch: 1000
next table: 2342
cur table: 2377
epoch: 1000
next table: 1036
cur table: 1040
epoch: 1000
next table: 2353
cur table: 2342
epoch: 1000
next table: 1036
cur table: 1036
epoch: 1000
next table: 2334
cur table: 2353
epoch: 1000
next table: 1039
cur table: 1036
epoch: 1000
next table: 2357
cur table: 2334
epoch: 1000
next table: 1035
cur table: 1039
epoch: 1000
next table: 2348
cur table: 2357
epoch: 1000
next table: 1037
cur table: 1035
epoch: 1000
next table: 2356
cur table: 2348
epoch: 1000
next table: 1037
cur table: 1037
epoch: 1000
next table: 2367
cur table: 2356
epoch: 1000
next table: 1039
cur table: 1037
epoch: 1000
next table: 2323
cur table: 2367
epoch: 1000
next table: 1039
cur table: 1039
epoch: 1000
next table: 2359
cur table: 2323
epoch: 1000
next table: 1038
cur table: 1039
epoch: 1000
next table: 2375
cur table: 2359
epoch: 1000
next table: 1038
cur table: 1038
epoch: 1000
next table: 2343
cur table: 2375
epoch: 1000
next table: 1036
cur table: 1038
epoch: 1000
next table: 2337
cur table: 2343
epoch: 1000
next table: 1043
cur table: 1036
epoch: 1000
next table: 2313
cur table: 2337
epoch: 1000
next table: 1048
cur table: 1043
epoch: 1000
next table: 2270
cur table: 2313
epoch: 1000
next table: 1044
cur table: 1048
epoch: 1000
next table: 2293
cur table: 2270
epoch: 1000
next table: 1040
cur table: 1044
epoch: 1000
next table: 2321
cur table: 2293
epoch: 1000
next table: 1041
cur table: 1040
epoch: 1000
next table: 2346
cur table: 2321
epoch: 1000
next table: 1038
cur table: 1041
epoch: 1000
next table: 2378
cur table: 2346
epoch: 1000
next table: 1039
cur table: 1038
epoch: 1000
next table: 2353
cur table: 2378
epoch: 1000
next table: 1035
cur table: 1039
epoch: 1000
next table: 2393
cur table: 2353
epoch: 1000
next table: 1034
cur table: 1035
epoch: 1000
next table: 2293
cur table: 2393
epoch: 1000
next table: 1038
cur table: 1034
epoch: 1000
next table: 2337
cur table: 2293
epoch: 1000
next table: 1038
cur table: 1038
epoch: 1000
next table: 2372
cur table: 2337
epoch: 1000
next table: 1036
cur table: 1038
epoch: 1000
next table: 2337
cur table: 2372
epoch: 1000
next table: 1036
cur table: 1036
epoch: 1000
next table: 2343
cur table: 2337
epoch: 1000
next table: 1034
cur table: 1036
epoch: 1000
next table: 2308
cur table: 2343
epoch: 1000
next table: 1034
cur table: 1034
epoch: 1000
next table: 2353
cur table: 2308
epoch: 1000
next table: 1035
cur table: 1034
epoch: 1000
next table: 2367
cur table: 2353
epoch: 1000
next table: 1036
cur table: 1035
epoch: 1000
next table: 2382
cur table: 2367
epoch: 1000
next table: 1040
cur table: 1036
epoch: 1000
next table: 2332
cur table: 2382
epoch: 1000
next table: 1037
cur table: 1040
epoch: 1000
next table: 2390
cur table: 2332
epoch: 1000
next table: 1039
cur table: 1037
epoch: 1000
next table: 2326
cur table: 2390
epoch: 1000
next table: 1037
cur table: 1039
epoch: 1000
next table: 2302
cur table: 2326
epoch: 1000
next table: 1038
cur table: 1037
epoch: 1000
next table: 2376
cur table: 2302
epoch: 1000
next table: 1043
cur table: 1038
epoch: 1000
next table: 2345
cur table: 2376
epoch: 1000
next table: 1038
cur table: 1043
epoch: 1000
next table: 2265
cur table: 2345
epoch: 1000
next table: 1037
cur table: 1038
epoch: 1000
next table: 2379
cur table: 2265
epoch: 1000
next table: 1037
cur table: 1037
epoch: 1000
next table: 2355
cur table: 2379
epoch: 1000
next table: 1035
cur table: 1037
epoch: 1000
next table: 2382
cur table: 2355
epoch: 1000
next table: 1037
cur table: 1035
epoch: 1000
next table: 2343
cur table: 2382
Heartbeat CPU 0 instructions: 20000000 cycles: 6529845 heartbeat IPC: 3.06289 cumulative IPC: 3.06286 (Simulation time: 0 hr 11 min 6 sec) 
epoch: 1000
next table: 1036
cur table: 1037
epoch: 1000
next table: 2326
cur table: 2343
epoch: 1000
next table: 1034
cur table: 1036
epoch: 1000
next table: 2353
cur table: 2326
epoch: 1000
next table: 1037
cur table: 1034
epoch: 1000
next table: 2378
cur table: 2353
epoch: 1000
next table: 1036
cur table: 1037
epoch: 1000
next table: 2362
cur table: 2378
epoch: 1000
next table: 1034
cur table: 1036
epoch: 1000
next table: 2346
cur table: 2362
epoch: 1000
next table: 1037
cur table: 1034
epoch: 1000
next table: 2331
cur table: 2346
epoch: 1000
next table: 1037
cur table: 1037
epoch: 1000
next table: 2353
cur table: 2331
epoch: 1000
next table: 1041
cur table: 1037
epoch: 1000
next table: 2372
cur table: 2353
epoch: 1000
next table: 1041
cur table: 1041
epoch: 1000
next table: 2329
cur table: 2372
epoch: 1000
next table: 1037
cur table: 1041
epoch: 1000
next table: 2299
cur table: 2329
epoch: 1000
next table: 1041
cur table: 1037
epoch: 1000
next table: 2324
cur table: 2299
epoch: 1000
next table: 1034
cur table: 1041
epoch: 1000
next table: 2326
cur table: 2324
epoch: 1000
next table: 1035
cur table: 1034
epoch: 1000
next table: 2387
cur table: 2326
epoch: 1000
next table: 1038
cur table: 1035
epoch: 1000
next table: 2263
cur table: 2387
epoch: 1000
next table: 1051
cur table: 1038
epoch: 1000
next table: 2288
cur table: 2263
epoch: 1000
next table: 1036
cur table: 1051
epoch: 1000
next table: 2380
cur table: 2288
epoch: 1000
next table: 1036
cur table: 1036
epoch: 1000
next table: 2376
cur table: 2380
epoch: 1000
next table: 1040
cur table: 1036
epoch: 1000
next table: 2326
cur table: 2376
epoch: 1000
next table: 1038
cur table: 1040
epoch: 1000
next table: 2286
cur table: 2326
epoch: 1000
next table: 1039
cur table: 1038
epoch: 1000
next table: 2363
cur table: 2286
epoch: 1000
next table: 1036
cur table: 1039
epoch: 1000
next table: 2363
cur table: 2363
epoch: 1000
next table: 1043
cur table: 1036
epoch: 1000
next table: 2366
cur table: 2363
epoch: 1000
next table: 1038
cur table: 1043
epoch: 1000
next table: 2346
cur table: 2366
epoch: 1000
next table: 1038
cur table: 1038
epoch: 1000
next table: 2324
cur table: 2346
epoch: 1000
next table: 1041
cur table: 1038
epoch: 1000
next table: 2352
cur table: 2324
epoch: 1000
next table: 1037
cur table: 1041
epoch: 1000
next table: 2381
cur table: 2352
epoch: 1000
next table: 1035
cur table: 1037
epoch: 1000
next table: 2361
cur table: 2381
epoch: 1000
next table: 1038
cur table: 1035
epoch: 1000
next table: 2383
cur table: 2361
epoch: 1000
next table: 1038
cur table: 1038
epoch: 1000
next table: 2275
cur table: 2383
epoch: 1000
next table: 1037
cur table: 1038
epoch: 1000
next table: 2354
cur table: 2275
epoch: 1000
next table: 1037
cur table: 1037
epoch: 1000
next table: 2390
cur table: 2354
epoch: 1000
next table: 1037
cur table: 1037
epoch: 1000
next table: 2341
cur table: 2390
epoch: 1000
next table: 1037
cur table: 1037
epoch: 1000
next table: 2365
cur table: 2341
epoch: 1000
next table: 1033
cur table: 1037
epoch: 1000
next table: 2327
cur table: 2365
epoch: 1000
next table: 1036
cur table: 1033
epoch: 1000
next table: 2373
cur table: 2327
epoch: 1000
next table: 1037
cur table: 1036
epoch: 1000
next table: 2337
cur table: 2373
epoch: 1000
next table: 1035
cur table: 1037
epoch: 1000
next table: 2333
cur table: 2337
epoch: 1000
next table: 1038
cur table: 1035
epoch: 1000
next table: 2349
cur table: 2333
epoch: 1000
next table: 1040
cur table: 1038
epoch: 1000
next table: 2380
cur table: 2349
epoch: 1000
next table: 1036
cur table: 1040
epoch: 1000
next table: 2342
cur table: 2380
epoch: 1000
next table: 1038
cur table: 1036
epoch: 1000
next table: 2360
cur table: 2342
epoch: 1000
next table: 1037
cur table: 1038
epoch: 1000
next table: 2358
cur table: 2360
epoch: 1000
next table: 1037
cur table: 1037
epoch: 1000
next table: 2308
cur table: 2358
epoch: 1000
next table: 1037
cur table: 1037
epoch: 1000
next table: 2363
cur table: 2308
epoch: 1000
next table: 1039
cur table: 1037
epoch: 1000
next table: 2366
cur table: 2363
epoch: 1000
next table: 1037
cur table: 1039
epoch: 1000
next table: 2384
cur table: 2366
epoch: 1000
next table: 1036
cur table: 1037
epoch: 1000
next table: 2345
cur table: 2384
epoch: 1000
next table: 1035
cur table: 1036
epoch: 1000
next table: 2323
cur table: 2345
epoch: 1000
next table: 1039
cur table: 1035
epoch: 1000
next table: 2355
cur table: 2323
epoch: 1000
next table: 1041
cur table: 1039
epoch: 1000
next table: 2385
cur table: 2355
epoch: 1000
next table: 1037
cur table: 1041
epoch: 1000
next table: 2326
cur table: 2385
epoch: 1000
next table: 1036
cur table: 1037
epoch: 1000
next table: 2403
cur table: 2326
epoch: 1000
next table: 1038
cur table: 1036
epoch: 1000
next table: 2300
cur table: 2403
epoch: 1000
next table: 1035
cur table: 1038
epoch: 1000
next table: 2372
cur table: 2300
epoch: 1000
next table: 1036
cur table: 1035
epoch: 1000
next table: 2338
cur table: 2372
epoch: 1000
next table: 1036
cur table: 1036
epoch: 1000
next table: 2331
cur table: 2338
epoch: 1000
next table: 1039
cur table: 1036
epoch: 1000
next table: 2355
cur table: 2331
epoch: 1000
next table: 1039
cur table: 1039
epoch: 1000
next table: 2277
cur table: 2355
epoch: 1000
next table: 1035
cur table: 1039
epoch: 1000
next table: 2383
cur table: 2277
epoch: 1000
next table: 1037
cur table: 1035
epoch: 1000
next table: 2355
cur table: 2383
epoch: 1000
next table: 1040
cur table: 1037
epoch: 1000
next table: 2392
cur table: 2355
epoch: 1000
next table: 1037
cur table: 1040
epoch: 1000
next table: 2292
cur table: 2392
epoch: 1000
next table: 2268
cur table: 2292
epoch: 1000
next table: 1040
cur table: 1037
epoch: 1000
next table: 2366
cur table: 2268
epoch: 1000
next table: 1039
cur table: 1040
epoch: 1000
next table: 2374
cur table: 2366
epoch: 1000
next table: 1035
cur table: 1039
epoch: 1000
next table: 2385
cur table: 2374
epoch: 1000
next table: 1040
cur table: 1035
epoch: 1000
next table: 2263
cur table: 2385
epoch: 1000
next table: 1042
cur table: 1040
epoch: 1000
next table: 2383
cur table: 2263
epoch: 1000
next table: 1037
cur table: 1042
epoch: 1000
next table: 2354
cur table: 2383
epoch: 1000
next table: 1039
cur table: 1037
epoch: 1000
next table: 2332
cur table: 2354
epoch: 1000
next table: 1037
cur table: 1039
epoch: 1000
next table: 2342
cur table: 2332
epoch: 1000
next table: 1036
cur table: 1037
epoch: 1000
next table: 2314
cur table: 2342
epoch: 1000
next table: 1035
cur table: 1036
epoch: 1000
next table: 2398
cur table: 2314
epoch: 1000
next table: 1035
cur table: 1035
epoch: 1000
next table: 2366
cur table: 2398
epoch: 1000
next table: 1036
cur table: 1035
epoch: 1000
next table: 2366
cur table: 2366
epoch: 1000
next table: 1041
cur table: 1036
epoch: 1000
next table: 2357
cur table: 2366
epoch: 1000
next table: 1039
cur table: 1041
epoch: 1000
next table: 2283
cur table: 2357
epoch: 1000
next table: 1036
cur table: 1039
epoch: 1000
next table: 2377
cur table: 2283
epoch: 1000
next table: 1038
cur table: 1036
epoch: 1000
next table: 2332
cur table: 2377
epoch: 1000
next table: 1038
cur table: 1038
epoch: 1000
next table: 2329
cur table: 2332
epoch: 1000
next table: 1037
cur table: 1038
epoch: 1000
next table: 2367
cur table: 2329
epoch: 1000
next table: 1038
cur table: 1037
epoch: 1000
next table: 2287
cur table: 2367
epoch: 1000
next table: 1060
cur table: 1038
epoch: 1000
next table: 2348
cur table: 2287
epoch: 1000
next table: 1041
cur table: 1060
epoch: 1000
next table: 2394
cur table: 2348
epoch: 1000
next table: 1036
cur table: 1041
epoch: 1000
next table: 2292
cur table: 2394
epoch: 1000
next table: 1034
cur table: 1036
epoch: 1000
next table: 2325
cur table: 2292
epoch: 1000
next table: 1038
cur table: 1034
epoch: 1000
next table: 2385
cur table: 2325
epoch: 1000
next table: 1034
cur table: 1038
epoch: 1000
next table: 2328
cur table: 2385
epoch: 1000
next table: 1035
cur table: 1034
epoch: 1000
next table: 2385
cur table: 2328
epoch: 1000
next table: 1038
cur table: 1035
epoch: 1000
next table: 2272
cur table: 2385
epoch: 1000
next table: 1040
cur table: 1038
epoch: 1000
next table: 2368
cur table: 2272
epoch: 1000
next table: 1040
cur table: 1040
epoch: 1000
next table: 2341
cur table: 2368
epoch: 1000
next table: 1038
cur table: 1040
epoch: 1000
next table: 2329
cur table: 2341
epoch: 1000
next table: 1041
cur table: 1038
epoch: 1000
next table: 2317
cur table: 2329
epoch: 1000
next table: 1042
cur table: 1041
epoch: 1000
next table: 2315
cur table: 2317
epoch: 1000
next table: 1047
cur table: 1042
epoch: 1000
next table: 2237
cur table: 2315
epoch: 1000
next table: 1039
cur table: 1047
epoch: 1000
next table: 2279
cur table: 2237
epoch: 1000
next table: 1064
cur table: 1039
epoch: 1000
next table: 2296
cur table: 2279
epoch: 1000
next table: 1052
cur table: 1064
epoch: 1000
next table: 2314
cur table: 2296
epoch: 1000
next table: 1047
cur table: 1052
epoch: 1000
next table: 2248
cur table: 2314
epoch: 1000
next table: 1047
cur table: 1047
epoch: 1000
next table: 2323
cur table: 2248
epoch: 1000
next table: 1042
cur table: 1047
epoch: 1000
next table: 2335
cur table: 2323
epoch: 1000
next table: 1045
cur table: 1042
epoch: 1000
next table: 2281
cur table: 2335
epoch: 1000
next table: 1041
cur table: 1045
epoch: 1000
next table: 2238
cur table: 2281
epoch: 1000
next table: 1040
cur table: 1041
epoch: 1000
next table: 2322
cur table: 2238
epoch: 1000
next table: 1036
cur table: 1040
epoch: 1000
next table: 2346
cur table: 2322
epoch: 1000
next table: 1039
cur table: 1036
epoch: 1000
next table: 2278
cur table: 2346
epoch: 1000
next table: 1041
cur table: 1039
epoch: 1000
next table: 2338
cur table: 2278
epoch: 1000
next table: 1074
cur table: 1041
epoch: 1000
next table: 2326
cur table: 2338
epoch: 1000
next table: 1051
cur table: 1074
epoch: 1000
next table: 2247
cur table: 2326
epoch: 1000
next table: 1038
cur table: 1051
epoch: 1000
next table: 2324
cur table: 2247
epoch: 1000
next table: 1040
cur table: 1038
epoch: 1000
next table: 2301
cur table: 2324
epoch: 1000
next table: 1048
cur table: 1040
epoch: 1000
next table: 2292
cur table: 2301
epoch: 1000
next table: 1053
cur table: 1048
epoch: 1000
next table: 2279
cur table: 2292
epoch: 1000
next table: 1035
cur table: 1053
epoch: 1000
next table: 2293
cur table: 2279
epoch: 1000
next table: 1043
cur table: 1035
epoch: 1000
next table: 2310
cur table: 2293
epoch: 1000
next table: 1061
cur table: 1043
epoch: 1000
next table: 2340
cur table: 2310
epoch: 1000
next table: 1056
cur table: 1061
epoch: 1000
next table: 2277
cur table: 2340
epoch: 1000
next table: 1038
cur table: 1056
epoch: 1000
next table: 2284
cur table: 2277
epoch: 1000
next table: 1048
cur table: 1038
epoch: 1000
next table: 2288
cur table: 2284
epoch: 1000
next table: 1056
cur table: 1048
epoch: 1000
next table: 2325
cur table: 2288
epoch: 1000
next table: 1037
cur table: 1056
epoch: 1000
next table: 2222
cur table: 2325
epoch: 1000
next table: 1049
cur table: 1037
epoch: 1000
next table: 2307
cur table: 2222
epoch: 1000
next table: 1046
cur table: 1049
epoch: 1000
next table: 2288
cur table: 2307
epoch: 1000
next table: 1047
cur table: 1046
epoch: 1000
next table: 2331
cur table: 2288
epoch: 1000
next table: 1037
cur table: 1047
epoch: 1000
next table: 2334
cur table: 2331
epoch: 1000
next table: 1045
cur table: 1037
epoch: 1000
next table: 2322
cur table: 2334
epoch: 1000
next table: 1069
cur table: 1045
epoch: 1000
next table: 2357
cur table: 2322
epoch: 1000
next table: 1050
cur table: 1069
epoch: 1000
next table: 2280
cur table: 2357
epoch: 1000
next table: 1040
cur table: 1050
epoch: 1000
next table: 2304
cur table: 2280
epoch: 1000
next table: 1059
cur table: 1040
epoch: 1000
next table: 2272
cur table: 2304
epoch: 1000
next table: 1043
cur table: 1059
epoch: 1000
next table: 2243
cur table: 2272
epoch: 1000
next table: 1041
cur table: 1043
epoch: 1000
next table: 2279
cur table: 2243
epoch: 1000
next table: 1042
cur table: 1041
epoch: 1000
next table: 2264
cur table: 2279
epoch: 1000
next table: 1042
cur table: 1042
epoch: 1000
next table: 2243
cur table: 2264
epoch: 1000
next table: 1038
cur table: 1042
epoch: 1000
next table: 2334
cur table: 2243
epoch: 1000
next table: 1044
cur table: 1038
epoch: 1000
next table: 2263
cur table: 2334
epoch: 1000
next table: 1048
cur table: 1044
epoch: 1000
next table: 2247
cur table: 2263
epoch: 1000
next table: 1049
cur table: 1048
epoch: 1000
next table: 2269
cur table: 2247
epoch: 1000
next table: 1038
cur table: 1049
epoch: 1000
next table: 2264
cur table: 2269
epoch: 1000
next table: 1049
cur table: 1038
epoch: 1000
next table: 2351
cur table: 2264
epoch: 1000
next table: 1047
cur table: 1049
epoch: 1000
next table: 2235
cur table: 2351
epoch: 1000
next table: 1040
cur table: 1047
epoch: 1000
next table: 2317
cur table: 2235
epoch: 1000
next table: 1050
cur table: 1040
epoch: 1000
next table: 2183
cur table: 2317
epoch: 1000
next table: 1044
cur table: 1050
epoch: 1000
next table: 2314
cur table: 2183
epoch: 1000
next table: 1036
cur table: 1044
epoch: 1000
next table: 2341
cur table: 2314
epoch: 1000
next table: 1045
cur table: 1036
epoch: 1000
next table: 2296
cur table: 2341
epoch: 1000
next table: 1061
cur table: 1045
epoch: 1000
next table: 2307
cur table: 2296
epoch: 1000
next table: 1042
cur table: 1061
epoch: 1000
next table: 2248
cur table: 2307
epoch: 1000
next table: 1041
cur table: 1042
epoch: 1000
next table: 2350
cur table: 2248
epoch: 1000
next table: 1041
cur table: 1041
epoch: 1000
next table: 2336
cur table: 2350
epoch: 1000
next table: 1037
cur table: 1041
epoch: 1000
next table: 2350
cur table: 2336
epoch: 1000
next table: 1043
cur table: 1037
epoch: 1000
next table: 2217
cur table: 2350
epoch: 1000
next table: 1035
cur table: 1043
epoch: 1000
next table: 2353
cur table: 2217
epoch: 1000
next table: 1039
cur table: 1035
epoch: 1000
next table: 2370
cur table: 2353
epoch: 1000
next table: 1039
cur table: 1039
epoch: 1000
next table: 2282
cur table: 2370
epoch: 1000
next table: 1038
cur table: 1039
epoch: 1000
next table: 2274
cur table: 2282
epoch: 1000
next table: 1040
cur table: 1038
epoch: 1000
next table: 2304
cur table: 2274
epoch: 1000
next table: 1037
cur table: 1040
epoch: 1000
next table: 2317
cur table: 2304
epoch: 1000
next table: 1044
cur table: 1037
epoch: 1000
next table: 2327
cur table: 2317
epoch: 1000
next table: 1067
cur table: 1044
epoch: 1000
next table: 2301
cur table: 2327
epoch: 1000
next table: 1038
cur table: 1067
epoch: 1000
next table: 2307
cur table: 2301
epoch: 1000
next table: 1039
cur table: 1038
epoch: 1000
next table: 2339
cur table: 2307
epoch: 1000
next table: 1041
cur table: 1039
epoch: 1000
next table: 2246
cur table: 2339
epoch: 1000
next table: 1040
cur table: 1041
epoch: 1000
next table: 2295
cur table: 2246
epoch: 1000
next table: 1040
cur table: 1040
epoch: 1000
next table: 2336
cur table: 2295
epoch: 1000
next table: 1040
cur table: 1040
epoch: 1000
next table: 2389
cur table: 2336
epoch: 1000
next table: 1044
cur table: 1040
epoch: 1000
next table: 2247
cur table: 2389
epoch: 1000
next table: 1040
cur table: 1044
epoch: 1000
next table: 2353
cur table: 2247
epoch: 1000
next table: 1038
cur table: 1040
epoch: 1000
next table: 2346
cur table: 2353
epoch: 1000
next table: 1037
cur table: 1038
epoch: 1000
next table: 2323
cur table: 2346
epoch: 1000
next table: 1041
cur table: 1037
epoch: 1000
next table: 2253
cur table: 2323
epoch: 1000
next table: 1046
cur table: 1041
epoch: 1000
next table: 2265
cur table: 2253
epoch: 1000
next table: 1041
cur table: 1046
epoch: 1000
next table: 2322
cur table: 2265
epoch: 1000
next table: 1047
cur table: 1041
epoch: 1000
next table: 2323
cur table: 2322
epoch: 1000
next table: 1044
cur table: 1047
epoch: 1000
next table: 2261
cur table: 2323
epoch: 1000
next table: 1041
cur table: 1044
epoch: 1000
next table: 2286
cur table: 2261
epoch: 1000
next table: 1078
cur table: 1041
epoch: 1000
next table: 2309
cur table: 2286
epoch: 1000
next table: 1042
cur table: 1078
epoch: 1000
next table: 2196
cur table: 2309
epoch: 1000
next table: 1040
cur table: 1042
epoch: 1000
next table: 2293
cur table: 2196
epoch: 1000
next table: 1042
cur table: 1040
epoch: 1000
next table: 2313
cur table: 2293
epoch: 1000
next table: 1042
cur table: 1042
epoch: 1000
next table: 2295
cur table: 2313
epoch: 1000
next table: 1047
cur table: 1042
epoch: 1000
next table: 2278
cur table: 2295
epoch: 1000
next table: 1060
cur table: 1047
epoch: 1000
next table: 2368
cur table: 2278
Heartbeat CPU 0 instructions: 30000000 cycles: 9793582 heartbeat IPC: 3.06397 cumulative IPC: 3.06323 (Simulation time: 0 hr 16 min 23 sec) 
epoch: 1000
next table: 1079
cur table: 1060
epoch: 1000
next table: 2297
cur table: 2368
epoch: 1000
next table: 1056
cur table: 1079
epoch: 1000
next table: 2324
cur table: 2297
epoch: 1000
next table: 1037
cur table: 1056
epoch: 1000
next table: 2390
cur table: 2324
epoch: 1000
next table: 1049
cur table: 1037
epoch: 1000
next table: 2361
cur table: 2390
epoch: 1000
next table: 1038
cur table: 1049
epoch: 1000
next table: 2311
cur table: 2361
epoch: 1000
next table: 1076
cur table: 1038
epoch: 1000
next table: 2156
cur table: 2311
epoch: 1000
next table: 1039
cur table: 1076
epoch: 1000
next table: 2334
cur table: 2156
epoch: 1000
next table: 1037
cur table: 1039
epoch: 1000
next table: 2325
cur table: 2334
epoch: 1000
next table: 1058
cur table: 1037
epoch: 1000
next table: 2294
cur table: 2325
epoch: 1000
next table: 1062
cur table: 1058
epoch: 1000
next table: 2281
cur table: 2294
epoch: 1000
next table: 1037
cur table: 1062
epoch: 1000
next table: 2377
cur table: 2281
epoch: 1000
next table: 1035
cur table: 1037
epoch: 1000
next table: 2321
cur table: 2377
epoch: 1000
next table: 1061
cur table: 1035
epoch: 1000
next table: 2284
cur table: 2321
epoch: 1000
next table: 1057
cur table: 1061
epoch: 1000
next table: 2355
cur table: 2284
epoch: 1000
next table: 1049
cur table: 1057
epoch: 1000
next table: 2323
cur table: 2355
epoch: 1000
next table: 1038
cur table: 1049
epoch: 1000
next table: 2324
cur table: 2323
epoch: 1000
next table: 1039
cur table: 1038
epoch: 1000
next table: 2315
cur table: 2324
epoch: 1000
next table: 1041
cur table: 1039
epoch: 1000
next table: 2380
cur table: 2315
epoch: 1000
next table: 1042
cur table: 1041
epoch: 1000
next table: 2299
cur table: 2380
epoch: 1000
next table: 1036
cur table: 1042
epoch: 1000
next table: 2295
cur table: 2299
epoch: 1000
next table: 1045
cur table: 1036
epoch: 1000
next table: 2247
cur table: 2295
epoch: 1000
next table: 1051
cur table: 1045
epoch: 1000
next table: 2311
cur table: 2247
epoch: 1000
next table: 1045
cur table: 1051
epoch: 1000
next table: 2316
cur table: 2311
epoch: 1000
next table: 1040
cur table: 1045
epoch: 1000
next table: 2377
cur table: 2316
epoch: 1000
next table: 1046
cur table: 1040
epoch: 1000
next table: 2223
cur table: 2377
epoch: 1000
next table: 2370
cur table: 2223
epoch: 1000
next table: 1044
cur table: 1046
epoch: 1000
next table: 2240
cur table: 2370
epoch: 1000
next table: 1044
cur table: 1044
epoch: 1000
next table: 2322
cur table: 2240
epoch: 1000
next table: 1043
cur table: 1044
epoch: 1000
next table: 2383
cur table: 2322
epoch: 1000
next table: 1037
cur table: 1043
epoch: 1000
next table: 2326
cur table: 2383
epoch: 1000
next table: 1040
cur table: 1037
epoch: 1000
next table: 2385
cur table: 2326
epoch: 1000
next table: 1035
cur table: 1040
epoch: 1000
next table: 2318
cur table: 2385
epoch: 1000
next table: 1041
cur table: 1035
epoch: 1000
next table: 2341
cur table: 2318
epoch: 1000
next table: 1033
cur table: 1041
epoch: 1000
next table: 2288
cur table: 2341
epoch: 1000
next table: 1095
cur table: 1033
epoch: 1000
next table: 1536
cur table: 2288
epoch: 1000
next table: 1187
cur table: 1095
epoch: 1000
next table: 2345
cur table: 1536
epoch: 1000
next table: 1046
cur table: 1187
epoch: 1000
next table: 2365
cur table: 2345
epoch: 1000
next table: 1043
cur table: 1046
epoch: 1000
next table: 2338
cur table: 2365
epoch: 1000
next table: 1036
cur table: 1043
epoch: 1000
next table: 2288
cur table: 2338
epoch: 1000
next table: 1042
cur table: 1036
epoch: 1000
next table: 2303
cur table: 2288
epoch: 1000
next table: 1040
cur table: 1042
epoch: 1000
next table: 2377
cur table: 2303
epoch: 1000
next table: 1062
cur table: 1040
epoch: 1000
next table: 2340
cur table: 2377
epoch: 1000
next table: 1045
cur table: 1062
epoch: 1000
next table: 2323
cur table: 2340
epoch: 1000
next table: 1041
cur table: 1045
epoch: 1000
next table: 2303
cur table: 2323
epoch: 1000
next table: 1038
cur table: 1041
epoch: 1000
next table: 2298
cur table: 2303
epoch: 1000
next table: 1039
cur table: 1038
epoch: 1000
next table: 2218
cur table: 2298
epoch: 1000
next table: 1045
cur table: 1039
epoch: 1000
next table: 2307
cur table: 2218
epoch: 1000
next table: 1038
cur table: 1045
epoch: 1000
next table: 2330
cur table: 2307
epoch: 1000
next table: 1036
cur table: 1038
epoch: 1000
next table: 2289
cur table: 2330
epoch: 1000
next table: 1047
cur table: 1036
epoch: 1000
next table: 2204
cur table: 2289
epoch: 1000
next table: 1066
cur table: 1047
epoch: 1000
next table: 2304
cur table: 2204
epoch: 1000
next table: 1040
cur table: 1066
epoch: 1000
next table: 2245
cur table: 2304
epoch: 1000
next table: 1049
cur table: 1040
epoch: 1000
next table: 2284
cur table: 2245
epoch: 1000
next table: 1058
cur table: 1049
epoch: 1000
next table: 2260
cur table: 2284
epoch: 1000
next table: 1037
cur table: 1058
epoch: 1000
next table: 2325
cur table: 2260
epoch: 1000
next table: 1035
cur table: 1037
epoch: 1000
next table: 2373
cur table: 2325
epoch: 1000
next table: 1036
cur table: 1035
epoch: 1000
next table: 2316
cur table: 2373
epoch: 1000
next table: 1037
cur table: 1036
epoch: 1000
next table: 2361
cur table: 2316
epoch: 1000
next table: 1034
cur table: 1037
epoch: 1000
next table: 2319
cur table: 2361
epoch: 1000
next table: 1044
cur table: 1034
epoch: 1000
next table: 2372
cur table: 2319
epoch: 1000
next table: 1035
cur table: 1044
epoch: 1000
next table: 2354
cur table: 2372
epoch: 1000
next table: 1034
cur table: 1035
epoch: 1000
next table: 2340
cur table: 2354
epoch: 1000
next table: 1036
cur table: 1034
epoch: 1000
next table: 2315
cur table: 2340
epoch: 1000
next table: 1036
cur table: 1036
epoch: 1000
next table: 2315
cur table: 2315
epoch: 1000
next table: 1039
cur table: 1036
epoch: 1000
next table: 2254
cur table: 2315
epoch: 1000
next table: 1051
cur table: 1039
epoch: 1000
next table: 2274
cur table: 2254
epoch: 1000
next table: 1052
cur table: 1051
epoch: 1000
next table: 2328
cur table: 2274
epoch: 1000
next table: 1041
cur table: 1052
epoch: 1000
next table: 2311
cur table: 2328
epoch: 1000
next table: 1041
cur table: 1041
epoch: 1000
next table: 2264
cur table: 2311
epoch: 1000
next table: 1040
cur table: 1041
epoch: 1000
next table: 2310
cur table: 2264
epoch: 1000
next table: 1046
cur table: 1040
epoch: 1000
next table: 2301
cur table: 2310
epoch: 1000
next table: 1036
cur table: 1046
epoch: 1000
next table: 2337
cur table: 2301
epoch: 1000
next table: 1042
cur table: 1036
epoch: 1000
next table: 2339
cur table: 2337
epoch: 1000
next table: 1036
cur table: 1042
epoch: 1000
next table: 2365
cur table: 2339
epoch: 1000
next table: 1038
cur table: 1036
epoch: 1000
next table: 2340
cur table: 2365
epoch: 1000
next table: 1038
cur table: 1038
epoch: 1000
next table: 2268
cur table: 2340
epoch: 1000
next table: 1039
cur table: 1038
epoch: 1000
next table: 2307
cur table: 2268
epoch: 1000
next table: 1037
cur table: 1039
epoch: 1000
next table: 2356
cur table: 2307
epoch: 1000
next table: 1041
cur table: 1037
epoch: 1000
next table: 2273
cur table: 2356
epoch: 1000
next table: 1035
cur table: 1041
epoch: 1000
next table: 2212
cur table: 2273
epoch: 1000
next table: 1042
cur table: 1035
epoch: 1000
next table: 2279
cur table: 2212
epoch: 1000
next table: 1040
cur table: 1042
epoch: 1000
next table: 2272
cur table: 2279
epoch: 1000
next table: 1045
cur table: 1040
epoch: 1000
next table: 2290
cur table: 2272
epoch: 1000
next table: 1044
cur table: 1045
epoch: 1000
next table: 2275
cur table: 2290
epoch: 1000
next table: 1040
cur table: 1044
epoch: 1000
next table: 2398
cur table: 2275
epoch: 1000
next table: 1040
cur table: 1040
epoch: 1000
next table: 2337
cur table: 2398
epoch: 1000
next table: 1039
cur table: 1040
epoch: 1000
next table: 2270
cur table: 2337
epoch: 1000
next table: 1038
cur table: 1039
epoch: 1000
next table: 2275
cur table: 2270
epoch: 1000
next table: 1038
cur table: 1038
epoch: 1000
next table: 2369
cur table: 2275
epoch: 1000
next table: 1037
cur table: 1038
epoch: 1000
next table: 2295
cur table: 2369
epoch: 1000
next table: 1038
cur table: 1037
epoch: 1000
next table: 2296
cur table: 2295
epoch: 1000
next table: 1040
cur table: 1038
epoch: 1000
next table: 2333
cur table: 2296
epoch: 1000
next table: 1038
cur table: 1040
epoch: 1000
next table: 2346
cur table: 2333
epoch: 1000
next table: 1042
cur table: 1038
epoch: 1000
next table: 2296
cur table: 2346
epoch: 1000
next table: 1043
cur table: 1042
epoch: 1000
next table: 2294
cur table: 2296
epoch: 1000
next table: 1039
cur table: 1043
epoch: 1000
next table: 2247
cur table: 2294
epoch: 1000
next table: 1046
cur table: 1039
epoch: 1000
next table: 2264
cur table: 2247
epoch: 1000
next table: 1044
cur table: 1046
epoch: 1000
next table: 2291
cur table: 2264
epoch: 1000
next table: 1038
cur table: 1044
epoch: 1000
next table: 2286
cur table: 2291
epoch: 1000
next table: 1034
cur table: 1038
epoch: 1000
next table: 2356
cur table: 2286
epoch: 1000
next table: 1035
cur table: 1034
epoch: 1000
next table: 2368
cur table: 2356
epoch: 1000
next table: 1033
cur table: 1035
epoch: 1000
next table: 2356
cur table: 2368
epoch: 1000
next table: 1039
cur table: 1033
epoch: 1000
next table: 2279
cur table: 2356
epoch: 1000
next table: 1037
cur table: 1039
epoch: 1000
next table: 2351
cur table: 2279
epoch: 1000
next table: 1036
cur table: 1037
epoch: 1000
next table: 2330
cur table: 2351
epoch: 1000
next table: 1040
cur table: 1036
epoch: 1000
next table: 2373
cur table: 2330
epoch: 1000
next table: 1038
cur table: 1040
epoch: 1000
next table: 2351
cur table: 2373
epoch: 1000
next table: 1038
cur table: 1038
epoch: 1000
next table: 2322
cur table: 2351
epoch: 1000
next table: 1039
cur table: 1038
epoch: 1000
next table: 2339
cur table: 2322
epoch: 1000
next table: 1039
cur table: 1039
epoch: 1000
next table: 2384
cur table: 2339
epoch: 1000
next table: 1040
cur table: 1039
epoch: 1000
next table: 2343
cur table: 2384
epoch: 1000
next table: 1035
cur table: 1040
epoch: 1000
next table: 2363
cur table: 2343
epoch: 1000
next table: 1039
cur table: 1035
epoch: 1000
next table: 2295
cur table: 2363
epoch: 1000
next table: 1036
cur table: 1039
epoch: 1000
next table: 2337
cur table: 2295
epoch: 1000
next table: 1036
cur table: 1036
epoch: 1000
next table: 2315
cur table: 2337
epoch: 1000
next table: 1037
cur table: 1036
epoch: 1000
next table: 2390
cur table: 2315
epoch: 1000
next table: 1033
cur table: 1037
epoch: 1000
next table: 2290
cur table: 2390
epoch: 1000
next table: 1043
cur table: 1033
epoch: 1000
next table: 2250
cur table: 2290
epoch: 1000
next table: 1047
cur table: 1043
epoch: 1000
next table: 2291
cur table: 2250
epoch: 1000
next table: 1049
cur table: 1047
epoch: 1000
next table: 2325
cur table: 2291
epoch: 1000
next table: 1045
cur table: 1049
epoch: 1000
next table: 2292
cur table: 2325
epoch: 1000
next table: 1040
cur table: 1045
epoch: 1000
next table: 2342
cur table: 2292
epoch: 1000
next table: 1073
cur table: 1040
epoch: 1000
next table: 2369
cur table: 2342
epoch: 1000
next table: 1062
cur table: 1073
epoch: 1000
next table: 2337
cur table: 2369
epoch: 1000
next table: 1059
cur table: 1062
epoch: 1000
next table: 2298
cur table: 2337
epoch: 1000
next table: 1049
cur table: 1059
epoch: 1000
next table: 2271
cur table: 2298
epoch: 1000
next table: 1045
cur table: 1049
epoch: 1000
next table: 2347
cur table: 2271
epoch: 1000
next table: 1042
cur table: 1045
epoch: 1000
next table: 2287
cur table: 2347
epoch: 1000
next table: 1042
cur table: 1042
epoch: 1000
next table: 2249
cur table: 2287
epoch: 1000
next table: 1044
cur table: 1042
epoch: 1000
next table: 2318
cur table: 2249
epoch: 1000
next table: 1041
cur table: 1044
epoch: 1000
next table: 2376
cur table: 2318
epoch: 1000
next table: 1042
cur table: 1041
epoch: 1000
next table: 2306
cur table: 2376
epoch: 1000
next table: 1041
cur table: 1042
epoch: 1000
next table: 2313
cur table: 2306
epoch: 1000
next table: 1038
cur table: 1041
epoch: 1000
next table: 2352
cur table: 2313
epoch: 1000
next table: 1048
cur table: 1038
epoch: 1000
next table: 2265
cur table: 2352
epoch: 1000
next table: 1041
cur table: 1048
epoch: 1000
next table: 2307
cur table: 2265
epoch: 1000
next table: 1056
cur table: 1041
epoch: 1000
next table: 2334
cur table: 2307
epoch: 1000
next table: 1052
cur table: 1056
epoch: 1000
next table: 2245
cur table: 2334
epoch: 1000
next table: 1049
cur table: 1052
epoch: 1000
next table: 2234
cur table: 2245
epoch: 1000
next table: 1036
cur table: 1049
epoch: 1000
next table: 2349
cur table: 2234
epoch: 1000
next table: 1041
cur table: 1036
epoch: 1000
next table: 2323
cur table: 2349
epoch: 1000
next table: 1041
cur table: 1041
epoch: 1000
next table: 2334
cur table: 2323
epoch: 1000
next table: 1035
cur table: 1041
epoch: 1000
next table: 2319
cur table: 2334
epoch: 1000
next table: 1037
cur table: 1035
epoch: 1000
next table: 2385
cur table: 2319
epoch: 1000
next table: 1036
cur table: 1037
epoch: 1000
next table: 2303
cur table: 2385
epoch: 1000
next table: 1039
cur table: 1036
epoch: 1000
next table: 2351
cur table: 2303
epoch: 1000
next table: 1042
cur table: 1039
epoch: 1000
next table: 2268
cur table: 2351
epoch: 1000
next table: 1037
cur table: 1042
epoch: 1000
next table: 2354
cur table: 2268
epoch: 1000
next table: 1038
cur table: 1037
epoch: 1000
next table: 2344
cur table: 2354
epoch: 1000
next table: 1037
cur table: 1038
epoch: 1000
next table: 2386
cur table: 2344
epoch: 1000
next table: 1036
cur table: 1037
epoch: 1000
next table: 2394
cur table: 2386
epoch: 1000
next table: 1038
cur table: 1036
epoch: 1000
next table: 2251
cur table: 2394
epoch: 1000
next table: 1035
cur table: 1038
epoch: 1000
next table: 2383
cur table: 2251
epoch: 1000
next table: 1033
cur table: 1035
epoch: 1000
next table: 2358
cur table: 2383
epoch: 1000
next table: 1039
cur table: 1033
epoch: 1000
next table: 2327
cur table: 2358
epoch: 1000
next table: 1035
cur table: 1039
epoch: 1000
next table: 2363
cur table: 2327
epoch: 1000
next table: 1034
cur table: 1035
epoch: 1000
next table: 2236
cur table: 2363
epoch: 1000
next table: 1047
cur table: 1034
epoch: 1000
next table: 2317
cur table: 2236
epoch: 1000
next table: 1036
cur table: 1047
epoch: 1000
next table: 2300
cur table: 2317
epoch: 1000
next table: 1048
cur table: 1036
epoch: 1000
next table: 2369
cur table: 2300
epoch: 1000
next table: 1039
cur table: 1048
epoch: 1000
next table: 2272
cur table: 2369
epoch: 1000
next table: 1041
cur table: 1039
epoch: 1000
next table: 2354
cur table: 2272
epoch: 1000
next table: 1035
cur table: 1041
epoch: 1000
next table: 2378
cur table: 2354
epoch: 1000
next table: 1040
cur table: 1035
epoch: 1000
next table: 2305
cur table: 2378
epoch: 1000
next table: 1036
cur table: 1040
epoch: 1000
next table: 2337
cur table: 2305
epoch: 1000
next table: 1035
cur table: 1036
epoch: 1000
next table: 2348
cur table: 2337
epoch: 1000
next table: 1037
cur table: 1035
epoch: 1000
next table: 2383
cur table: 2348
epoch: 1000
next table: 1037
cur table: 1037
epoch: 1000
next table: 2355
cur table: 2383
epoch: 1000
next table: 1036
cur table: 1037
epoch: 1000
next table: 2312
cur table: 2355
epoch: 1000
next table: 1040
cur table: 1036
epoch: 1000
next table: 2317
cur table: 2312
epoch: 1000
next table: 1036
cur table: 1040
epoch: 1000
next table: 2387
cur table: 2317
epoch: 1000
next table: 1039
cur table: 1036
epoch: 1000
next table: 2370
cur table: 2387
epoch: 1000
next table: 1036
cur table: 1039
epoch: 1000
next table: 2375
cur table: 2370
epoch: 1000
next table: 1036
cur table: 1036
epoch: 1000
next table: 2363
cur table: 2375
epoch: 1000
next table: 1043
cur table: 1036
epoch: 1000
next table: 2247
cur table: 2363
epoch: 1000
next table: 1035
cur table: 1043
epoch: 1000
next table: 2343
cur table: 2247
epoch: 1000
next table: 1043
cur table: 1035
epoch: 1000
next table: 2275
cur table: 2343
epoch: 1000
next table: 1038
cur table: 1043
epoch: 1000
next table: 2339
cur table: 2275
epoch: 1000
next table: 1035
cur table: 1038
epoch: 1000
next table: 2303
cur table: 2339
epoch: 1000
next table: 1034
cur table: 1035
epoch: 1000
next table: 2328
cur table: 2303
epoch: 1000
next table: 1036
cur table: 1034
epoch: 1000
next table: 2370
cur table: 2328
epoch: 1000
next table: 1036
cur table: 1036
epoch: 1000
next table: 2392
cur table: 2370
epoch: 1000
next table: 1038
cur table: 1036
epoch: 1000
next table: 2259
cur table: 2392
epoch: 1000
next table: 1043
cur table: 1038
epoch: 1000
next table: 2337
cur table: 2259
epoch: 1000
next table: 1039
cur table: 1043
epoch: 1000
next table: 2356
cur table: 2337
Heartbeat CPU 0 instructions: 40000000 cycles: 13057550 heartbeat IPC: 3.06376 cumulative IPC: 3.06336 (Simulation time: 0 hr 21 min 57 sec) 
epoch: 1000
next table: 1034
cur table: 1039
epoch: 1000
next table: 2381
cur table: 2356
epoch: 1000
next table: 1040
cur table: 1034
epoch: 1000
next table: 2290
cur table: 2381
epoch: 1000
next table: 1036
cur table: 1040
epoch: 1000
next table: 2311
cur table: 2290
epoch: 1000
next table: 1036
cur table: 1036
epoch: 1000
next table: 2391
cur table: 2311
epoch: 1000
next table: 1040
cur table: 1036
epoch: 1000
next table: 2393
cur table: 2391
epoch: 1000
next table: 1036
cur table: 1040
epoch: 1000
next table: 2386
cur table: 2393
epoch: 1000
next table: 1035
cur table: 1036
epoch: 1000
next table: 2325
cur table: 2386
epoch: 1000
next table: 1040
cur table: 1035
epoch: 1000
next table: 2329
cur table: 2325
epoch: 1000
next table: 1037
cur table: 1040
epoch: 1000
next table: 2380
cur table: 2329
epoch: 1000
next table: 1039
cur table: 1037
epoch: 1000
next table: 2338
cur table: 2380
epoch: 1000
next table: 1039
cur table: 1039
epoch: 1000
next table: 2349
cur table: 2338
epoch: 1000
next table: 1032
cur table: 1039
epoch: 1000
next table: 2315
cur table: 2349
epoch: 1000
next table: 1037
cur table: 1032
epoch: 1000
next table: 2358
cur table: 2315
epoch: 1000
next table: 1038
cur table: 1037
epoch: 1000
next table: 2375
cur table: 2358
epoch: 1000
next table: 1038
cur table: 1038
epoch: 1000
next table: 2350
cur table: 2375
epoch: 1000
next table: 1040
cur table: 1038
epoch: 1000
next table: 2401
cur table: 2350
epoch: 1000
next table: 1034
cur table: 1040
epoch: 1000
next table: 2309
cur table: 2401
epoch: 1000
next table: 1037
cur table: 1034
epoch: 1000
next table: 2340
cur table: 2309
epoch: 1000
next table: 1033
cur table: 1037
epoch: 1000
next table: 2344
cur table: 2340
epoch: 1000
next table: 1035
cur table: 1033
epoch: 1000
next table: 2377
cur table: 2344
epoch: 1000
next table: 1038
cur table: 1035
epoch: 1000
next table: 2365
cur table: 2377
epoch: 1000
next table: 1038
cur table: 1038
epoch: 1000
next table: 2268
cur table: 2365
epoch: 1000
next table: 1034
cur table: 1038
epoch: 1000
next table: 2355
cur table: 2268
epoch: 1000
next table: 1036
cur table: 1034
epoch: 1000
next table: 2355
cur table: 2355
epoch: 1000
next table: 1039
cur table: 1036
epoch: 1000
next table: 2370
cur table: 2355
epoch: 1000
next table: 1035
cur table: 1039
epoch: 1000
next table: 2369
cur table: 2370
epoch: 1000
next table: 2313
cur table: 2369
epoch: 1000
next table: 1041
cur table: 1035
epoch: 1000
next table: 2352
cur table: 2313
epoch: 1000
next table: 1037
cur table: 1041
epoch: 1000
next table: 2359
cur table: 2352
epoch: 1000
next table: 1034
cur table: 1037
epoch: 1000
next table: 2379
cur table: 2359
epoch: 1000
next table: 1035
cur table: 1034
epoch: 1000
next table: 2313
cur table: 2379
epoch: 1000
next table: 1035
cur table: 1035
epoch: 1000
next table: 2321
cur table: 2313
epoch: 1000
next table: 1036
cur table: 1035
epoch: 1000
next table: 2359
cur table: 2321
epoch: 1000
next table: 1037
cur table: 1036
epoch: 1000
next table: 2317
cur table: 2359
epoch: 1000
next table: 1042
cur table: 1037
epoch: 1000
next table: 2343
cur table: 2317
epoch: 1000
next table: 1035
cur table: 1042
epoch: 1000
next table: 2351
cur table: 2343
epoch: 1000
next table: 1035
cur table: 1035
epoch: 1000
next table: 2312
cur table: 2351
epoch: 1000
next table: 1037
cur table: 1035
epoch: 1000
next table: 2392
cur table: 2312
epoch: 1000
next table: 1037
cur table: 1037
epoch: 1000
next table: 2356
cur table: 2392
epoch: 1000
next table: 1042
cur table: 1037
epoch: 1000
next table: 2349
cur table: 2356
epoch: 1000
next table: 1037
cur table: 1042
epoch: 1000
next table: 2309
cur table: 2349
epoch: 1000
next table: 1038
cur table: 1037
epoch: 1000
next table: 2330
cur table: 2309
epoch: 1000
next table: 1035
cur table: 1038
epoch: 1000
next table: 2340
cur table: 2330
epoch: 1000
next table: 1039
cur table: 1035
epoch: 1000
next table: 2343
cur table: 2340
epoch: 1000
next table: 1038
cur table: 1039
epoch: 1000
next table: 2321
cur table: 2343
epoch: 1000
next table: 1044
cur table: 1038
epoch: 1000
next table: 2314
cur table: 2321
epoch: 1000
next table: 1040
cur table: 1044
epoch: 1000
next table: 2340
cur table: 2314
epoch: 1000
next table: 1036
cur table: 1040
epoch: 1000
next table: 2309
cur table: 2340
epoch: 1000
next table: 1036
cur table: 1036
epoch: 1000
next table: 2326
cur table: 2309
epoch: 1000
next table: 1037
cur table: 1036
epoch: 1000
next table: 2312
cur table: 2326
epoch: 1000
next table: 1036
cur table: 1037
epoch: 1000
next table: 2369
cur table: 2312
epoch: 1000
next table: 1034
cur table: 1036
epoch: 1000
next table: 2348
cur table: 2369
epoch: 1000
next table: 1035
cur table: 1034
epoch: 1000
next table: 2346
cur table: 2348
epoch: 1000
next table: 1040
cur table: 1035
epoch: 1000
next table: 2304
cur table: 2346
epoch: 1000
next table: 1042
cur table: 1040
epoch: 1000
next table: 2335
cur table: 2304
epoch: 1000
next table: 1040
cur table: 1042
epoch: 1000
next table: 2383
cur table: 2335
epoch: 1000
next table: 1032
cur table: 1040
epoch: 1000
next table: 2326
cur table: 2383
epoch: 1000
next table: 1040
cur table: 1032
epoch: 1000
next table: 2352
cur table: 2326
epoch: 1000
next table: 1043
cur table: 1040
epoch: 1000
next table: 2300
cur table: 2352
epoch: 1000
next table: 1036
cur table: 1043
epoch: 1000
next table: 2343
cur table: 2300
epoch: 1000
next table: 1037
cur table: 1036
epoch: 1000
next table: 2332
cur table: 2343
epoch: 1000
next table: 1035
cur table: 1037
epoch: 1000
next table: 2275
cur table: 2332
epoch: 1000
next table: 1047
cur table: 1035
epoch: 1000
next table: 2265
cur table: 2275
epoch: 1000
next table: 1045
cur table: 1047
epoch: 1000
next table: 2268
cur table: 2265
epoch: 1000
next table: 1037
cur table: 1045
epoch: 1000
next table: 2385
cur table: 2268
epoch: 1000
next table: 1037
cur table: 1037
epoch: 1000
next table: 2302
cur table: 2385
epoch: 1000
next table: 1047
cur table: 1037
epoch: 1000
next table: 2283
cur table: 2302
epoch: 1000
next table: 1036
cur table: 1047
epoch: 1000
next table: 2392
cur table: 2283
epoch: 1000
next table: 1038
cur table: 1036
epoch: 1000
next table: 2278
cur table: 2392
epoch: 1000
next table: 1054
cur table: 1038
epoch: 1000
next table: 2295
cur table: 2278
epoch: 1000
next table: 1051
cur table: 1054
epoch: 1000
next table: 2317
cur table: 2295
epoch: 1000
next table: 1042
cur table: 1051
epoch: 1000
next table: 2255
cur table: 2317
epoch: 1000
next table: 1045
cur table: 1042
epoch: 1000
next table: 2295
cur table: 2255
epoch: 1000
next table: 1042
cur table: 1045
epoch: 1000
next table: 2280
cur table: 2295
epoch: 1000
next table: 1039
cur table: 1042
epoch: 1000
next table: 2350
cur table: 2280
epoch: 1000
next table: 1069
cur table: 1039
epoch: 1000
next table: 2263
cur table: 2350
epoch: 1000
next table: 1040
cur table: 1069
epoch: 1000
next table: 2231
cur table: 2263
epoch: 1000
next table: 1047
cur table: 1040
epoch: 1000
next table: 2328
cur table: 2231
epoch: 1000
next table: 1039
cur table: 1047
epoch: 1000
next table: 2364
cur table: 2328
epoch: 1000
next table: 1041
cur table: 1039
epoch: 1000
next table: 2359
cur table: 2364
epoch: 1000
next table: 1037
cur table: 1041
epoch: 1000
next table: 2357
cur table: 2359
epoch: 1000
next table: 1038
cur table: 1037
epoch: 1000
next table: 2281
cur table: 2357
epoch: 1000
next table: 1039
cur table: 1038
epoch: 1000
next table: 2329
cur table: 2281
epoch: 1000
next table: 1040
cur table: 1039
epoch: 1000
next table: 2380
cur table: 2329
epoch: 1000
next table: 1037
cur table: 1040
epoch: 1000
next table: 2343
cur table: 2380
epoch: 1000
next table: 1039
cur table: 1037
epoch: 1000
next table: 2265
cur table: 2343
epoch: 1000
next table: 1037
cur table: 1039
epoch: 1000
next table: 2432
cur table: 2265
epoch: 1000
next table: 1040
cur table: 1037
epoch: 1000
next table: 2267
cur table: 2432
epoch: 1000
next table: 1052
cur table: 1040
epoch: 1000
next table: 2345
cur table: 2267
epoch: 1000
next table: 1039
cur table: 1052
epoch: 1000
next table: 2279
cur table: 2345
epoch: 1000
next table: 1039
cur table: 1039
epoch: 1000
next table: 2364
cur table: 2279
epoch: 1000
next table: 1039
cur table: 1039
epoch: 1000
next table: 2338
cur table: 2364
epoch: 1000
next table: 1035
cur table: 1039
epoch: 1000
next table: 2365
cur table: 2338
epoch: 1000
next table: 1040
cur table: 1035
epoch: 1000
next table: 2300
cur table: 2365
epoch: 1000
next table: 1035
cur table: 1040
epoch: 1000
next table: 2322
cur table: 2300
epoch: 1000
next table: 1039
cur table: 1035
epoch: 1000
next table: 2255
cur table: 2322
epoch: 1000
next table: 1045
cur table: 1039
epoch: 1000
next table: 2333
cur table: 2255
epoch: 1000
next table: 1037
cur table: 1045
epoch: 1000
next table: 2335
cur table: 2333
epoch: 1000
next table: 1036
cur table: 1037
epoch: 1000
next table: 2389
cur table: 2335
epoch: 1000
next table: 1035
cur table: 1036
epoch: 1000
next table: 2353
cur table: 2389
epoch: 1000
next table: 1039
cur table: 1035
epoch: 1000
next table: 2345
cur table: 2353
epoch: 1000
next table: 1036
cur table: 1039
epoch: 1000
next table: 2396
cur table: 2345
epoch: 1000
next table: 1037
cur table: 1036
epoch: 1000
next table: 2309
cur table: 2396
epoch: 1000
next table: 1034
cur table: 1037
epoch: 1000
next table: 2334
cur table: 2309
epoch: 1000
next table: 1037
cur table: 1034
epoch: 1000
next table: 2367
cur table: 2334
epoch: 1000
next table: 1042
cur table: 1037
epoch: 1000
next table: 2317
cur table: 2367
epoch: 1000
next table: 1038
cur table: 1042
epoch: 1000
next table: 2337
cur table: 2317
epoch: 1000
next table: 1038
cur table: 1038
epoch: 1000
next table: 2360
cur table: 2337
epoch: 1000
next table: 1040
cur table: 1038
epoch: 1000
next table: 2351
cur table: 2360
epoch: 1000
next table: 1040
cur table: 1040
epoch: 1000
next table: 2390
cur table: 2351
epoch: 1000
next table: 1035
cur table: 1040
epoch: 1000
next table: 2316
cur table: 2390
epoch: 1000
next table: 1040
cur table: 1035
epoch: 1000
next table: 2340
cur table: 2316
epoch: 1000
next table: 1037
cur table: 1040
epoch: 1000
next table: 2312
cur table: 2340
epoch: 1000
next table: 1035
cur table: 1037
epoch: 1000
next table: 2348
cur table: 2312
epoch: 1000
next table: 1043
cur table: 1035
epoch: 1000
next table: 2317
cur table: 2348
epoch: 1000
next table: 1040
cur table: 1043
epoch: 1000
next table: 2267
cur table: 2317
epoch: 1000
next table: 1041
cur table: 1040
epoch: 1000
next table: 2275
cur table: 2267
epoch: 1000
next table: 1041
cur table: 1041
epoch: 1000
next table: 2377
cur table: 2275
epoch: 1000
next table: 1040
cur table: 1041
epoch: 1000
next table: 2342
cur table: 2377
epoch: 1000
next table: 1035
cur table: 1040
epoch: 1000
next table: 2374
cur table: 2342
epoch: 1000
next table: 1038
cur table: 1035
epoch: 1000
next table: 2289
cur table: 2374
epoch: 1000
next table: 1036
cur table: 1038
epoch: 1000
next table: 2275
cur table: 2289
epoch: 1000
next table: 1042
cur table: 1036
epoch: 1000
next table: 2344
cur table: 2275
epoch: 1000
next table: 1035
cur table: 1042
epoch: 1000
next table: 2373
cur table: 2344
epoch: 1000
next table: 1037
cur table: 1035
epoch: 1000
next table: 2332
cur table: 2373
epoch: 1000
next table: 1040
cur table: 1037
epoch: 1000
next table: 2317
cur table: 2332
epoch: 1000
next table: 1034
cur table: 1040
epoch: 1000
next table: 2366
cur table: 2317
epoch: 1000
next table: 1044
cur table: 1034
epoch: 1000
next table: 2357
cur table: 2366
epoch: 1000
next table: 1036
cur table: 1044
epoch: 1000
next table: 2249
cur table: 2357
epoch: 1000
next table: 1041
cur table: 1036
epoch: 1000
next table: 2358
cur table: 2249
epoch: 1000
next table: 1039
cur table: 1041
epoch: 1000
next table: 2314
cur table: 2358
epoch: 1000
next table: 1042
cur table: 1039
epoch: 1000
next table: 2366
cur table: 2314
epoch: 1000
next table: 1039
cur table: 1042
epoch: 1000
next table: 2365
cur table: 2366
epoch: 1000
next table: 1038
cur table: 1039
epoch: 1000
next table: 2280
cur table: 2365
epoch: 1000
next table: 1034
cur table: 1038
epoch: 1000
next table: 2327
cur table: 2280
epoch: 1000
next table: 1033
cur table: 1034
epoch: 1000
next table: 2381
cur table: 2327
epoch: 1000
next table: 1036
cur table: 1033
epoch: 1000
next table: 2342
cur table: 2381
epoch: 1000
next table: 1050
cur table: 1036
epoch: 1000
next table: 2280
cur table: 2342
epoch: 1000
next table: 1045
cur table: 1050
epoch: 1000
next table: 2227
cur table: 2280
epoch: 1000
next table: 1036
cur table: 1045
epoch: 1000
next table: 2375
cur table: 2227
epoch: 1000
next table: 1043
cur table: 1036
epoch: 1000
next table: 2274
cur table: 2375
epoch: 1000
next table: 1046
cur table: 1043
epoch: 1000
next table: 2295
cur table: 2274
epoch: 1000
next table: 1046
cur table: 1046
epoch: 1000
next table: 2280
cur table: 2295
epoch: 1000
next table: 1045
cur table: 1046
epoch: 1000
next table: 2292
cur table: 2280
epoch: 1000
next table: 1043
cur table: 1045
epoch: 1000
next table: 2254
cur table: 2292
epoch: 1000
next table: 1048
cur table: 1043
epoch: 1000
next table: 2212
cur table: 2254
epoch: 1000
next table: 1041
cur table: 1048
epoch: 1000
next table: 2355
cur table: 2212
epoch: 1000
next table: 1045
cur table: 1041
epoch: 1000
next table: 2263
cur table: 2355
epoch: 1000
next table: 1046
cur table: 1045
epoch: 1000
next table: 2215
cur table: 2263
epoch: 1000
next table: 1037
cur table: 1046
epoch: 1000
next table: 2312
cur table: 2215
epoch: 1000
next table: 1048
cur table: 1037
epoch: 1000
next table: 2206
cur table: 2312
epoch: 1000
next table: 1050
cur table: 1048
epoch: 1000
next table: 2283
cur table: 2206
epoch: 1000
next table: 1041
cur table: 1050
epoch: 1000
next table: 2257
cur table: 2283
epoch: 1000
next table: 1041
cur table: 1041
epoch: 1000
next table: 2290
cur table: 2257
epoch: 1000
next table: 1035
cur table: 1041
epoch: 1000
next table: 2348
cur table: 2290
epoch: 1000
next table: 1044
cur table: 1035
epoch: 1000
next table: 2279
cur table: 2348
epoch: 1000
next table: 1037
cur table: 1044
epoch: 1000
next table: 2342
cur table: 2279
epoch: 1000
next table: 1040
cur table: 1037
epoch: 1000
next table: 2286
cur table: 2342
epoch: 1000
next table: 1044
cur table: 1040
epoch: 1000
next table: 2279
cur table: 2286
epoch: 1000
next table: 1038
cur table: 1044
epoch: 1000
[...]
epoch: 1000
next table: 2379
cur table: 2321
epoch: 1000
next table: 1035
cur table: 1038
epoch: 1000
next table: 2305
cur table: 2379
epoch: 1000
next table: 1040
cur table: 1035
epoch: 1000
next table: 2329
cur table: 2305
epoch: 1000
next table: 1036
cur table: 1040
epoch: 1000
next table: 2360
cur table: 2329
epoch: 1000
next table: 1036
cur table: 1036
epoch: 1000
next table: 2385
cur table: 2360
epoch: 1000
next table: 1036
cur table: 1036
epoch: 1000
next table: 2360
cur table: 2385
epoch: 1000
next table: 1037
cur table: 1036
epoch: 1000
next table: 2322
cur table: 2360
epoch: 1000
next table: 1037
cur table: 1037
epoch: 1000
next table: 2307
cur table: 2322
epoch: 1000
next table: 1037
cur table: 1037
epoch: 1000
next table: 2341
cur table: 2307
epoch: 1000
next table: 1039
cur table: 1037
epoch: 1000
next table: 2374
cur table: 2341
epoch: 1000
next table: 1042
cur table: 1039
epoch: 1000
next table: 2280
cur table: 2374
epoch: 1000
next table: 1036
cur table: 1042
epoch: 1000
next table: 2328
cur table: 2280
epoch: 1000
next table: 1038
cur table: 1036
epoch: 1000
next table: 2333
cur table: 2328
epoch: 1000
next table: 1035
cur table: 1038
epoch: 1000
next table: 2323
cur table: 2333
epoch: 1000
next table: 1038
cur table: 1035
epoch: 1000
next table: 2343
cur table: 2323
epoch: 1000
next table: 1037
cur table: 1038
epoch: 1000
next table: 2324
cur table: 2343
epoch: 1000
next table: 1037
cur table: 1037
epoch: 1000
next table: 2315
cur table: 2324
epoch: 1000
next table: 1034
cur table: 1037
epoch: 1000
next table: 2369
cur table: 2315
epoch: 1000
next table: 2288
cur table: 2369
epoch: 1000
next table: 1044
cur table: 1034
epoch: 1000
next table: 2325
cur table: 2288
epoch: 1000
next table: 1035
cur table: 1044
epoch: 1000
next table: 2371
cur table: 2325
epoch: 1000
next table: 1036
cur table: 1035
epoch: 1000
next table: 2361
cur table: 2371
epoch: 1000
next table: 1036
cur table: 1036
epoch: 1000
next table: 2355
cur table: 2361
epoch: 1000
next table: 1035
cur table: 1036
epoch: 1000
next table: 2341
cur table: 2355
epoch: 1000
next table: 1036
cur table: 1035
epoch: 1000
next table: 2324
cur table: 2341
epoch: 1000
next table: 1035
cur table: 1036
epoch: 1000
next table: 2353
cur table: 2324
epoch: 1000
next table: 1036
cur table: 1035
epoch: 1000
next table: 2379
cur table: 2353
epoch: 1000
next table: 1033
cur table: 1036
epoch: 1000
next table: 2319
cur table: 2379
epoch: 1000
next table: 1037
cur table: 1033
epoch: 1000
next table: 2368
cur table: 2319
epoch: 1000
next table: 1037
cur table: 1037
epoch: 1000
next table: 2302
cur table: 2368
epoch: 1000
next table: 1037
cur table: 1037
epoch: 1000
next table: 2364
cur table: 2302
epoch: 1000
next table: 1037
cur table: 1037
epoch: 1000
next table: 2338
cur table: 2364
epoch: 1000
next table: 1037
cur table: 1037
epoch: 1000
next table: 2403
cur table: 2338
epoch: 1000
next table: 1038
cur table: 1037
epoch: 1000
next table: 2320
cur table: 2403
epoch: 1000
next table: 1037
cur table: 1038
epoch: 1000
next table: 2323
cur table: 2320
epoch: 1000
next table: 1039
cur table: 1037
epoch: 1000
next table: 2349
cur table: 2323
epoch: 1000
next table: 1035
cur table: 1039
epoch: 1000
next table: 2341
cur table: 2349
epoch: 1000
next table: 1035
cur table: 1035
epoch: 1000
next table: 2374
cur table: 2341
epoch: 1000
next table: 1046
cur table: 1035
Heartbeat CPU 0 instructions: 100000000 cycles: 176477018 heartbeat IPC: 0.312064 cumulative IPC: 0.312198 (Simulation time: 0 hr 58 min 56 sec) 
Finished CPU 0 instructions: 50000001 cycles: 160154561 cumulative IPC: 0.312198 (Simulation time: 0 hr 58 min 56 sec) 

ChampSim completed all CPUs

Region of Interest Statistics

CPU 0 cumulative IPC: 0.312198 instructions: 50000001 cycles: 160154561
ITLB TOTAL     ACCESS:    7742167  HIT:    7742167  MISS:          0  HIT %:        100  MISS %:          0   MPKI: 0
ITLB LOAD TRANSLATION ACCESS:    7742167  HIT:    7742167  MISS:          0  HIT %:        100  MISS %:          0   MPKI: 0
ITLB PREFETCH  REQUESTED:          0  ISSUED:          0  USEFUL:          0  USELESS:          0
ITLB USEFUL LOAD PREFETCHES:          0 PREFETCH ISSUED TO LOWER LEVEL:          0  ACCURACY: -nan
ITLB TIMELY PREFETCHES:          0 LATE PREFETCHES: 0 DROPPED PREFETCHES: 0
ITLB PREFETCHES SAME FILL-ORIGIN LEVEL: 0 DIFFERENT FILL-ORIGIN LEVEL: 0
ITLB AVERAGE MISS LATENCY: -nan cycles
ITLB RQ	ACCESS:    8571382	FORWARD:          0	MERGED:     829215	TO_CACHE:    7742167

Revised Interactions: positive negative neutral
ITLB_interactions 0 0 0 -nan -nan -nan
DTLB TOTAL     ACCESS:   14946751  HIT:   14930747  MISS:      16004  HIT %:    99.8929  MISS %:   0.107073   MPKI: 0.32008
DTLB LOAD TRANSLATION ACCESS:   14946751  HIT:   14930747  MISS:      16004  HIT %:    99.8929  MISS %:   0.107073   MPKI: 0.32008
DTLB PREFETCH  REQUESTED:          0  ISSUED:          0  USEFUL:          0  USELESS:          0
DTLB USEFUL LOAD PREFETCHES:          0 PREFETCH ISSUED TO LOWER LEVEL:          0  ACCURACY: -nan
DTLB TIMELY PREFETCHES:          0 LATE PREFETCHES: 0 DROPPED PREFETCHES: 0
DTLB PREFETCHES SAME FILL-ORIGIN LEVEL: 0 DIFFERENT FILL-ORIGIN LEVEL: 0
DTLB AVERAGE MISS LATENCY: 144.44 cycles
DTLB RQ	ACCESS:   15231837	FORWARD:          0	MERGED:     284954	TO_CACHE:   14946883

Revised Interactions: positive negative neutral
DTLB_interactions 0 0 0 -nan -nan -nan
STLB TOTAL     ACCESS:      16004  HIT:        973  MISS:      15031  HIT %:    6.07973  MISS %:    93.9203   MPKI: 0.30062
STLB LOAD TRANSLATION ACCESS:      16004  HIT:        973  MISS:      15031  HIT %:    6.07973  MISS %:    93.9203   MPKI: 0.30062
STLB PREFETCH  REQUESTED:          0  ISSUED:          0  USEFUL:          0  USELESS:          0
STLB USEFUL LOAD PREFETCHES:          0 PREFETCH ISSUED TO LOWER LEVEL:          0  ACCURACY: -nan
STLB TIMELY PREFETCHES:          0 LATE PREFETCHES: 0 DROPPED PREFETCHES: 0
STLB PREFETCHES SAME FILL-ORIGIN LEVEL: 0 DIFFERENT FILL-ORIGIN LEVEL: 0
STLB AVERAGE MISS LATENCY: 144.188 cycles
STLB RQ	ACCESS:      16004	FORWARD:          0	MERGED:          0	TO_CACHE:      16004

Revised Interactions: positive negative neutral
STLB_interactions 0 0 0 -nan -nan -nan
STLB Hit, L1D data hit: 0
STLB Hit, L2C data hit: 0
STLB Hit, LLC data hit: 0
STLB Hit, LLC data miss: 0
STLB STLB hints to L2: 0
L1D TOTAL     ACCESS:   15062276  HIT:   13861351  MISS:    1200925  HIT %:    92.0269  MISS %:    7.97306   MPKI: 24.0185
L1D LOAD      ACCESS:   10746432  HIT:    9545897  MISS:    1200535  HIT %:    88.8285  MISS %:    11.1715   MPKI: 24.0107
L1D RFO       ACCESS:    4315844  HIT:    4315454  MISS:        390  HIT %:     99.991  MISS %: 0.00903647   MPKI: 0.0078
L1D PREFETCH  REQUESTED:          0  ISSUED:          0  USEFUL:          0  USELESS:          0
L1D USEFUL LOAD PREFETCHES:          0 PREFETCH ISSUED TO LOWER LEVEL:          0  ACCURACY: -nan
L1D TIMELY PREFETCHES:          0 LATE PREFETCHES: 0 DROPPED PREFETCHES: 0
L1D PREFETCHES SAME FILL-ORIGIN LEVEL: 0 DIFFERENT FILL-ORIGIN LEVEL: 0
L1D AVERAGE MISS LATENCY: 18.198 cycles
L1D RQ	ACCESS:   13899237	FORWARD:          0	MERGED:    2983244	TO_CACHE:   10915993
L1D WQ	ACCESS:    4852705	FORWARD:          0	MERGED:     536861	TO_CACHE:    4315844

Revised Interactions: positive negative neutral
L1D_interactions 0 0 0 -nan -nan -nan
L1D UNIQUE REGIONS ACCESSED: 0
L1D REGIONS CONFLICTS: 0
L1D Cross Page Prefetch Requests: 0
L1D Same Page Prefetch Requests: 0
L1D ROI Sum of L1D PQ occupancy: 0
L1D PREFETCHES PUSHED FROM L2C: 0
L1I TOTAL     ACCESS:    8571382  HIT:    8571382  MISS:          0  HIT %:        100  MISS %:          0   MPKI: 0
L1I LOAD      ACCESS:    8571382  HIT:    8571382  MISS:          0  HIT %:        100  MISS %:          0   MPKI: 0
L1I PREFETCH  REQUESTED:          0  ISSUED:          0  USEFUL:          0  USELESS:          0
L1I USEFUL LOAD PREFETCHES:          0 PREFETCH ISSUED TO LOWER LEVEL:          0  ACCURACY: -nan
L1I TIMELY PREFETCHES:          0 LATE PREFETCHES: 0 DROPPED PREFETCHES: 0
L1I PREFETCHES SAME FILL-ORIGIN LEVEL: 0 DIFFERENT FILL-ORIGIN LEVEL: 0
L1I AVERAGE MISS LATENCY: -nan cycles
L1I RQ	ACCESS:   13330290	FORWARD:          0	MERGED:    4758908	TO_CACHE:    8571382

Revised Interactions: positive negative neutral
L1I_interactions 0 0 0 -nan -nan -nan
BTB TOTAL     ACCESS:    8191440  HIT:    8191411  MISS:         29  HIT %:    99.9996  MISS %: 0.000354028   MPKI: 0.00058
BTB BRANCH_DIRECT_JUMP	ACCESS:    1079484  HIT:    1079475  MISS:          9
BTB BRANCH_INDIRECT	ACCESS:          0  HIT:          0  MISS:          0
BTB BRANCH_CONDITIONAL	ACCESS:    6031793  HIT:    6031779  MISS:         14
BTB BRANCH_DIRECT_CALL	ACCESS:     540081  HIT:     540078  MISS:          3
BTB BRANCH_INDIRECT_CALL	ACCESS:          0  HIT:          0  MISS:          0
BTB BRANCH_RETURN	ACCESS:     540082  HIT:     540079  MISS:          3
BTB BRANCH_OTHER ACCESS:          0  HIT:          0  MISS:          0

L2C TOTAL     ACCESS:    2143672  HIT:    1226739  MISS:     916933  HIT %:    57.2261  MISS %:    42.7739   MPKI: 18.3387
L2C LOAD      ACCESS:    1200535  HIT:    1167158  MISS:      33377  HIT %:    97.2198  MISS %:    2.78018   MPKI: 0.66754
L2C DATA LOAD MPKI: 0.66754
L2C INSTRUCTION LOAD MPKI: 0
L2C RFO       ACCESS:        390  HIT:        217  MISS:        173  HIT %:     55.641  MISS %:     44.359   MPKI: 0.00346
L2C PREFETCH  ACCESS:     924485  HIT:      43913  MISS:     880572  HIT %:       4.75  MISS %:      95.25   MPKI: 17.6114
L2C DATA PREFETCH MPKI: 17.6114
L2C INSTRUCTION PREFETCH MPKI: 0
L2C WRITEBACK ACCESS:       3171  HIT:       3156  MISS:         15  HIT %:     99.527  MISS %:   0.473037   MPKI: 0.0003
L2C LOAD TRANSLATION ACCESS:      15091  HIT:      12295  MISS:       2796  HIT %:    81.4724  MISS %:    18.5276   MPKI: 0.05592
L2C PREFETCH  REQUESTED:     925100  ISSUED:     925100  USEFUL:     855929  USELESS:      24636
L2C USEFUL LOAD PREFETCHES:     855929 PREFETCH ISSUED TO LOWER LEVEL:     880875  ACCURACY: 97.168
L2C TIMELY PREFETCHES:     855929 LATE PREFETCHES: 303 DROPPED PREFETCHES: 0
L2C PREFETCHES SAME FILL-ORIGIN LEVEL: 880875 DIFFERENT FILL-ORIGIN LEVEL: 0
L2C AVERAGE MISS LATENCY: 129.293 cycles
L2C RQ	ACCESS:    1216017	FORWARD:          0	MERGED:          0	TO_CACHE:    1216017
L2C WQ	ACCESS:       3171	FORWARD:          0	MERGED:          0	TO_CACHE:       3171
L2C PQ	ACCESS:     925100	FORWARD:          0	MERGED:          0	TO_CACHE:     925100

Revised Interactions: positive negative neutral
L2C_interactions 852115 25347 1625 96.9318 2.88333 0.184851
L2C Instructions Evicting Data 0
L2C Translations Evicting Data 2793
L2C Data Evicting Data 911327
L2C Instructions Evicting Instructions 0
L2C Translations Evicting Instructions 0
L2C Data Evicting Instructions 0
L2C Instructions Evicting Translations 0
L2C Translations Evicting Translations 3
L2C Data Evicting Translations 2795
L2C Dense regions hint from L2: 0
PSCL5 TOTAL     ACCESS:      15031  HIT:      15031  MISS:          0  HIT %:        100  MISS %:          0   MPKI: 0
PSCL5 LOAD TRANSLATION ACCESS:      15031  HIT:      15031  MISS:          0  HIT %:        100  MISS %:          0   MPKI: 0
PSCL5 PREFETCH  REQUESTED:          0  ISSUED:          0  USEFUL:          0  USELESS:          0
PSCL5 USEFUL LOAD PREFETCHES:          0 PREFETCH ISSUED TO LOWER LEVEL:          0  ACCURACY: -nan
PSCL5 TIMELY PREFETCHES:          0 LATE PREFETCHES: 0 DROPPED PREFETCHES: 0
PSCL5 PREFETCHES SAME FILL-ORIGIN LEVEL: 0 DIFFERENT FILL-ORIGIN LEVEL: 0

Revised Interactions: positive negative neutral
PSCL5_interactions 0 0 0 -nan -nan -nan
PSCL4 TOTAL     ACCESS:      15031  HIT:      15031  MISS:          0  HIT %:        100  MISS %:          0   MPKI: 0
PSCL4 LOAD TRANSLATION ACCESS:      15031  HIT:      15031  MISS:          0  HIT %:        100  MISS %:          0   MPKI: 0
PSCL4 PREFETCH  REQUESTED:          0  ISSUED:          0  USEFUL:          0  USELESS:          0
PSCL4 USEFUL LOAD PREFETCHES:          0 PREFETCH ISSUED TO LOWER LEVEL:          0  ACCURACY: -nan
PSCL4 TIMELY PREFETCHES:          0 LATE PREFETCHES: 0 DROPPED PREFETCHES: 0
PSCL4 PREFETCHES SAME FILL-ORIGIN LEVEL: 0 DIFFERENT FILL-ORIGIN LEVEL: 0

Revised Interactions: positive negative neutral
PSCL4_interactions 0 0 0 -nan -nan -nan
PSCL3 TOTAL     ACCESS:      15031  HIT:      15030  MISS:          1  HIT %:    99.9933  MISS %: 0.00665292   MPKI: 2e-05
PSCL3 LOAD TRANSLATION ACCESS:      15031  HIT:      15030  MISS:          1  HIT %:    99.9933  MISS %: 0.00665292   MPKI: 2e-05
PSCL3 PREFETCH  REQUESTED:          0  ISSUED:          0  USEFUL:          0  USELESS:          0
PSCL3 USEFUL LOAD PREFETCHES:          0 PREFETCH ISSUED TO LOWER LEVEL:          0  ACCURACY: -nan
PSCL3 TIMELY PREFETCHES:          0 LATE PREFETCHES: 0 DROPPED PREFETCHES: 0
PSCL3 PREFETCHES SAME FILL-ORIGIN LEVEL: 0 DIFFERENT FILL-ORIGIN LEVEL: 0

Revised Interactions: positive negative neutral
PSCL3_interactions 0 0 0 -nan -nan -nan
PSCL2 TOTAL     ACCESS:      15031  HIT:      14861  MISS:        170  HIT %:     98.869  MISS %:      1.131   MPKI: 0.0034
PSCL2 LOAD TRANSLATION ACCESS:      15031  HIT:      14861  MISS:        170  HIT %:     98.869  MISS %:      1.131   MPKI: 0.0034
PSCL2 PREFETCH  REQUESTED:          0  ISSUED:          0  USEFUL:          0  USELESS:          0
PSCL2 USEFUL LOAD PREFETCHES:          0 PREFETCH ISSUED TO LOWER LEVEL:          0  ACCURACY: -nan
PSCL2 TIMELY PREFETCHES:          0 LATE PREFETCHES: 0 DROPPED PREFETCHES: 0
PSCL2 PREFETCHES SAME FILL-ORIGIN LEVEL: 0 DIFFERENT FILL-ORIGIN LEVEL: 0

Revised Interactions: positive negative neutral
PSCL2_interactions 0 0 0 -nan -nan -nan
LLC TOTAL     ACCESS:     918134  HIT:       5001  MISS:     913133  HIT %:   0.544692  MISS %:    99.4553   MPKI: 18.2627
LLC LOAD      ACCESS:      33131  HIT:       1013  MISS:      32118  HIT %:    3.05756  MISS %:    96.9424   MPKI: 0.64236
LLC RFO       ACCESS:        116  HIT:          1  MISS:        115  HIT %:   0.862069  MISS %:    99.1379   MPKI: 0.0023
LLC PREFETCH  ACCESS:     880875  HIT:       3236  MISS:     877639  HIT %:   0.367362  MISS %:    99.6326   MPKI: 17.5528
LLC WRITEBACK ACCESS:       1216  HIT:        474  MISS:        742  HIT %:    38.9803  MISS %:    61.0197   MPKI: 0.01484
LLC LOAD TRANSLATION ACCESS:       2796  HIT:        277  MISS:       2519  HIT %:    9.90701  MISS %:     90.093   MPKI: 0.05038
LLC PREFETCH  REQUESTED:          0  ISSUED:          0  USEFUL:         99  USELESS:     878783
LLC USEFUL LOAD PREFETCHES:         99 PREFETCH ISSUED TO LOWER LEVEL:     877639  ACCURACY: 0.0112803
LLC TIMELY PREFETCHES:         99 LATE PREFETCHES: 0 DROPPED PREFETCHES: 0
LLC PREFETCHES SAME FILL-ORIGIN LEVEL: 0 DIFFERENT FILL-ORIGIN LEVEL: 0
LLC AVERAGE MISS LATENCY: 99.7273 cycles
LLC RQ	ACCESS:      36043	FORWARD:          0	MERGED:          0	TO_CACHE:      36043
LLC WQ	ACCESS:       1216	FORWARD:          0	MERGED:          0	TO_CACHE:       1216
LLC PQ	ACCESS:     880875	FORWARD:          0	MERGED:          0	TO_CACHE:     880875

Revised Interactions: positive negative neutral
LLC_interactions 219 875165 6932 0.024821 99.1895 0.78566
LLC Dense regions hint to LLC: 0

RAW hits: 0
Loads Generated: 13899237
Loads sent to L1D: 13899237
Stores Generated: 4852705
Stores sent to L1D: 4852705
Major fault: 0 Minor fault: 30432
Allocated PAGES: 30432
[Bingo] PHT Access: 35016
[Bingo] PHT Hit PC+Addr: 2926
[Bingo] PHT Hit PC+Offs: 31919
[Bingo] PHT Miss: 171
[Bingo] Prefetch PC+Addr: 0
[Bingo] Prefetch PC+Offs: 0
[Bingo] Useful PC+Addr: 0
[Bingo] Useful PC+Offs: 0
[Bingo] Useless PC+Addr: 0
[Bingo] Useless PC+Offs: 0
[Bingo] L1 Prefetch per Region: 0
[Bingo] L2 Prefetch per Region: 27.662
[Bingo] L3 Prefetch per Region: 0
[Bingo] No Prefetch per Region: 4.33795
[Bingo] Number of Voters Mean: 15.4893
[Bingo] Number of Voters SD: 15.5217
PHT read accesses: 517173
PHT write accesses: 32222
AT read accesses: 1162181
AT write accesses: 1189094
FT read accesses: 116750
FT write accesses: 35016
PS read accesses: 99236
PS write accesses: 34845
PHT tag read accesses: 1523157
PHT tag write accesses: 35148
AT tag read accesses: 35386214
AT tag write accesses: 1194402
FT tag read accesses: 17050298
FT tag write accesses: 110899
PS tag read accesses: 20600520
PS tag write accesses: 133838

DRAM Statistics
 CHANNEL 0
 RQ ROW_BUFFER_HIT:     873447  ROW_BUFFER_MISS:      38944
 DBUS_CONGESTED:         16
 WQ ROW_BUFFER_HIT:          9  ROW_BUFFER_MISS:        735  FULL:          0

 AVG_CONGESTED_CYCLE: 2
 All warmup complete: 2
Channel 0 Bank busy for read cycles: 0
Channel 0 Bank busy for write cycles: 0
Channel 0
Rank 0
0banks busy for read cycles: 151345528
0banks busy for write cycles: 463
1banks busy for read cycles: 2038611
1banks busy for write cycles: 45763
2banks busy for read cycles: 296928
2banks busy for write cycles: 18200
3banks busy for read cycles: 213343
3banks busy for write cycles: 7507
4banks busy for read cycles: 179272
4banks busy for write cycles: 2135
5banks busy for read cycles: 165856
5banks busy for write cycles: 708
6banks busy for read cycles: 145174
6banks busy for write cycles: 0
7banks busy for read cycles: 1736280
7banks busy for write cycles: 0
8banks busy for read cycles: 3958794
8banks busy for write cycles: 0

CPU 0 Branch Prediction Accuracy: 92.2664% MPKI: 19.8292 Average ROB Occupancy at Mispredict: 31.4916
Branch types
NOT_BRANCH: 37179429 74.3589%
BRANCH_DIRECT_JUMP: 1079484 2.15897%
BRANCH_INDIRECT: 0 0%
BRANCH_CONDITIONAL: 10660557 21.3211%
BRANCH_DIRECT_CALL: 540081 1.08016%
BRANCH_INDIRECT_CALL: 0 0%
BRANCH_RETURN: 540082 1.08016%
BRANCH_OTHER: 0 0%

@sumon_overall_L1D         0         0         0         0         0         0         0
@Sumon_Early_by_class_L1D         0         0         0         0
@Sumon_Late_by_class_L1D         0         0         0         0

@Sumon_Early_by_cycle_L1D         0         0         0         0         0         0         0         0         0         0         0         0
@Sumon_Late_by_cycle_L1D         0         0         0         0         0         0
@Sumon_Early_stream_L1D         0         0         0         0         0         0         0         0         0         0         0         0
@Sumon_Early_CS_L1D         0         0         0         0         0         0         0         0         0         0         0         0
@Sumon_Early_CPLX_L1D         0         0         0         0         0         0         0         0         0         0         0         0
@Sumon_Late_stream_L1D         0         0         0         0         0         0
@Sumon_Late_CS_L1D         0         0         0         0         0         0
@Sumon_Late_CPLX_L1D         0         0         0         0         0         0
@sumon_overall_L2C    855929       303         0     24636    880572    925100    925100
@Sumon_Early_by_class_L2C         0         0         0         0
@Sumon_Late_by_class_L2C         0         0         0         0

@Sumon_Early_by_cycle_L2C     22672     31282     47400     41327     41368    245755    301672     99300      1870      4565      8145     10573
@Sumon_Late_by_cycle_L2C         7        28        61       138        69         0
@Sumon_Early_stream_L2C         0         0         0         0         0         0         0         0         0         0         0         0
@Sumon_Early_CS_L2C         0         0         0         0         0         0         0         0         0         0         0         0
@Sumon_Early_CPLX_L2C         0         0         0         0         0         0         0         0         0         0         0         0
@Sumon_Late_stream_L2C         0         0         0         0         0         0
@Sumon_Late_CS_L2C         0         0         0         0         0         0
@Sumon_Late_CPLX_L2C         0         0         0         0         0         0
DRAM PAGES: 1048576
Allocated PAGES: 30432
