
*** ChampSim Multicore Out-of-Order Simulator ***

Warmup Instructions: 50000000
Simulation Instructions: 50000000
Number of CPUs: 1
LLC sets: 2048
LLC ways: 16
Off-chip DRAM Size: 4096 MB Channels: 1 Width: 64-bit Data Rate: 6400 MT/s
CPU 0 runs ../../biswa/SPEC2017Traces/603.bwaves_s-2609B.champsimtrace.xz
.xz
CPU 0 Bimodal branch predictor
BTB has LRU replacement policy
ITLB has LRU replacement policy
DTLB has LRU replacement policy
STLB has LRU replacement policy
L1I has LRU replacement policy
L1D has LRU replacement policy
Bingo PHT WAYS: 16 and PHT_SIZE: 16384
Initialize DRRIP state for L2C
Initialize SRRIP state
epoch: 1000
next table: 2304
cur table: 10203
epoch: 1000
next table: 2085
cur table: 2304
epoch: 1000
next table: 2063
cur table: 2085
epoch: 1000
next table: 2060
cur table: 2063
epoch: 1000
next table: 2055
cur table: 2060
epoch: 1000
next table: 2082
cur table: 2055
epoch: 1000
next table: 2062
cur table: 2082
epoch: 1000
next table: 2061
cur table: 2062
epoch: 1000
next table: 2051
cur table: 2061
epoch: 1000
next table: 2062
cur table: 2051
epoch: 1000
next table: 2073
cur table: 2062
epoch: 1000
next table: 2057
cur table: 2073
epoch: 1000
next table: 2073
cur table: 2057
epoch: 1000
next table: 2047
cur table: 2073
epoch: 1000
next table: 2064
cur table: 2047
epoch: 1000
next table: 2068
cur table: 2064
epoch: 1000
next table: 1983
cur table: 2068
epoch: 1000
next table: 2149
cur table: 1983
epoch: 1000
next table: 2020
cur table: 2149
epoch: 1000
next table: 2040
cur table: 2020
epoch: 1000
next table: 1972
cur table: 2040
epoch: 1000
next table: 2085
cur table: 1972
epoch: 1000
next table: 2047
cur table: 2085
epoch: 1000
next table: 2048
cur table: 2047
epoch: 1000
next table: 2078
cur table: 2048
epoch: 1000
next table: 1252
cur table: 7939
epoch: 1000
next table: 2072
cur table: 2078
epoch: 1000
next table: 1193
cur table: 1252
epoch: 1000
next table: 2044
cur table: 2072
epoch: 1000
next table: 1165
cur table: 1193
epoch: 1000
next table: 2040
cur table: 2044
epoch: 1000
next table: 1167
cur table: 1165
epoch: 1000
next table: 2088
cur table: 2040
epoch: 1000
next table: 1163
cur table: 1167
epoch: 1000
next table: 2085
cur table: 2088
epoch: 1000
next table: 1143
cur table: 1163
epoch: 1000
next table: 2047
cur table: 2085
epoch: 1000
next table: 1157
cur table: 1143
epoch: 1000
next table: 2068
cur table: 2047
epoch: 1000
next table: 1156
cur table: 1157
epoch: 1000
next table: 2042
cur table: 2068
epoch: 1000
next table: 1161
cur table: 1156
epoch: 1000
next table: 2066
cur table: 2042
epoch: 1000
next table: 1166
cur table: 1161
epoch: 1000
next table: 2066
cur table: 2066
epoch: 1000
next table: 1154
cur table: 1166
epoch: 1000
next table: 2066
cur table: 2066
epoch: 1000
next table: 1150
cur table: 1154
epoch: 1000
next table: 2052
cur table: 2066
epoch: 1000
next table: 1140
cur table: 1150
epoch: 1000
next table: 2066
cur table: 2052
epoch: 1000
next table: 1173
cur table: 1140
epoch: 1000
next table: 2061
cur table: 2066
epoch: 1000
next table: 1142
cur table: 1173
epoch: 1000
next table: 2083
cur table: 2061
epoch: 1000
next table: 1153
cur table: 1142
epoch: 1000
next table: 2055
cur table: 2083
epoch: 1000
next table: 1165
cur table: 1153
epoch: 1000
next table: 2062
cur table: 2055
epoch: 1000
next table: 1178
cur table: 1165
epoch: 1000
next table: 2049
cur table: 2062
epoch: 1000
next table: 1148
cur table: 1178
epoch: 1000
next table: 2074
cur table: 2049
epoch: 1000
next table: 1150
cur table: 1148
epoch: 1000
next table: 2070
cur table: 2074
epoch: 1000
next table: 1155
cur table: 1150
epoch: 1000
next table: 2061
cur table: 2070
epoch: 1000
next table: 1153
cur table: 1155
epoch: 1000
next table: 2073
cur table: 2061
epoch: 1000
next table: 1167
cur table: 1153
epoch: 1000
next table: 2050
cur table: 2073
epoch: 1000
next table: 1167
cur table: 1167
epoch: 1000
next table: 2069
cur table: 2050
epoch: 1000
next table: 1162
cur table: 1167
epoch: 1000
next table: 2064
cur table: 2069
epoch: 1000
next table: 1156
cur table: 1162
epoch: 1000
next table: 2067
cur table: 2064
epoch: 1000
next table: 1165
cur table: 1156
epoch: 1000
next table: 1893
cur table: 2067
epoch: 1000
next table: 1158
cur table: 1165
epoch: 1000
next table: 2066
cur table: 1893
epoch: 1000
next table: 1158
cur table: 1158
epoch: 1000
next table: 2139
cur table: 2066
epoch: 1000
next table: 1147
cur table: 1158
epoch: 1000
next table: 1976
cur table: 2139
epoch: 1000
next table: 1147
cur table: 1147
epoch: 1000
next table: 2097
cur table: 1976
epoch: 1000
next table: 1154
cur table: 1147
epoch: 1000
next table: 2029
cur table: 2097
epoch: 1000
next table: 1158
cur table: 1154
epoch: 1000
next table: 2081
cur table: 2029
epoch: 1000
next table: 1167
cur table: 1158
epoch: 1000
next table: 2071
cur table: 2081
epoch: 1000
next table: 1163
cur table: 1167
epoch: 1000
next table: 2054
cur table: 2071
epoch: 1000
next table: 1167
cur table: 1163
epoch: 1000
next table: 2054
cur table: 2054
epoch: 1000
next table: 1171
cur table: 1167
epoch: 1000
next table: 2051
cur table: 2054
epoch: 1000
next table: 1153
cur table: 1171
epoch: 1000
next table: 2067
cur table: 2051
epoch: 1000
next table: 1169
cur table: 1153
epoch: 1000
next table: 2066
cur table: 2067
epoch: 1000
next table: 1139
cur table: 1169
epoch: 1000
next table: 2081
cur table: 2066
epoch: 1000
next table: 1170
cur table: 1139
epoch: 1000
next table: 2051
cur table: 2081
epoch: 1000
next table: 1165
cur table: 1170
epoch: 1000
next table: 2056
cur table: 2051
epoch: 1000
next table: 1166
cur table: 1165
epoch: 1000
next table: 2066
cur table: 2056
epoch: 1000
next table: 1167
cur table: 1166
epoch: 1000
next table: 2055
cur table: 2066
epoch: 1000
next table: 1142
cur table: 1167
epoch: 1000
next table: 2073
cur table: 2055
epoch: 1000
next table: 1161
cur table: 1142
epoch: 1000
next table: 2061
cur table: 2073
epoch: 1000
next table: 1172
cur table: 1161
epoch: 1000
next table: 2060
cur table: 2061
epoch: 1000
next table: 1168
cur table: 1172
epoch: 1000
next table: 2050
cur table: 2060
epoch: 1000
next table: 1161
cur table: 1168
epoch: 1000
next table: 2090
cur table: 2050
epoch: 1000
next table: 1158
cur table: 1161
epoch: 1000
next table: 2058
cur table: 2090
epoch: 1000
next table: 1156
cur table: 1158
epoch: 1000
next table: 2064
cur table: 2058
epoch: 1000
next table: 1168
cur table: 1156
epoch: 1000
next table: 2049
cur table: 2064
epoch: 1000
next table: 1178
cur table: 1168
epoch: 1000
next table: 2069
cur table: 2049
epoch: 1000
next table: 1156
cur table: 1178
epoch: 1000
next table: 2066
cur table: 2069
epoch: 1000
next table: 1180
cur table: 1156
epoch: 1000
next table: 2060
cur table: 2066
epoch: 1000
next table: 1153
cur table: 1180
epoch: 1000
next table: 2067
cur table: 2060
epoch: 1000
next table: 1163
cur table: 1153
epoch: 1000
next table: 2053
cur table: 2067
epoch: 1000
next table: 1176
cur table: 1163
epoch: 1000
next table: 2070
cur table: 2053
epoch: 1000
next table: 1166
cur table: 1176
epoch: 1000
next table: 2060
cur table: 2070
epoch: 1000
next table: 1151
cur table: 1166
epoch: 1000
next table: 2072
cur table: 2060
epoch: 1000
next table: 1146
cur table: 1151
epoch: 1000
next table: 2059
cur table: 2072
epoch: 1000
next table: 1156
cur table: 1146
epoch: 1000
next table: 2046
cur table: 2059
epoch: 1000
next table: 1160
cur table: 1156
epoch: 1000
next table: 2045
cur table: 2046
epoch: 1000
next table: 1168
cur table: 1160
epoch: 1000
next table: 2046
cur table: 2045
epoch: 1000
next table: 1182
cur table: 1168
epoch: 1000
next table: 2024
cur table: 2046
epoch: 1000
next table: 1133
cur table: 1182
epoch: 1000
next table: 1988
cur table: 2024
epoch: 1000
next table: 1167
cur table: 1133
epoch: 1000
next table: 2088
cur table: 1988
epoch: 1000
next table: 1165
cur table: 1167
epoch: 1000
next table: 2057
cur table: 2088
epoch: 1000
next table: 1148
cur table: 1165
epoch: 1000
next table: 2065
cur table: 2057
epoch: 1000
next table: 1153
cur table: 1148
epoch: 1000
next table: 2061
cur table: 2065
epoch: 1000
next table: 1141
cur table: 1153
epoch: 1000
next table: 2056
cur table: 2061
epoch: 1000
next table: 1152
cur table: 1141
epoch: 1000
next table: 2063
cur table: 2056
epoch: 1000
next table: 1167
cur table: 1152
epoch: 1000
next table: 2067
cur table: 2063
epoch: 1000
next table: 1165
cur table: 1167
epoch: 1000
next table: 2061
cur table: 2067
epoch: 1000
next table: 1165
cur table: 1165
epoch: 1000
next table: 2063
cur table: 2061
epoch: 1000
next table: 1155
cur table: 1165
epoch: 1000
next table: 2056
cur table: 2063
epoch: 1000
next table: 1149
cur table: 1155
epoch: 1000
next table: 2053
cur table: 2056
epoch: 1000
next table: 2090
cur table: 2053
epoch: 1000
next table: 1164
cur table: 1149
epoch: 1000
next table: 2056
cur table: 2090
epoch: 1000
next table: 1201
cur table: 1164
epoch: 1000
next table: 2047
cur table: 2056
epoch: 1000
next table: 1166
cur table: 1201
epoch: 1000
next table: 2052
cur table: 2047
epoch: 1000
next table: 1151
cur table: 1166
epoch: 1000
next table: 2058
cur table: 2052
epoch: 1000
next table: 1149
cur table: 1151
epoch: 1000
next table: 2076
cur table: 2058
epoch: 1000
next table: 1175
cur table: 1149
epoch: 1000
next table: 2063
cur table: 2076
epoch: 1000
next table: 1164
cur table: 1175
epoch: 1000
next table: 2068
cur table: 2063
epoch: 1000
next table: 1180
cur table: 1164
epoch: 1000
next table: 2047
cur table: 2068
epoch: 1000
next table: 1156
cur table: 1180
epoch: 1000
next table: 2073
cur table: 2047
epoch: 1000
next table: 1169
cur table: 1156
epoch: 1000
next table: 2075
cur table: 2073
epoch: 1000
next table: 1171
cur table: 1169
epoch: 1000
next table: 2049
cur table: 2075
epoch: 1000
next table: 1138
cur table: 1171
epoch: 1000
next table: 2072
cur table: 2049
epoch: 1000
next table: 1165
cur table: 1138
epoch: 1000
next table: 2045
cur table: 2072
epoch: 1000
next table: 1154
cur table: 1165
epoch: 1000
next table: 2070
cur table: 2045
epoch: 1000
next table: 1156
cur table: 1154
epoch: 1000
next table: 2064
cur table: 2070
epoch: 1000
next table: 1169
cur table: 1156
epoch: 1000
next table: 2066
cur table: 2064
epoch: 1000
next table: 1175
cur table: 1169
epoch: 1000
next table: 2065
cur table: 2066
epoch: 1000
next table: 1173
cur table: 1175
epoch: 1000
next table: 2012
cur table: 2065
epoch: 1000
next table: 1144
cur table: 1173
epoch: 1000
next table: 2081
cur table: 2012
epoch: 1000
next table: 1175
cur table: 1144
epoch: 1000
next table: 1962
cur table: 2081
epoch: 1000
next table: 1167
cur table: 1175
epoch: 1000
next table: 2037
cur table: 1962
epoch: 1000
next table: 1164
cur table: 1167
epoch: 1000
next table: 2050
cur table: 2037
epoch: 1000
next table: 1148
cur table: 1164
epoch: 1000
next table: 2066
cur table: 2050
epoch: 1000
next table: 1159
cur table: 1148
epoch: 1000
next table: 2071
cur table: 2066
epoch: 1000
next table: 1168
cur table: 1159
epoch: 1000
next table: 2094
cur table: 2071
epoch: 1000
next table: 1188
cur table: 1168
epoch: 1000
next table: 2054
cur table: 2094
epoch: 1000
next table: 1179
cur table: 1188
epoch: 1000
next table: 2052
cur table: 2054
epoch: 1000
next table: 1168
cur table: 1179
epoch: 1000
next table: 2061
cur table: 2052
epoch: 1000
next table: 1140
cur table: 1168
epoch: 1000
next table: 2069
cur table: 2061
epoch: 1000
next table: 1124
cur table: 1140
epoch: 1000
next table: 2057
cur table: 2069
epoch: 1000
next table: 1149
cur table: 1124
epoch: 1000
next table: 2058
cur table: 2057
epoch: 1000
next table: 1177
cur table: 1149
epoch: 1000
next table: 2060
cur table: 2058
epoch: 1000
next table: 1165
cur table: 1177
epoch: 1000
next table: 2071
cur table: 2060
epoch: 1000
next table: 1156
cur table: 1165
epoch: 1000
next table: 2079
cur table: 2071
epoch: 1000
next table: 1161
cur table: 1156
epoch: 1000
next table: 2055
cur table: 2079
epoch: 1000
next table: 1169
cur table: 1161
epoch: 1000
next table: 2061
cur table: 2055
epoch: 1000
next table: 1150
cur table: 1169
epoch: 1000
next table: 2047
cur table: 2061
epoch: 1000
next table: 1152
cur table: 1150
epoch: 1000
next table: 2065
cur table: 2047
epoch: 1000
next table: 1158
cur table: 1152
epoch: 1000
next table: 2074
cur table: 2065
epoch: 1000
next table: 1154
cur table: 1158
epoch: 1000
next table: 2062
cur table: 2074
epoch: 1000
next table: 1166
cur table: 1154
epoch: 1000
next table: 2055
cur table: 2062
epoch: 1000
next table: 1173
cur table: 1166
epoch: 1000
next table: 2057
cur table: 2055
epoch: 1000
next table: 1147
cur table: 1173
epoch: 1000
next table: 2066
cur table: 2057
epoch: 1000
next table: 1159
cur table: 1147
epoch: 1000
next table: 2068
cur table: 2066
epoch: 1000
next table: 1154
cur table: 1159
epoch: 1000
next table: 2072
cur table: 2068
epoch: 1000
next table: 1174
cur table: 1154
epoch: 1000
next table: 2058
cur table: 2072
epoch: 1000
next table: 1164
cur table: 1174
epoch: 1000
next table: 2051
cur table: 2058
epoch: 1000
next table: 1159
cur table: 1164
epoch: 1000
next table: 2067
cur table: 2051
epoch: 1000
next table: 1170
cur table: 1159
epoch: 1000
next table: 2063
cur table: 2067
epoch: 1000
next table: 1163
cur table: 1170
epoch: 1000
next table: 2076
cur table: 2063
epoch: 1000
next table: 1187
cur table: 1163
epoch: 1000
next table: 2065
cur table: 2076
epoch: 1000
next table: 1177
cur table: 1187
epoch: 1000
next table: 2058
cur table: 2065
epoch: 1000
next table: 1166
cur table: 1177
epoch: 1000
next table: 2068
cur table: 2058
epoch: 1000
next table: 1149
cur table: 1166
epoch: 1000
next table: 2055
cur table: 2068
epoch: 1000
next table: 1157
cur table: 1149
epoch: 1000
next table: 2077
cur table: 2055
epoch: 1000
next table: 1165
cur table: 1157
epoch: 1000
next table: 2050
cur table: 2077
epoch: 1000
next table: 1150
cur table: 1165
epoch: 1000
next table: 2052
cur table: 2050
epoch: 1000
next table: 1170
cur table: 1150
epoch: 1000
next table: 2041
cur table: 2052
epoch: 1000
next table: 1134
cur table: 1170
epoch: 1000
next table: 2106
cur table: 2041
epoch: 1000
next table: 1145
cur table: 1134
epoch: 1000
next table: 2070
cur table: 2106
epoch: 1000
next table: 1156
cur table: 1145
epoch: 1000
next table: 1913
cur table: 2070
epoch: 1000
next table: 1165
cur table: 1156
epoch: 1000
next table: 2159
cur table: 1913
epoch: 1000
next table: 1164
cur table: 1165
epoch: 1000
next table: 2041
cur table: 2159
epoch: 1000
next table: 1148
cur table: 1164
epoch: 1000
next table: 2110
cur table: 2041
epoch: 1000
next table: 1164
cur table: 1148
epoch: 1000
next table: 2097
cur table: 2110
epoch: 1000
next table: 1172
cur table: 1164
epoch: 1000
next table: 1889
cur table: 2097
epoch: 1000
next table: 1173
cur table: 1172
epoch: 1000
next table: 2074
cur table: 1889
epoch: 1000
next table: 1162
cur table: 1173
epoch: 1000
next table: 2079
cur table: 2074
epoch: 1000
next table: 1145
cur table: 1162
epoch: 1000
next table: 2067
cur table: 2079
epoch: 1000
next table: 1172
cur table: 1145
epoch: 1000
next table: 2063
cur table: 2067
epoch: 1000
next table: 1147
cur table: 1172
epoch: 1000
next table: 2047
cur table: 2063
epoch: 1000
next table: 1169
cur table: 1147
epoch: 1000
next table: 2062
cur table: 2047
epoch: 1000
next table: 1171
cur table: 1169
epoch: 1000
next table: 2070
cur table: 2062
epoch: 1000
next table: 1159
cur table: 1171
epoch: 1000
next table: 2055
cur table: 2070
epoch: 1000
next table: 1164
cur table: 1159
epoch: 1000
next table: 2053
cur table: 2055
epoch: 1000
next table: 1156
cur table: 1164
epoch: 1000
next table: 2049
cur table: 2053
epoch: 1000
next table: 1173
cur table: 1156
epoch: 1000
next table: 2065
cur table: 2049
epoch: 1000
next table: 1155
cur table: 1173
epoch: 1000
next table: 2092
cur table: 2065
epoch: 1000
next table: 1177
cur table: 1155
epoch: 1000
next table: 2056
cur table: 2092
epoch: 1000
next table: 1163
cur table: 1177
Heartbeat CPU 0 instructions: 10000001 cycles: 3311868 heartbeat IPC: 3.01944 cumulative IPC: 3.01944 (Simulation time: 0 hr 5 min 40 sec) 
epoch: 1000
next table: 2058
cur table: 2056
epoch: 1000
next table: 1175
cur table: 1163
epoch: 1000
next table: 2052
cur table: 2058
epoch: 1000
next table: 1163
cur table: 1175
epoch: 1000
next table: 2062
cur table: 2052
epoch: 1000
next table: 1159
cur table: 1163
epoch: 1000
next table: 2078
cur table: 2062
epoch: 1000
next table: 1166
cur table: 1159
epoch: 1000
next table: 2065
cur table: 2078
epoch: 1000
next table: 1154
cur table: 1166
epoch: 1000
next table: 2056
cur table: 2065
epoch: 1000
next table: 1149
cur table: 1154
epoch: 1000
next table: 2062
cur table: 2056
epoch: 1000
next table: 1156
cur table: 1149
epoch: 1000
next table: 2066
cur table: 2062
epoch: 1000
next table: 1155
cur table: 1156
epoch: 1000
next table: 2064
cur table: 2066
epoch: 1000
next table: 1133
cur table: 1155
epoch: 1000
next table: 2067
cur table: 2064
epoch: 1000
next table: 1168
cur table: 1133
epoch: 1000
next table: 2055
cur table: 2067
epoch: 1000
next table: 1175
cur table: 1168
epoch: 1000
next table: 2050
cur table: 2055
epoch: 1000
next table: 1146
cur table: 1175
epoch: 1000
next table: 2073
cur table: 2050
epoch: 1000
next table: 1158
cur table: 1146
epoch: 1000
next table: 2066
cur table: 2073
epoch: 1000
next table: 1161
cur table: 1158
epoch: 1000
next table: 2076
cur table: 2066
epoch: 1000
next table: 1142
cur table: 1161
epoch: 1000
next table: 2054
cur table: 2076
epoch: 1000
next table: 1171
cur table: 1142
epoch: 1000
next table: 2060
cur table: 2054
epoch: 1000
next table: 1157
cur table: 1171
epoch: 1000
next table: 2063
cur table: 2060
epoch: 1000
next table: 1152
cur table: 1157
epoch: 1000
next table: 2070
cur table: 2063
epoch: 1000
next table: 1175
cur table: 1152
epoch: 1000
next table: 2071
cur table: 2070
epoch: 1000
next table: 1164
cur table: 1175
epoch: 1000
next table: 1896
cur table: 2071
epoch: 1000
next table: 1169
cur table: 1164
epoch: 1000
next table: 2066
cur table: 1896
epoch: 1000
next table: 1169
cur table: 1169
epoch: 1000
next table: 2068
cur table: 2066
epoch: 1000
next table: 1161
cur table: 1169
epoch: 1000
next table: 2063
cur table: 2068
epoch: 1000
next table: 1146
cur table: 1161
epoch: 1000
next table: 2060
cur table: 2063
epoch: 1000
next table: 1156
cur table: 1146
epoch: 1000
next table: 2058
cur table: 2060
epoch: 1000
next table: 1169
cur table: 1156
epoch: 1000
next table: 2066
cur table: 2058
epoch: 1000
next table: 1141
cur table: 1169
epoch: 1000
next table: 2077
cur table: 2066
epoch: 1000
next table: 1162
cur table: 1141
epoch: 1000
next table: 2056
cur table: 2077
epoch: 1000
next table: 1147
cur table: 1162
epoch: 1000
next table: 2053
cur table: 2056
epoch: 1000
next table: 1179
cur table: 1147
epoch: 1000
next table: 2051
cur table: 2053
epoch: 1000
next table: 1143
cur table: 1179
epoch: 1000
next table: 2067
cur table: 2051
epoch: 1000
next table: 1161
cur table: 1143
epoch: 1000
next table: 2073
cur table: 2067
epoch: 1000
next table: 1158
cur table: 1161
epoch: 1000
next table: 2059
cur table: 2073
epoch: 1000
next table: 1155
cur table: 1158
epoch: 1000
next table: 2080
cur table: 2059
epoch: 1000
next table: 1165
cur table: 1155
epoch: 1000
next table: 2040
cur table: 2080
epoch: 1000
next table: 1167
cur table: 1165
epoch: 1000
next table: 2071
cur table: 2040
epoch: 1000
next table: 1159
cur table: 1167
epoch: 1000
next table: 2068
cur table: 2071
epoch: 1000
next table: 1147
cur table: 1159
epoch: 1000
next table: 2067
cur table: 2068
epoch: 1000
next table: 1159
cur table: 1147
epoch: 1000
next table: 2059
cur table: 2067
epoch: 1000
next table: 1164
cur table: 1159
epoch: 1000
next table: 2044
cur table: 2059
epoch: 1000
next table: 1139
cur table: 1164
epoch: 1000
next table: 2078
cur table: 2044
epoch: 1000
next table: 1155
cur table: 1139
epoch: 1000
next table: 2070
cur table: 2078
epoch: 1000
next table: 1143
cur table: 1155
epoch: 1000
next table: 2062
cur table: 2070
epoch: 1000
next table: 1154
cur table: 1143
epoch: 1000
next table: 2068
cur table: 2062
epoch: 1000
next table: 1156
cur table: 1154
epoch: 1000
next table: 2041
cur table: 2068
epoch: 1000
next table: 1171
cur table: 1156
epoch: 1000
next table: 2069
cur table: 2041
epoch: 1000
next table: 1181
cur table: 1171
epoch: 1000
next table: 2066
cur table: 2069
epoch: 1000
next table: 1150
cur table: 1181
epoch: 1000
next table: 2064
cur table: 2066
epoch: 1000
next table: 1158
cur table: 1150
epoch: 1000
next table: 2049
cur table: 2064
epoch: 1000
next table: 1150
cur table: 1158
epoch: 1000
next table: 2053
cur table: 2049
epoch: 1000
next table: 1159
cur table: 1150
epoch: 1000
next table: 2071
cur table: 2053
epoch: 1000
next table: 1139
cur table: 1159
epoch: 1000
next table: 2073
cur table: 2071
epoch: 1000
next table: 1155
cur table: 1139
epoch: 1000
next table: 2070
cur table: 2073
epoch: 1000
next table: 1153
cur table: 1155
epoch: 1000
next table: 2059
cur table: 2070
epoch: 1000
next table: 1169
cur table: 1153
epoch: 1000
next table: 2016
cur table: 2059
epoch: 1000
next table: 1157
cur table: 1169
epoch: 1000
next table: 2034
cur table: 2016
epoch: 1000
next table: 1150
cur table: 1157
epoch: 1000
next table: 1985
cur table: 2034
epoch: 1000
next table: 1172
cur table: 1150
epoch: 1000
next table: 2202
cur table: 1985
epoch: 1000
next table: 1163
cur table: 1172
epoch: 1000
next table: 1917
cur table: 2202
epoch: 1000
next table: 1187
cur table: 1163
epoch: 1000
next table: 2053
cur table: 1917
epoch: 1000
next table: 1156
cur table: 1187
epoch: 1000
next table: 2097
cur table: 2053
epoch: 1000
next table: 1160
cur table: 1156
epoch: 1000
next table: 2042
cur table: 2097
epoch: 1000
next table: 1156
cur table: 1160
epoch: 1000
next table: 2069
cur table: 2042
epoch: 1000
next table: 1182
cur table: 1156
epoch: 1000
next table: 2036
cur table: 2069
epoch: 1000
next table: 1170
cur table: 1182
epoch: 1000
next table: 2070
cur table: 2036
epoch: 1000
next table: 1151
cur table: 1170
epoch: 1000
next table: 2073
cur table: 2070
epoch: 1000
next table: 1158
cur table: 1151
epoch: 1000
next table: 2049
cur table: 2073
epoch: 1000
next table: 1164
cur table: 1158
epoch: 1000
next table: 2074
cur table: 2049
epoch: 1000
next table: 1154
cur table: 1164
epoch: 1000
next table: 2063
cur table: 2074
epoch: 1000
next table: 1178
cur table: 1154
epoch: 1000
next table: 2067
cur table: 2063
epoch: 1000
next table: 1157
cur table: 1178
epoch: 1000
next table: 2077
cur table: 2067
epoch: 1000
next table: 1144
cur table: 1157
epoch: 1000
next table: 2059
cur table: 2077
epoch: 1000
next table: 1155
cur table: 1144
epoch: 1000
next table: 2055
cur table: 2059
epoch: 1000
next table: 1149
cur table: 1155
epoch: 1000
next table: 2058
cur table: 2055
epoch: 1000
next table: 1140
cur table: 1149
epoch: 1000
next table: 2073
cur table: 2058
epoch: 1000
next table: 1171
cur table: 1140
epoch: 1000
next table: 2062
cur table: 2073
epoch: 1000
next table: 1167
cur table: 1171
epoch: 1000
next table: 2062
cur table: 2062
epoch: 1000
next table: 1144
cur table: 1167
epoch: 1000
next table: 2063
cur table: 2062
epoch: 1000
next table: 1165
cur table: 1144
epoch: 1000
next table: 2062
cur table: 2063
epoch: 1000
next table: 1156
cur table: 1165
epoch: 1000
next table: 2062
cur table: 2062
epoch: 1000
next table: 1153
cur table: 1156
epoch: 1000
next table: 2066
cur table: 2062
epoch: 1000
next table: 1170
cur table: 1153
epoch: 1000
next table: 2060
cur table: 2066
epoch: 1000
next table: 1140
cur table: 1170
epoch: 1000
next table: 2063
cur table: 2060
epoch: 1000
next table: 1162
cur table: 1140
epoch: 1000
next table: 2060
cur table: 2063
epoch: 1000
next table: 1151
cur table: 1162
epoch: 1000
next table: 2059
cur table: 2060
epoch: 1000
next table: 1161
cur table: 1151
epoch: 1000
next table: 2078
cur table: 2059
epoch: 1000
next table: 1159
cur table: 1161
epoch: 1000
next table: 2060
cur table: 2078
epoch: 1000
next table: 1147
cur table: 1159
epoch: 1000
next table: 2058
cur table: 2060
epoch: 1000
next table: 1152
cur table: 1147
epoch: 1000
next table: 2055
cur table: 2058
epoch: 1000
next table: 1172
cur table: 1152
epoch: 1000
next table: 2065
cur table: 2055
epoch: 1000
next table: 1191
cur table: 1172
epoch: 1000
next table: 2070
cur table: 2065
epoch: 1000
next table: 1177
cur table: 1191
epoch: 1000
next table: 2061
cur table: 2070
epoch: 1000
next table: 1152
cur table: 1177
epoch: 1000
next table: 1906
cur table: 2061
epoch: 1000
next table: 1149
cur table: 1152
epoch: 1000
next table: 2077
cur table: 1906
epoch: 1000
next table: 1162
cur table: 1149
epoch: 1000
next table: 2141
cur table: 2077
epoch: 1000
next table: 1158
cur table: 1162
epoch: 1000
next table: 2001
cur table: 2141
epoch: 1000
next table: 1178
cur table: 1158
epoch: 1000
next table: 2186
cur table: 2001
epoch: 1000
next table: 1151
cur table: 1178
epoch: 1000
next table: 1919
cur table: 2186
epoch: 1000
next table: 1156
cur table: 1151
epoch: 1000
next table: 2075
cur table: 1919
epoch: 1000
next table: 1161
cur table: 1156
epoch: 1000
next table: 2073
cur table: 2075
epoch: 1000
next table: 1154
cur table: 1161
epoch: 1000
next table: 2032
cur table: 2073
epoch: 1000
next table: 1139
cur table: 1154
epoch: 1000
next table: 2074
cur table: 2032
epoch: 1000
next table: 1165
cur table: 1139
epoch: 1000
next table: 2053
cur table: 2074
epoch: 1000
next table: 1162
cur table: 1165
epoch: 1000
next table: 2054
cur table: 2053
epoch: 1000
next table: 1165
cur table: 1162
epoch: 1000
next table: 2090
cur table: 2054
epoch: 1000
next table: 1171
cur table: 1165
epoch: 1000
next table: 2051
cur table: 2090
epoch: 1000
next table: 1175
cur table: 1171
epoch: 1000
next table: 2060
cur table: 2051
epoch: 1000
next table: 1147
cur table: 1175
epoch: 1000
next table: 2048
cur table: 2060
epoch: 1000
next table: 1164
cur table: 1147
epoch: 1000
next table: 2064
cur table: 2048
epoch: 1000
next table: 1170
cur table: 1164
epoch: 1000
next table: 2066
cur table: 2064
epoch: 1000
next table: 2061
cur table: 2066
epoch: 1000
next table: 1160
cur table: 1170
epoch: 1000
next table: 2055
cur table: 2061
epoch: 1000
next table: 1172
cur table: 1160
epoch: 1000
next table: 2050
cur table: 2055
epoch: 1000
next table: 1184
cur table: 1172
epoch: 1000
next table: 2082
cur table: 2050
epoch: 1000
next table: 1165
cur table: 1184
epoch: 1000
next table: 2064
cur table: 2082
epoch: 1000
next table: 1183
cur table: 1165
epoch: 1000
next table: 2069
cur table: 2064
epoch: 1000
next table: 1170
cur table: 1183
epoch: 1000
next table: 2058
cur table: 2069
epoch: 1000
next table: 1157
cur table: 1170
epoch: 1000
next table: 2051
cur table: 2058
epoch: 1000
next table: 1157
cur table: 1157
epoch: 1000
next table: 2068
cur table: 2051
epoch: 1000
next table: 1120
cur table: 1157
epoch: 1000
next table: 2069
cur table: 2068
epoch: 1000
next table: 1146
cur table: 1120
epoch: 1000
next table: 2076
cur table: 2069
epoch: 1000
next table: 1180
cur table: 1146
epoch: 1000
next table: 2054
cur table: 2076
epoch: 1000
next table: 1156
cur table: 1180
epoch: 1000
next table: 2056
cur table: 2054
epoch: 1000
next table: 1167
cur table: 1156
epoch: 1000
next table: 2065
cur table: 2056
epoch: 1000
next table: 1165
cur table: 1167
epoch: 1000
next table: 2070
cur table: 2065
epoch: 1000
next table: 1176
cur table: 1165
epoch: 1000
next table: 2065
cur table: 2070
epoch: 1000
next table: 1152
cur table: 1176
epoch: 1000
next table: 1888
cur table: 2065
epoch: 1000
next table: 1139
cur table: 1152
epoch: 1000
next table: 2065
cur table: 1888
epoch: 1000
next table: 1163
cur table: 1139
epoch: 1000
next table: 2080
cur table: 2065
epoch: 1000
next table: 1152
cur table: 1163
epoch: 1000
next table: 2046
cur table: 2080
epoch: 1000
next table: 1158
cur table: 1152
epoch: 1000
next table: 2085
cur table: 2046
epoch: 1000
next table: 1165
cur table: 1158
epoch: 1000
next table: 2046
cur table: 2085
epoch: 1000
next table: 1138
cur table: 1165
epoch: 1000
next table: 2075
cur table: 2046
epoch: 1000
next table: 1166
cur table: 1138
epoch: 1000
next table: 2049
cur table: 2075
epoch: 1000
next table: 1151
cur table: 1166
epoch: 1000
next table: 2075
cur table: 2049
epoch: 1000
next table: 1161
cur table: 1151
epoch: 1000
next table: 2058
cur table: 2075
epoch: 1000
next table: 1176
cur table: 1161
epoch: 1000
next table: 2040
cur table: 2058
epoch: 1000
next table: 1152
cur table: 1176
epoch: 1000
next table: 2073
cur table: 2040
epoch: 1000
next table: 1156
cur table: 1152
epoch: 1000
next table: 2065
cur table: 2073
epoch: 1000
next table: 1171
cur table: 1156
epoch: 1000
next table: 2059
cur table: 2065
epoch: 1000
next table: 1172
cur table: 1171
epoch: 1000
next table: 2077
cur table: 2059
epoch: 1000
next table: 1172
cur table: 1172
epoch: 1000
next table: 2060
cur table: 2077
epoch: 1000
next table: 1171
cur table: 1172
epoch: 1000
next table: 2062
cur table: 2060
epoch: 1000
next table: 1149
cur table: 1171
epoch: 1000
next table: 2071
cur table: 2062
epoch: 1000
next table: 1152
cur table: 1149
epoch: 1000
next table: 2068
cur table: 2071
epoch: 1000
next table: 1175
cur table: 1152
epoch: 1000
next table: 2050
cur table: 2068
epoch: 1000
next table: 1149
cur table: 1175
epoch: 1000
next table: 2061
cur table: 2050
epoch: 1000
next table: 1178
cur table: 1149
epoch: 1000
next table: 2049
cur table: 2061
epoch: 1000
next table: 1136
cur table: 1178
epoch: 1000
next table: 2074
cur table: 2049
epoch: 1000
next table: 1159
cur table: 1136
epoch: 1000
next table: 2073
cur table: 2074
epoch: 1000
next table: 1157
cur table: 1159
epoch: 1000
next table: 2072
cur table: 2073
epoch: 1000
next table: 1161
cur table: 1157
epoch: 1000
next table: 2053
cur table: 2072
epoch: 1000
next table: 1166
cur table: 1161
epoch: 1000
next table: 2064
cur table: 2053
epoch: 1000
next table: 1133
cur table: 1166
epoch: 1000
next table: 2067
cur table: 2064
epoch: 1000
next table: 1158
cur table: 1133
epoch: 1000
next table: 2064
cur table: 2067
epoch: 1000
next table: 1176
cur table: 1158
epoch: 1000
next table: 2061
cur table: 2064
epoch: 1000
next table: 1183
cur table: 1176
epoch: 1000
next table: 2054
cur table: 2061
epoch: 1000
next table: 1166
cur table: 1183
epoch: 1000
next table: 2069
cur table: 2054
epoch: 1000
next table: 1158
cur table: 1166
epoch: 1000
next table: 2071
cur table: 2069
epoch: 1000
next table: 1157
cur table: 1158
epoch: 1000
next table: 2053
cur table: 2071
epoch: 1000
next table: 1169
cur table: 1157
epoch: 1000
next table: 2064
cur table: 2053
epoch: 1000
next table: 1160
cur table: 1169
epoch: 1000
next table: 2050
cur table: 2064
epoch: 1000
next table: 1182
cur table: 1160
epoch: 1000
next table: 2058
cur table: 2050
epoch: 1000
next table: 1152
cur table: 1182
epoch: 1000
next table: 2087
cur table: 2058
epoch: 1000
next table: 1161
cur table: 1152
epoch: 1000
next table: 1905
cur table: 2087
epoch: 1000
next table: 1185
cur table: 1161
epoch: 1000
next table: 2057
cur table: 1905
epoch: 1000
next table: 1180
cur table: 1185
epoch: 1000
next table: 2068
cur table: 2057
epoch: 1000
next table: 1173
cur table: 1180
epoch: 1000
next table: 2089
cur table: 2068
epoch: 1000
next table: 1176
cur table: 1173
epoch: 1000
next table: 2043
cur table: 2089
epoch: 1000
next table: 1198
cur table: 1176
epoch: 1000
next table: 2066
cur table: 2043
epoch: 1000
next table: 1177
cur table: 1198
epoch: 1000
next table: 2050
cur table: 2066
epoch: 1000
next table: 1164
cur table: 1177
epoch: 1000
next table: 2055
cur table: 2050
epoch: 1000
next table: 2055
cur table: 2055
epoch: 1000
next table: 1196
cur table: 1164
epoch: 1000
next table: 2063
cur table: 2055
epoch: 1000
next table: 1176
cur table: 1196
epoch: 1000
next table: 2052
cur table: 2063
epoch: 1000
next table: 1155
cur table: 1176
epoch: 1000
next table: 2063
cur table: 2052
epoch: 1000
next table: 1162
cur table: 1155
epoch: 1000
next table: 2072
cur table: 2063
epoch: 1000
next table: 1172
cur table: 1162
epoch: 1000
next table: 2064
cur table: 2072
epoch: 1000
next table: 1140
cur table: 1172
epoch: 1000
next table: 2063
cur table: 2064
epoch: 1000
next table: 1174
cur table: 1140
epoch: 1000
next table: 2036
cur table: 2063
epoch: 1000
next table: 1190
cur table: 1174
epoch: 1000
next table: 2067
cur table: 2036
epoch: 1000
next table: 1160
cur table: 1190
epoch: 1000
next table: 1982
cur table: 2067
epoch: 1000
next table: 1179
cur table: 1160
epoch: 1000
next table: 2135
cur table: 1982
epoch: 1000
next table: 1169
cur table: 1179
epoch: 1000
next table: 2084
cur table: 2135
epoch: 1000
next table: 1189
cur table: 1169
epoch: 1000
next table: 1906
cur table: 2084
epoch: 1000
next table: 1184
cur table: 1189
epoch: 1000
next table: 2159
cur table: 1906
epoch: 1000
next table: 1193
cur table: 1184
epoch: 1000
next table: 1963
cur table: 2159
epoch: 1000
next table: 1142
cur table: 1193
epoch: 1000
next table: 2054
cur table: 1963
epoch: 1000
next table: 1151
cur table: 1142
epoch: 1000
next table: 2065
cur table: 2054
epoch: 1000
next table: 1188
cur table: 1151
epoch: 1000
next table: 2051
cur table: 2065
epoch: 1000
next table: 2042
cur table: 2051
epoch: 1000
next table: 1167
cur table: 1188
Heartbeat CPU 0 instructions: 20000003 cycles: 6623685 heartbeat IPC: 3.01949 cumulative IPC: 3.01947 (Simulation time: 0 hr 11 min 8 sec) 
epoch: 1000
next table: 2085
cur table: 2042
epoch: 1000
next table: 1168
cur table: 1167
epoch: 1000
next table: 2046
cur table: 2085
epoch: 1000
next table: 1150
cur table: 1168
epoch: 1000
next table: 2058
cur table: 2046
epoch: 1000
next table: 1157
cur table: 1150
epoch: 1000
next table: 2062
cur table: 2058
epoch: 1000
next table: 1158
cur table: 1157
epoch: 1000
next table: 2066
cur table: 2062
epoch: 1000
next table: 1184
cur table: 1158
epoch: 1000
next table: 2064
cur table: 2066
epoch: 1000
next table: 1165
cur table: 1184
epoch: 1000
next table: 2064
cur table: 2064
epoch: 1000
next table: 1167
cur table: 1165
epoch: 1000
next table: 2055
cur table: 2064
epoch: 1000
next table: 1174
cur table: 1167
epoch: 1000
next table: 2053
cur table: 2055
epoch: 1000
next table: 1142
cur table: 1174
epoch: 1000
next table: 2066
cur table: 2053
epoch: 1000
next table: 1157
cur table: 1142
epoch: 1000
next table: 2064
cur table: 2066
epoch: 1000
next table: 1139
cur table: 1157
epoch: 1000
next table: 2067
cur table: 2064
epoch: 1000
next table: 1148
cur table: 1139
epoch: 1000
next table: 2069
cur table: 2067
epoch: 1000
next table: 1159
cur table: 1148
epoch: 1000
next table: 2051
cur table: 2069
epoch: 1000
next table: 1181
cur table: 1159
epoch: 1000
next table: 2079
cur table: 2051
epoch: 1000
next table: 1156
cur table: 1181
epoch: 1000
next table: 2056
cur table: 2079
epoch: 1000
next table: 1172
cur table: 1156
epoch: 1000
next table: 2068
cur table: 2056
epoch: 1000
next table: 1170
cur table: 1172
epoch: 1000
next table: 1909
cur table: 2068
epoch: 1000
next table: 1154
cur table: 1170
epoch: 1000
next table: 2165
cur table: 1909
epoch: 1000
next table: 1161
cur table: 1154
epoch: 1000
next table: 2042
cur table: 2165
epoch: 1000
next table: 1178
cur table: 1161
epoch: 1000
next table: 2009
cur table: 2042
epoch: 1000
next table: 1179
cur table: 1178
epoch: 1000
next table: 2039
cur table: 2009
epoch: 1000
next table: 1149
cur table: 1179
epoch: 1000
next table: 2065
cur table: 2039
epoch: 1000
next table: 1152
cur table: 1149
epoch: 1000
next table: 2059
cur table: 2065
epoch: 1000
next table: 1146
cur table: 1152
epoch: 1000
next table: 2083
cur table: 2059
epoch: 1000
next table: 1171
cur table: 1146
epoch: 1000
next table: 2039
cur table: 2083
epoch: 1000
next table: 1170
cur table: 1171
epoch: 1000
next table: 2057
cur table: 2039
epoch: 1000
next table: 1150
cur table: 1170
epoch: 1000
next table: 2051
cur table: 2057
epoch: 1000
next table: 1170
cur table: 1150
epoch: 1000
next table: 2067
cur table: 2051
epoch: 1000
next table: 1151
cur table: 1170
epoch: 1000
next table: 2066
cur table: 2067
epoch: 1000
next table: 1174
cur table: 1151
epoch: 1000
next table: 2067
cur table: 2066
epoch: 1000
next table: 1164
cur table: 1174
epoch: 1000
next table: 2071
cur table: 2067
epoch: 1000
next table: 1173
cur table: 1164
epoch: 1000
next table: 2054
cur table: 2071
epoch: 1000
next table: 1154
cur table: 1173
epoch: 1000
next table: 2069
cur table: 2054
epoch: 1000
next table: 1153
cur table: 1154
epoch: 1000
next table: 2055
cur table: 2069
epoch: 1000
next table: 1171
cur table: 1153
epoch: 1000
next table: 2063
cur table: 2055
epoch: 1000
next table: 1155
cur table: 1171
epoch: 1000
next table: 2061
cur table: 2063
epoch: 1000
next table: 1163
cur table: 1155
epoch: 1000
next table: 2056
cur table: 2061
epoch: 1000
next table: 1159
cur table: 1163
epoch: 1000
next table: 2064
cur table: 2056
epoch: 1000
next table: 1172
cur table: 1159
epoch: 1000
next table: 2060
cur table: 2064
epoch: 1000
next table: 1165
cur table: 1172
epoch: 1000
next table: 2060
cur table: 2060
epoch: 1000
next table: 1168
cur table: 1165
epoch: 1000
next table: 2057
cur table: 2060
epoch: 1000
next table: 1148
cur table: 1168
epoch: 1000
next table: 2048
cur table: 2057
epoch: 1000
next table: 1160
cur table: 1148
epoch: 1000
next table: 2072
cur table: 2048
epoch: 1000
next table: 1194
cur table: 1160
epoch: 1000
next table: 2069
cur table: 2072
epoch: 1000
next table: 1168
cur table: 1194
epoch: 1000
next table: 2064
cur table: 2069
epoch: 1000
next table: 1172
cur table: 1168
epoch: 1000
next table: 1913
cur table: 2064
epoch: 1000
next table: 1139
cur table: 1172
epoch: 1000
next table: 2111
cur table: 1913
epoch: 1000
next table: 1158
cur table: 1139
epoch: 1000
next table: 2096
cur table: 2111
epoch: 1000
next table: 1152
cur table: 1158
epoch: 1000
next table: 2004
cur table: 2096
epoch: 1000
next table: 1165
cur table: 1152
epoch: 1000
next table: 2050
cur table: 2004
epoch: 1000
next table: 1172
cur table: 1165
epoch: 1000
next table: 2065
cur table: 2050
epoch: 1000
next table: 1158
cur table: 1172
epoch: 1000
next table: 2044
cur table: 2065
epoch: 1000
next table: 1158
cur table: 1158
epoch: 1000
next table: 2063
cur table: 2044
epoch: 1000
next table: 1133
cur table: 1158
epoch: 1000
next table: 2057
cur table: 2063
epoch: 1000
next table: 1173
cur table: 1133
epoch: 1000
next table: 2053
cur table: 2057
epoch: 1000
next table: 1156
cur table: 1173
epoch: 1000
next table: 2065
cur table: 2053
epoch: 1000
next table: 1165
cur table: 1156
epoch: 1000
next table: 2072
cur table: 2065
epoch: 1000
next table: 1149
cur table: 1165
epoch: 1000
next table: 2058
cur table: 2072
epoch: 1000
next table: 1145
cur table: 1149
epoch: 1000
next table: 2059
cur table: 2058
epoch: 1000
next table: 1148
cur table: 1145
epoch: 1000
next table: 2056
cur table: 2059
epoch: 1000
next table: 1169
cur table: 1148
epoch: 1000
next table: 2052
cur table: 2056
epoch: 1000
next table: 1162
cur table: 1169
epoch: 1000
next table: 2065
cur table: 2052
epoch: 1000
next table: 1141
cur table: 1162
epoch: 1000
next table: 2074
cur table: 2065
epoch: 1000
next table: 1162
cur table: 1141
epoch: 1000
next table: 2057
cur table: 2074
epoch: 1000
next table: 1166
cur table: 1162
epoch: 1000
next table: 2050
cur table: 2057
epoch: 1000
next table: 1161
cur table: 1166
epoch: 1000
next table: 2064
cur table: 2050
epoch: 1000
next table: 1159
cur table: 1161
epoch: 1000
next table: 2063
cur table: 2064
epoch: 1000
next table: 1174
cur table: 1159
epoch: 1000
next table: 2073
cur table: 2063
epoch: 1000
next table: 1165
cur table: 1174
epoch: 1000
next table: 2065
cur table: 2073
epoch: 1000
next table: 1179
cur table: 1165
epoch: 1000
next table: 2053
cur table: 2065
epoch: 1000
next table: 1162
cur table: 1179
epoch: 1000
next table: 2022
cur table: 2053
epoch: 1000
next table: 1177
cur table: 1162
epoch: 1000
next table: 2042
cur table: 2022
epoch: 1000
next table: 1156
cur table: 1177
epoch: 1000
next table: 2042
cur table: 2042
epoch: 1000
next table: 1147
cur table: 1156
epoch: 1000
next table: 2155
cur table: 2042
epoch: 1000
next table: 1157
cur table: 1147
epoch: 1000
next table: 1909
cur table: 2155
epoch: 1000
next table: 1153
cur table: 1157
epoch: 1000
next table: 2059
cur table: 1909
epoch: 1000
next table: 1161
cur table: 1153
epoch: 1000
next table: 2052
cur table: 2059
epoch: 1000
next table: 1166
cur table: 1161
epoch: 1000
next table: 2059
cur table: 2052
epoch: 1000
next table: 1153
cur table: 1166
epoch: 1000
next table: 2053
cur table: 2059
epoch: 1000
next table: 1165
cur table: 1153
epoch: 1000
next table: 2057
cur table: 2053
epoch: 1000
next table: 1168
cur table: 1165
epoch: 1000
next table: 2068
cur table: 2057
epoch: 1000
next table: 1195
cur table: 1168
epoch: 1000
next table: 2039
cur table: 2068
epoch: 1000
next table: 1161
cur table: 1195
epoch: 1000
next table: 2075
cur table: 2039
epoch: 1000
next table: 1165
cur table: 1161
epoch: 1000
next table: 2050
cur table: 2075
epoch: 1000
next table: 1151
cur table: 1165
epoch: 1000
next table: 2048
cur table: 2050
epoch: 1000
next table: 1171
cur table: 1151
epoch: 1000
next table: 2075
cur table: 2048
epoch: 1000
next table: 1165
cur table: 1171
epoch: 1000
next table: 2063
cur table: 2075
epoch: 1000
next table: 1156
cur table: 1165
epoch: 1000
next table: 2064
cur table: 2063
epoch: 1000
next table: 1156
cur table: 1156
epoch: 1000
next table: 2061
cur table: 2064
epoch: 1000
next table: 1158
cur table: 1156
epoch: 1000
next table: 2035
cur table: 2061
epoch: 1000
next table: 1178
cur table: 1158
epoch: 1000
next table: 2062
cur table: 2035
epoch: 1000
next table: 1145
cur table: 1178
epoch: 1000
next table: 1990
cur table: 2062
epoch: 1000
next table: 1146
cur table: 1145
epoch: 1000
next table: 2086
cur table: 1990
epoch: 1000
next table: 1164
cur table: 1146
epoch: 1000
next table: 1978
cur table: 2086
epoch: 1000
next table: 1162
cur table: 1164
epoch: 1000
next table: 2048
cur table: 1978
epoch: 1000
next table: 1168
cur table: 1162
epoch: 1000
next table: 2093
cur table: 2048
epoch: 1000
next table: 1192
cur table: 1168
epoch: 1000
next table: 2050
cur table: 2093
epoch: 1000
next table: 1160
cur table: 1192
epoch: 1000
next table: 2057
cur table: 2050
epoch: 1000
next table: 1151
cur table: 1160
epoch: 1000
next table: 2075
cur table: 2057
epoch: 1000
next table: 1168
cur table: 1151
epoch: 1000
next table: 2023
cur table: 2075
epoch: 1000
next table: 1167
cur table: 1168
epoch: 1000
next table: 2081
cur table: 2023
epoch: 1000
next table: 1166
cur table: 1167
epoch: 1000
next table: 2053
cur table: 2081
epoch: 1000
next table: 1151
cur table: 1166
epoch: 1000
next table: 2051
cur table: 2053
epoch: 1000
next table: 1152
cur table: 1151
epoch: 1000
next table: 2067
cur table: 2051
epoch: 1000
next table: 1163
cur table: 1152
epoch: 1000
next table: 2073
cur table: 2067
epoch: 1000
next table: 1176
cur table: 1163
epoch: 1000
next table: 2071
cur table: 2073
epoch: 1000
next table: 1159
cur table: 1176
epoch: 1000
next table: 2059
cur table: 2071
epoch: 1000
next table: 1167
cur table: 1159
epoch: 1000
next table: 2043
cur table: 2059
epoch: 1000
next table: 1166
cur table: 1167
epoch: 1000
next table: 2055
cur table: 2043
epoch: 1000
next table: 1152
cur table: 1166
epoch: 1000
next table: 2069
cur table: 2055
epoch: 1000
next table: 1158
cur table: 1152
epoch: 1000
next table: 2063
cur table: 2069
epoch: 1000
next table: 1164
cur table: 1158
epoch: 1000
next table: 2074
cur table: 2063
epoch: 1000
next table: 1156
cur table: 1164
epoch: 1000
next table: 2054
cur table: 2074
epoch: 1000
next table: 1162
cur table: 1156
epoch: 1000
next table: 2015
cur table: 2054
epoch: 1000
next table: 1172
cur table: 1162
epoch: 1000
next table: 2049
cur table: 2015
epoch: 1000
next table: 1170
cur table: 1172
epoch: 1000
next table: 2001
cur table: 2049
epoch: 1000
next table: 1152
cur table: 1170
epoch: 1000
next table: 2038
cur table: 2001
epoch: 1000
next table: 1156
cur table: 1152
epoch: 1000
next table: 2058
cur table: 2038
epoch: 1000
next table: 1154
cur table: 1156
epoch: 1000
next table: 2075
cur table: 2058
epoch: 1000
next table: 1187
cur table: 1154
epoch: 1000
next table: 2057
cur table: 2075
epoch: 1000
next table: 1149
cur table: 1187
epoch: 1000
next table: 2053
cur table: 2057
epoch: 1000
next table: 1157
cur table: 1149
epoch: 1000
next table: 2051
cur table: 2053
epoch: 1000
next table: 1139
cur table: 1157
epoch: 1000
next table: 2066
cur table: 2051
epoch: 1000
next table: 1159
cur table: 1139
epoch: 1000
next table: 2069
cur table: 2066
epoch: 1000
next table: 1182
cur table: 1159
epoch: 1000
next table: 2073
cur table: 2069
epoch: 1000
next table: 1175
cur table: 1182
epoch: 1000
next table: 2038
cur table: 2073
epoch: 1000
next table: 1165
cur table: 1175
epoch: 1000
next table: 2053
cur table: 2038
epoch: 1000
next table: 1164
cur table: 1165
epoch: 1000
next table: 2052
cur table: 2053
epoch: 1000
next table: 1155
cur table: 1164
epoch: 1000
next table: 2072
cur table: 2052
epoch: 1000
next table: 1171
cur table: 1155
epoch: 1000
next table: 2067
cur table: 2072
epoch: 1000
next table: 1162
cur table: 1171
epoch: 1000
next table: 2067
cur table: 2067
epoch: 1000
next table: 1159
cur table: 1162
epoch: 1000
next table: 2057
cur table: 2067
epoch: 1000
next table: 1154
cur table: 1159
epoch: 1000
next table: 2056
cur table: 2057
epoch: 1000
next table: 1160
cur table: 1154
epoch: 1000
next table: 2070
cur table: 2056
epoch: 1000
next table: 1161
cur table: 1160
epoch: 1000
next table: 2061
cur table: 2070
epoch: 1000
next table: 1162
cur table: 1161
epoch: 1000
next table: 2071
cur table: 2061
epoch: 1000
next table: 1146
cur table: 1162
epoch: 1000
next table: 2055
cur table: 2071
epoch: 1000
next table: 1155
cur table: 1146
epoch: 1000
next table: 2014
cur table: 2055
epoch: 1000
next table: 1155
cur table: 1155
epoch: 1000
next table: 2074
cur table: 2014
epoch: 1000
next table: 1131
cur table: 1155
epoch: 1000
next table: 1957
cur table: 2074
epoch: 1000
next table: 1165
cur table: 1131
epoch: 1000
next table: 2063
cur table: 1957
epoch: 1000
next table: 1154
cur table: 1165
epoch: 1000
next table: 2046
cur table: 2063
epoch: 1000
next table: 2062
cur table: 2046
epoch: 1000
next table: 1164
cur table: 1154
epoch: 1000
next table: 2060
cur table: 2062
epoch: 1000
next table: 1160
cur table: 1164
epoch: 1000
next table: 2065
cur table: 2060
epoch: 1000
next table: 1168
cur table: 1160
epoch: 1000
next table: 2056
cur table: 2065
epoch: 1000
next table: 1142
cur table: 1168
epoch: 1000
next table: 2050
cur table: 2056
epoch: 1000
next table: 1148
cur table: 1142
epoch: 1000
next table: 2065
cur table: 2050
epoch: 1000
next table: 1173
cur table: 1148
epoch: 1000
next table: 2070
cur table: 2065
epoch: 1000
next table: 1142
cur table: 1173
epoch: 1000
next table: 2070
cur table: 2070
epoch: 1000
next table: 1163
cur table: 1142
epoch: 1000
next table: 2061
cur table: 2070
epoch: 1000
next table: 1146
cur table: 1163
epoch: 1000
next table: 2056
cur table: 2061
epoch: 1000
next table: 1181
cur table: 1146
epoch: 1000
next table: 2068
cur table: 2056
epoch: 1000
next table: 1173
cur table: 1181
epoch: 1000
next table: 2056
cur table: 2068
epoch: 1000
next table: 1160
cur table: 1173
epoch: 1000
next table: 2067
cur table: 2056
epoch: 1000
next table: 1156
cur table: 1160
epoch: 1000
next table: 2057
cur table: 2067
epoch: 1000
next table: 1152
cur table: 1156
epoch: 1000
next table: 2060
cur table: 2057
epoch: 1000
next table: 1156
cur table: 1152
epoch: 1000
next table: 2062
cur table: 2060
epoch: 1000
next table: 1151
cur table: 1156
epoch: 1000
next table: 2069
cur table: 2062
epoch: 1000
next table: 1176
cur table: 1151
epoch: 1000
next table: 2057
cur table: 2069
epoch: 1000
next table: 1152
cur table: 1176
epoch: 1000
next table: 2067
cur table: 2057
epoch: 1000
next table: 1151
cur table: 1152
epoch: 1000
next table: 2052
cur table: 2067
epoch: 1000
next table: 1161
cur table: 1151
epoch: 1000
next table: 2069
cur table: 2052
epoch: 1000
next table: 1162
cur table: 1161
epoch: 1000
next table: 2070
cur table: 2069
epoch: 1000
next table: 1176
cur table: 1162
epoch: 1000
next table: 2056
cur table: 2070
epoch: 1000
next table: 1142
cur table: 1176
epoch: 1000
next table: 2064
cur table: 2056
epoch: 1000
next table: 1148
cur table: 1142
epoch: 1000
next table: 2052
cur table: 2064
epoch: 1000
next table: 1155
cur table: 1148
epoch: 1000
next table: 2042
cur table: 2052
epoch: 1000
next table: 1158
cur table: 1155
epoch: 1000
next table: 2056
cur table: 2042
epoch: 1000
next table: 1169
cur table: 1158
epoch: 1000
next table: 2107
cur table: 2056
epoch: 1000
next table: 1152
cur table: 1169
epoch: 1000
next table: 1909
cur table: 2107
epoch: 1000
next table: 1165
cur table: 1152
epoch: 1000
next table: 2052
cur table: 1909
epoch: 1000
next table: 1171
cur table: 1165
epoch: 1000
next table: 2081
cur table: 2052
epoch: 1000
next table: 1138
cur table: 1171
epoch: 1000
next table: 2079
cur table: 2081
epoch: 1000
next table: 1168
cur table: 1138
epoch: 1000
next table: 2034
cur table: 2079
epoch: 1000
next table: 1181
cur table: 1168
epoch: 1000
next table: 2049
cur table: 2034
epoch: 1000
next table: 1170
cur table: 1181
epoch: 1000
next table: 2094
cur table: 2049
epoch: 1000
next table: 1161
cur table: 1170
epoch: 1000
next table: 2061
cur table: 2094
epoch: 1000
next table: 1173
cur table: 1161
epoch: 1000
next table: 2063
cur table: 2061
epoch: 1000
next table: 1157
cur table: 1173
epoch: 1000
next table: 2047
cur table: 2063
epoch: 1000
next table: 1156
cur table: 1157
epoch: 1000
next table: 2067
cur table: 2047
epoch: 1000
next table: 1143
cur table: 1156
epoch: 1000
next table: 2065
cur table: 2067
epoch: 1000
next table: 1151
cur table: 1143
epoch: 1000
next table: 2055
cur table: 2065
epoch: 1000
next table: 1174
cur table: 1151
epoch: 1000
next table: 2063
cur table: 2055
epoch: 1000
next table: 1171
cur table: 1174
epoch: 1000
next table: 2046
cur table: 2063
epoch: 1000
next table: 1147
cur table: 1171
epoch: 1000
next table: 2074
cur table: 2046
epoch: 1000
next table: 1154
cur table: 1147
epoch: 1000
next table: 2051
cur table: 2074
epoch: 1000
next table: 1135
cur table: 1154
epoch: 1000
next table: 2080
cur table: 2051
epoch: 1000
next table: 1164
cur table: 1135
epoch: 1000
next table: 2061
cur table: 2080
epoch: 1000
next table: 1184
cur table: 1164
epoch: 1000
next table: 2057
cur table: 2061
epoch: 1000
next table: 1171
cur table: 1184
epoch: 1000
next table: 2049
cur table: 2057
epoch: 1000
next table: 1148
cur table: 1171
Heartbeat CPU 0 instructions: 30000001 cycles: 9936264 heartbeat IPC: 3.0188 cumulative IPC: 3.01924 (Simulation time: 0 hr 16 min 25 sec) 
epoch: 1000
next table: 2075
cur table: 2049
epoch: 1000
next table: 1183
cur table: 1148
epoch: 1000
next table: 2060
cur table: 2075
epoch: 1000
next table: 1156
cur table: 1183
epoch: 1000
next table: 2064
cur table: 2060
epoch: 1000
next table: 1164
cur table: 1156
epoch: 1000
next table: 2075
cur table: 2064
epoch: 1000
next table: 1177
cur table: 1164
epoch: 1000
next table: 2048
cur table: 2075
epoch: 1000
next table: 1142
cur table: 1177
epoch: 1000
next table: 2077
cur table: 2048
epoch: 1000
next table: 1160
cur table: 1142
epoch: 1000
next table: 2060
cur table: 2077
epoch: 1000
next table: 1150
cur table: 1160
epoch: 1000
next table: 2068
cur table: 2060
epoch: 1000
next table: 1157
cur table: 1150
epoch: 1000
next table: 2064
cur table: 2068
epoch: 1000
next table: 1161
cur table: 1157
epoch: 1000
next table: 2039
cur table: 2064
epoch: 1000
next table: 1151
cur table: 1161
epoch: 1000
next table: 2042
cur table: 2039
epoch: 1000
next table: 1166
cur table: 1151
epoch: 1000
next table: 1959
cur table: 2042
epoch: 1000
next table: 1164
cur table: 1166
epoch: 1000
next table: 2063
cur table: 1959
epoch: 1000
next table: 1164
cur table: 1164
epoch: 1000
next table: 2050
cur table: 2063
epoch: 1000
next table: 1171
cur table: 1164
epoch: 1000
next table: 2066
cur table: 2050
epoch: 1000
next table: 1143
cur table: 1171
epoch: 1000
next table: 2065
cur table: 2066
epoch: 1000
next table: 1164
cur table: 1143
epoch: 1000
next table: 2063
cur table: 2065
epoch: 1000
next table: 1174
cur table: 1164
epoch: 1000
next table: 2053
cur table: 2063
epoch: 1000
next table: 1168
cur table: 1174
epoch: 1000
next table: 2052
cur table: 2053
epoch: 1000
next table: 1150
cur table: 1168
epoch: 1000
next table: 2072
cur table: 2052
epoch: 1000
next table: 1161
cur table: 1150
epoch: 1000
next table: 2067
cur table: 2072
epoch: 1000
next table: 1146
cur table: 1161
epoch: 1000
next table: 2057
cur table: 2067
epoch: 1000
next table: 1165
cur table: 1146
epoch: 1000
next table: 2060
cur table: 2057
epoch: 1000
next table: 1169
cur table: 1165
epoch: 1000
next table: 2054
cur table: 2060
epoch: 1000
next table: 1157
cur table: 1169
epoch: 1000
next table: 2058
cur table: 2054
epoch: 1000
next table: 1160
cur table: 1157
epoch: 1000
next table: 2056
cur table: 2058
epoch: 1000
next table: 1125
cur table: 1160
epoch: 1000
next table: 2070
cur table: 2056
epoch: 1000
next table: 1167
cur table: 1125
epoch: 1000
next table: 2058
cur table: 2070
epoch: 1000
next table: 1172
cur table: 1167
epoch: 1000
next table: 2055
cur table: 2058
epoch: 1000
next table: 1175
cur table: 1172
epoch: 1000
next table: 2060
cur table: 2055
epoch: 1000
next table: 1151
cur table: 1175
epoch: 1000
next table: 2079
cur table: 2060
epoch: 1000
next table: 1152
cur table: 1151
epoch: 1000
next table: 2058
cur table: 2079
epoch: 1000
next table: 1155
cur table: 1152
epoch: 1000
next table: 2071
cur table: 2058
epoch: 1000
next table: 1171
cur table: 1155
epoch: 1000
next table: 2046
cur table: 2071
epoch: 1000
next table: 1160
cur table: 1171
epoch: 1000
next table: 2067
cur table: 2046
epoch: 1000
next table: 1163
cur table: 1160
epoch: 1000
next table: 2071
cur table: 2067
epoch: 1000
next table: 1156
cur table: 1163
epoch: 1000
next table: 2061
cur table: 2071
epoch: 1000
next table: 1166
cur table: 1156
epoch: 1000
next table: 2065
cur table: 2061
epoch: 1000
next table: 1168
cur table: 1166
epoch: 1000
next table: 2012
cur table: 2065
epoch: 1000
next table: 1145
cur table: 1168
epoch: 1000
next table: 2040
cur table: 2012
epoch: 1000
next table: 1172
cur table: 1145
epoch: 1000
next table: 2006
cur table: 2040
epoch: 1000
next table: 1140
cur table: 1172
epoch: 1000
next table: 2051
cur table: 2006
epoch: 1000
next table: 1151
cur table: 1140
epoch: 1000
next table: 2064
cur table: 2051
epoch: 1000
next table: 1171
cur table: 1151
epoch: 1000
next table: 2065
cur table: 2064
epoch: 1000
next table: 1149
cur table: 1171
epoch: 1000
next table: 2049
cur table: 2065
epoch: 1000
next table: 1145
cur table: 1149
epoch: 1000
next table: 2077
cur table: 2049
epoch: 1000
next table: 1165
cur table: 1145
epoch: 1000
next table: 2058
cur table: 2077
epoch: 1000
next table: 1168
cur table: 1165
epoch: 1000
next table: 2048
cur table: 2058
epoch: 1000
next table: 1169
cur table: 1168
epoch: 1000
next table: 2087
cur table: 2048
epoch: 1000
next table: 1158
cur table: 1169
epoch: 1000
next table: 2060
cur table: 2087
epoch: 1000
next table: 1179
cur table: 1158
epoch: 1000
next table: 2063
cur table: 2060
epoch: 1000
next table: 1159
cur table: 1179
epoch: 1000
next table: 2048
cur table: 2063
epoch: 1000
next table: 1148
cur table: 1159
epoch: 1000
next table: 2049
cur table: 2048
epoch: 1000
next table: 1148
cur table: 1148
epoch: 1000
next table: 2069
cur table: 2049
epoch: 1000
next table: 1160
cur table: 1148
epoch: 1000
next table: 2065
cur table: 2069
epoch: 1000
next table: 1161
cur table: 1160
epoch: 1000
next table: 2058
cur table: 2065
epoch: 1000
next table: 1141
cur table: 1161
epoch: 1000
next table: 2055
cur table: 2058
epoch: 1000
next table: 1173
cur table: 1141
epoch: 1000
next table: 2068
cur table: 2055
epoch: 1000
next table: 1157
cur table: 1173
epoch: 1000
next table: 2056
cur table: 2068
epoch: 1000
next table: 1153
cur table: 1157
epoch: 1000
next table: 2074
cur table: 2056
epoch: 1000
next table: 1166
cur table: 1153
epoch: 1000
next table: 2057
cur table: 2074
epoch: 1000
next table: 1166
cur table: 1166
epoch: 1000
next table: 2063
cur table: 2057
epoch: 1000
next table: 1172
cur table: 1166
epoch: 1000
next table: 2054
cur table: 2063
epoch: 1000
next table: 1160
cur table: 1172
epoch: 1000
next table: 2067
cur table: 2054
epoch: 1000
next table: 1152
cur table: 1160
epoch: 1000
next table: 2068
cur table: 2067
epoch: 1000
next table: 1154
cur table: 1152
epoch: 1000
next table: 2064
cur table: 2068
epoch: 1000
next table: 1176
cur table: 1154
epoch: 1000
next table: 2068
cur table: 2064
epoch: 1000
next table: 1162
cur table: 1176
epoch: 1000
next table: 2059
cur table: 2068
epoch: 1000
next table: 1151
cur table: 1162
epoch: 1000
next table: 2064
cur table: 2059
epoch: 1000
next table: 1193
cur table: 1151
epoch: 1000
next table: 2056
cur table: 2064
epoch: 1000
next table: 1166
cur table: 1193
epoch: 1000
next table: 1918
cur table: 2056
epoch: 1000
next table: 1144
cur table: 1166
epoch: 1000
next table: 2041
cur table: 1918
epoch: 1000
next table: 1165
cur table: 1144
epoch: 1000
next table: 2075
cur table: 2041
epoch: 1000
next table: 1179
cur table: 1165
epoch: 1000
next table: 2016
cur table: 2075
epoch: 1000
next table: 1165
cur table: 1179
epoch: 1000
next table: 2065
cur table: 2016
epoch: 1000
next table: 1174
cur table: 1165
epoch: 1000
next table: 2071
cur table: 2065
epoch: 1000
next table: 1157
cur table: 1174
epoch: 1000
next table: 2061
cur table: 2071
epoch: 1000
next table: 1162
cur table: 1157
epoch: 1000
next table: 2064
cur table: 2061
epoch: 1000
next table: 1167
cur table: 1162
epoch: 1000
next table: 2066
cur table: 2064
epoch: 1000
next table: 1183
cur table: 1167
epoch: 1000
next table: 2061
cur table: 2066
epoch: 1000
next table: 1168
cur table: 1183
epoch: 1000
next table: 2057
cur table: 2061
epoch: 1000
next table: 1151
cur table: 1168
epoch: 1000
next table: 2046
cur table: 2057
epoch: 1000
next table: 1137
cur table: 1151
epoch: 1000
next table: 2061
cur table: 2046
epoch: 1000
next table: 1158
cur table: 1137
epoch: 1000
next table: 2073
cur table: 2061
epoch: 1000
next table: 1179
cur table: 1158
epoch: 1000
next table: 2066
cur table: 2073
epoch: 1000
next table: 1160
cur table: 1179
epoch: 1000
next table: 2064
cur table: 2066
epoch: 1000
next table: 1164
cur table: 1160
epoch: 1000
next table: 2051
cur table: 2064
epoch: 1000
next table: 1165
cur table: 1164
epoch: 1000
next table: 2060
cur table: 2051
epoch: 1000
next table: 1163
cur table: 1165
epoch: 1000
next table: 2035
cur table: 2060
epoch: 1000
next table: 1160
cur table: 1163
epoch: 1000
next table: 2102
cur table: 2035
epoch: 1000
next table: 1165
cur table: 1160
epoch: 1000
next table: 1911
cur table: 2102
epoch: 1000
next table: 1165
cur table: 1165
epoch: 1000
next table: 2061
cur table: 1911
epoch: 1000
next table: 1162
cur table: 1165
epoch: 1000
next table: 2073
cur table: 2061
epoch: 1000
next table: 1159
cur table: 1162
epoch: 1000
next table: 2045
cur table: 2073
epoch: 1000
next table: 1151
cur table: 1159
epoch: 1000
next table: 2067
cur table: 2045
epoch: 1000
next table: 1151
cur table: 1151
epoch: 1000
next table: 2054
cur table: 2067
epoch: 1000
next table: 1145
cur table: 1151
epoch: 1000
next table: 2057
cur table: 2054
epoch: 1000
next table: 1156
cur table: 1145
epoch: 1000
next table: 2056
cur table: 2057
epoch: 1000
next table: 1170
cur table: 1156
epoch: 1000
next table: 2081
cur table: 2056
epoch: 1000
next table: 1165
cur table: 1170
epoch: 1000
next table: 2050
cur table: 2081
epoch: 1000
next table: 1153
cur table: 1165
epoch: 1000
next table: 2045
cur table: 2050
epoch: 1000
next table: 1140
cur table: 1153
epoch: 1000
next table: 2074
cur table: 2045
epoch: 1000
next table: 1158
cur table: 1140
epoch: 1000
next table: 2056
cur table: 2074
epoch: 1000
next table: 1162
cur table: 1158
epoch: 1000
next table: 2075
cur table: 2056
epoch: 1000
next table: 1165
cur table: 1162
epoch: 1000
next table: 2067
cur table: 2075
epoch: 1000
next table: 1162
cur table: 1165
epoch: 1000
next table: 2047
cur table: 2067
epoch: 1000
next table: 1168
cur table: 1162
epoch: 1000
next table: 2076
cur table: 2047
epoch: 1000
next table: 2044
cur table: 2076
epoch: 1000
next table: 1157
cur table: 1168
epoch: 1000
next table: 2072
cur table: 2044
epoch: 1000
next table: 1159
cur table: 1157
epoch: 1000
next table: 2063
cur table: 2072
epoch: 1000
next table: 1162
cur table: 1159
epoch: 1000
next table: 2056
cur table: 2063
epoch: 1000
next table: 1152
cur table: 1162
epoch: 1000
next table: 2061
cur table: 2056
epoch: 1000
next table: 1158
cur table: 1152
epoch: 1000
next table: 2066
cur table: 2061
epoch: 1000
next table: 1150
cur table: 1158
epoch: 1000
next table: 2071
cur table: 2066
epoch: 1000
next table: 1176
cur table: 1150
epoch: 1000
next table: 2008
cur table: 2071
epoch: 1000
next table: 1150
cur table: 1176
epoch: 1000
next table: 2080
cur table: 2008
epoch: 1000
next table: 1157
cur table: 1150
epoch: 1000
next table: 2059
cur table: 2080
epoch: 1000
next table: 1161
cur table: 1157
epoch: 1000
next table: 2023
cur table: 2059
epoch: 1000
next table: 1173
cur table: 1161
epoch: 1000
next table: 2144
cur table: 2023
epoch: 1000
next table: 1134
cur table: 1173
epoch: 1000
next table: 1916
cur table: 2144
epoch: 1000
next table: 1146
cur table: 1134
epoch: 1000
next table: 2049
cur table: 1916
epoch: 1000
next table: 1152
cur table: 1146
epoch: 1000
next table: 2064
cur table: 2049
epoch: 1000
next table: 1175
cur table: 1152
epoch: 1000
next table: 2067
cur table: 2064
epoch: 1000
next table: 1146
cur table: 1175
epoch: 1000
next table: 2083
cur table: 2067
epoch: 1000
next table: 1163
cur table: 1146
epoch: 1000
next table: 2040
cur table: 2083
epoch: 1000
next table: 1163
cur table: 1163
epoch: 1000
next table: 2076
cur table: 2040
epoch: 1000
next table: 1153
cur table: 1163
epoch: 1000
next table: 2056
cur table: 2076
epoch: 1000
next table: 1171
cur table: 1153
epoch: 1000
next table: 2057
cur table: 2056
epoch: 1000
next table: 1157
cur table: 1171
epoch: 1000
next table: 2060
cur table: 2057
epoch: 1000
next table: 1168
cur table: 1157
epoch: 1000
next table: 2058
cur table: 2060
epoch: 1000
next table: 1168
cur table: 1168
epoch: 1000
next table: 2070
cur table: 2058
epoch: 1000
next table: 1179
cur table: 1168
epoch: 1000
next table: 2083
cur table: 2070
epoch: 1000
next table: 1162
cur table: 1179
epoch: 1000
next table: 2059
cur table: 2083
epoch: 1000
next table: 1168
cur table: 1162
epoch: 1000
next table: 2060
cur table: 2059
epoch: 1000
next table: 1179
cur table: 1168
epoch: 1000
next table: 2040
cur table: 2060
epoch: 1000
next table: 1148
cur table: 1179
epoch: 1000
next table: 2073
cur table: 2040
epoch: 1000
next table: 1155
cur table: 1148
epoch: 1000
next table: 2059
cur table: 2073
epoch: 1000
next table: 1168
cur table: 1155
epoch: 1000
next table: 2073
cur table: 2059
epoch: 1000
next table: 1153
cur table: 1168
epoch: 1000
next table: 2059
cur table: 2073
epoch: 1000
next table: 1152
cur table: 1153
epoch: 1000
next table: 2048
cur table: 2059
epoch: 1000
next table: 1164
cur table: 1152
epoch: 1000
next table: 2073
cur table: 2048
epoch: 1000
next table: 1153
cur table: 1164
epoch: 1000
next table: 2063
cur table: 2073
epoch: 1000
next table: 1171
cur table: 1153
epoch: 1000
next table: 2062
cur table: 2063
epoch: 1000
next table: 1169
cur table: 1171
epoch: 1000
next table: 2048
cur table: 2062
epoch: 1000
next table: 1166
cur table: 1169
epoch: 1000
next table: 2061
cur table: 2048
epoch: 1000
next table: 1148
cur table: 1166
epoch: 1000
next table: 2067
cur table: 2061
epoch: 1000
next table: 1148
cur table: 1148
epoch: 1000
next table: 1995
cur table: 2067
epoch: 1000
next table: 1184
cur table: 1148
epoch: 1000
next table: 2138
cur table: 1995
epoch: 1000
next table: 1151
cur table: 1184
epoch: 1000
next table: 1985
cur table: 2138
epoch: 1000
next table: 1156
cur table: 1151
epoch: 1000
next table: 1982
cur table: 1985
epoch: 1000
next table: 1172
cur table: 1156
epoch: 1000
next table: 2081
cur table: 1982
epoch: 1000
next table: 1173
cur table: 1172
epoch: 1000
next table: 2057
cur table: 2081
epoch: 1000
next table: 1152
cur table: 1173
epoch: 1000
next table: 2067
cur table: 2057
epoch: 1000
next table: 2041
cur table: 2067
epoch: 1000
next table: 1164
cur table: 1152
epoch: 1000
next table: 2057
cur table: 2041
epoch: 1000
next table: 1153
cur table: 1164
epoch: 1000
next table: 2066
cur table: 2057
epoch: 1000
next table: 1176
cur table: 1153
epoch: 1000
next table: 2050
cur table: 2066
epoch: 1000
next table: 1142
cur table: 1176
epoch: 1000
next table: 2068
cur table: 2050
epoch: 1000
next table: 1156
cur table: 1142
epoch: 1000
next table: 2062
cur table: 2068
epoch: 1000
next table: 1159
cur table: 1156
epoch: 1000
next table: 2068
cur table: 2062
epoch: 1000
next table: 1170
cur table: 1159
epoch: 1000
next table: 2073
cur table: 2068
epoch: 1000
next table: 1164
cur table: 1170
epoch: 1000
next table: 2059
cur table: 2073
epoch: 1000
next table: 1150
cur table: 1164
epoch: 1000
next table: 2049
cur table: 2059
epoch: 1000
next table: 1157
cur table: 1150
epoch: 1000
next table: 2056
cur table: 2049
epoch: 1000
next table: 1161
cur table: 1157
epoch: 1000
next table: 2073
cur table: 2056
epoch: 1000
next table: 1172
cur table: 1161
epoch: 1000
next table: 2043
cur table: 2073
epoch: 1000
next table: 1177
cur table: 1172
epoch: 1000
next table: 2068
cur table: 2043
epoch: 1000
next table: 1183
cur table: 1177
epoch: 1000
next table: 2061
cur table: 2068
epoch: 1000
next table: 1170
cur table: 1183
epoch: 1000
next table: 2004
cur table: 2061
epoch: 1000
next table: 1176
cur table: 1170
epoch: 1000
next table: 2078
cur table: 2004
epoch: 1000
next table: 1155
cur table: 1176
epoch: 1000
next table: 2003
cur table: 2078
epoch: 1000
next table: 1176
cur table: 1155
epoch: 1000
next table: 1998
cur table: 2003
epoch: 1000
next table: 1164
cur table: 1176
epoch: 1000
next table: 2061
cur table: 1998
epoch: 1000
next table: 1143
cur table: 1164
epoch: 1000
next table: 2069
cur table: 2061
epoch: 1000
next table: 1145
cur table: 1143
epoch: 1000
next table: 2056
cur table: 2069
epoch: 1000
next table: 1184
cur table: 1145
epoch: 1000
next table: 2039
cur table: 2056
epoch: 1000
next table: 1169
cur table: 1184
epoch: 1000
next table: 2071
cur table: 2039
epoch: 1000
next table: 1151
cur table: 1169
epoch: 1000
next table: 2069
cur table: 2071
epoch: 1000
next table: 1158
cur table: 1151
epoch: 1000
next table: 2062
cur table: 2069
epoch: 1000
next table: 1156
cur table: 1158
epoch: 1000
next table: 2075
cur table: 2062
epoch: 1000
next table: 1163
cur table: 1156
epoch: 1000
next table: 2046
cur table: 2075
epoch: 1000
next table: 1174
cur table: 1163
epoch: 1000
next table: 2066
cur table: 2046
epoch: 1000
next table: 1164
cur table: 1174
epoch: 1000
next table: 2043
cur table: 2066
epoch: 1000
next table: 1166
cur table: 1164
epoch: 1000
next table: 2069
cur table: 2043
epoch: 1000
next table: 1157
cur table: 1166
epoch: 1000
next table: 2065
cur table: 2069
epoch: 1000
next table: 1163
cur table: 1157
epoch: 1000
next table: 2053
cur table: 2065
epoch: 1000
next table: 1166
cur table: 1163
epoch: 1000
next table: 2071
cur table: 2053
epoch: 1000
next table: 1168
cur table: 1166
epoch: 1000
next table: 2054
cur table: 2071
epoch: 1000
next table: 1150
cur table: 1168
epoch: 1000
next table: 2067
cur table: 2054
epoch: 1000
next table: 1164
cur table: 1150
epoch: 1000
next table: 2066
cur table: 2067
epoch: 1000
next table: 1152
cur table: 1164
epoch: 1000
next table: 2058
cur table: 2066
epoch: 1000
next table: 1169
cur table: 1152
epoch: 1000
next table: 2076
cur table: 2058
epoch: 1000
next table: 1152
cur table: 1169
Heartbeat CPU 0 instructions: 40000002 cycles: 13248462 heartbeat IPC: 3.01914 cumulative IPC: 3.01922 (Simulation time: 0 hr 22 min 2 sec) 
epoch: 1000
next table: 2055
cur table: 2076
epoch: 1000
next table: 1184
cur table: 1152
epoch: 1000
next table: 2027
cur table: 2055
epoch: 1000
next table: 1170
cur table: 1184
epoch: 1000
next table: 1957
cur table: 2027
epoch: 1000
next table: 1160
cur table: 1170
epoch: 1000
next table: 2065
cur table: 1957
epoch: 1000
next table: 1173
cur table: 1160
epoch: 1000
next table: 2047
cur table: 2065
epoch: 1000
next table: 1165
cur table: 1173
epoch: 1000
next table: 2072
cur table: 2047
epoch: 1000
next table: 1180
cur table: 1165
epoch: 1000
next table: 2037
cur table: 2072
epoch: 1000
next table: 1155
cur table: 1180
epoch: 1000
next table: 2071
cur table: 2037
epoch: 1000
next table: 1176
cur table: 1155
epoch: 1000
next table: 2052
cur table: 2071
epoch: 1000
next table: 1178
cur table: 1176
epoch: 1000
next table: 2051
cur table: 2052
epoch: 1000
next table: 1128
cur table: 1178
epoch: 1000
next table: 2070
cur table: 2051
epoch: 1000
next table: 1160
cur table: 1128
epoch: 1000
next table: 2052
cur table: 2070
epoch: 1000
next table: 1158
cur table: 1160
epoch: 1000
next table: 2079
cur table: 2052
epoch: 1000
next table: 1171
cur table: 1158
epoch: 1000
next table: 2070
cur table: 2079
epoch: 1000
next table: 1161
cur table: 1171
epoch: 1000
next table: 2053
cur table: 2070
epoch: 1000
next table: 1167
cur table: 1161
epoch: 1000
next table: 2065
cur table: 2053
epoch: 1000
next table: 1157
cur table: 1167
epoch: 1000
next table: 2064
cur table: 2065
epoch: 1000
next table: 1132
cur table: 1157
epoch: 1000
next table: 2070
cur table: 2064
epoch: 1000
next table: 1157
cur table: 1132
epoch: 1000
next table: 2062
cur table: 2070
epoch: 1000
next table: 1176
cur table: 1157
epoch: 1000
next table: 2061
cur table: 2062
epoch: 1000
next table: 1174
cur table: 1176
epoch: 1000
next table: 2055
cur table: 2061
epoch: 1000
next table: 1146
cur table: 1174
epoch: 1000
next table: 2082
cur table: 2055
epoch: 1000
next table: 1152
cur table: 1146
epoch: 1000
next table: 2069
cur table: 2082
epoch: 1000
next table: 1157
cur table: 1152
epoch: 1000
next table: 2040
cur table: 2069
epoch: 1000
next table: 1161
cur table: 1157
epoch: 1000
next table: 2063
cur table: 2040
epoch: 1000
next table: 1176
cur table: 1161
epoch: 1000
next table: 2062
cur table: 2063
epoch: 1000
next table: 1165
cur table: 1176
epoch: 1000
next table: 2063
cur table: 2062
epoch: 1000
next table: 1156
cur table: 1165
epoch: 1000
next table: 2067
cur table: 2063
epoch: 1000
next table: 1154
cur table: 1156
epoch: 1000
next table: 2056
cur table: 2067
epoch: 1000
next table: 1185
cur table: 1154
epoch: 1000
next table: 2048
cur table: 2056
epoch: 1000
next table: 1162
cur table: 1185
epoch: 1000
next table: 2048
cur table: 2048
epoch: 1000
next table: 1170
cur table: 1162
epoch: 1000
next table: 1957
cur table: 2048
epoch: 1000
next table: 1150
cur table: 1170
epoch: 1000
next table: 2211
cur table: 1957
epoch: 1000
next table: 1145
cur table: 1150
epoch: 1000
next table: 1903
cur table: 2211
epoch: 1000
next table: 1179
cur table: 1145
epoch: 1000
next table: 2053
cur table: 1903
epoch: 1000
next table: 1174
cur table: 1179
epoch: 1000
next table: 2057
cur table: 2053
epoch: 1000
next table: 1170
cur table: 1174
epoch: 1000
next table: 2064
cur table: 2057
epoch: 1000
next table: 1151
cur table: 1170
epoch: 1000
next table: 2052
cur table: 2064
epoch: 1000
next table: 1173
cur table: 1151
epoch: 1000
next table: 2047
cur table: 2052
epoch: 1000
next table: 1185
cur table: 1173
epoch: 1000
next table: 2060
cur table: 2047
epoch: 1000
next table: 1133
cur table: 1185
epoch: 1000
next table: 2092
cur table: 2060
epoch: 1000
next table: 1168
cur table: 1133
epoch: 1000
next table: 2053
cur table: 2092
epoch: 1000
next table: 1144
cur table: 1168
epoch: 1000
next table: 2064
cur table: 2053
epoch: 1000
next table: 1145
cur table: 1144
epoch: 1000
next table: 2052
cur table: 2064
epoch: 1000
next table: 1154
cur table: 1145
epoch: 1000
next table: 2076
cur table: 2052
epoch: 1000
next table: 1181
cur table: 1154
epoch: 1000
next table: 2058
cur table: 2076
epoch: 1000
next table: 1164
cur table: 1181
epoch: 1000
next table: 2055
cur table: 2058
epoch: 1000
next table: 1163
cur table: 1164
epoch: 1000
next table: 2062
cur table: 2055
epoch: 1000
next table: 1180
cur table: 1163
epoch: 1000
next table: 2052
cur table: 2062
epoch: 1000
next table: 1175
cur table: 1180
epoch: 1000
next table: 2055
cur table: 2052
epoch: 1000
next table: 1167
cur table: 1175
epoch: 1000
next table: 2065
cur table: 2055
epoch: 1000
next table: 1179
cur table: 1167
epoch: 1000
next table: 2059
cur table: 2065
epoch: 1000
next table: 1163
cur table: 1179
epoch: 1000
next table: 1958
cur table: 2059
epoch: 1000
next table: 1157
cur table: 1163
epoch: 1000
next table: 2032
cur table: 1958
epoch: 1000
next table: 1171
cur table: 1157
epoch: 1000
next table: 2114
cur table: 2032
epoch: 1000
next table: 1159
cur table: 1171
epoch: 1000
next table: 1994
cur table: 2114
epoch: 1000
next table: 1161
cur table: 1159
epoch: 1000
next table: 2068
cur table: 1994
epoch: 1000
next table: 1167
cur table: 1161
epoch: 1000
next table: 2041
cur table: 2068
epoch: 1000
next table: 1171
cur table: 1167
epoch: 1000
next table: 2084
cur table: 2041
epoch: 1000
next table: 1168
cur table: 1171
epoch: 1000
next table: 2068
cur table: 2084
epoch: 1000
next table: 1164
cur table: 1168
epoch: 1000
next table: 2054
cur table: 2068
epoch: 1000
next table: 1166
cur table: 1164
epoch: 1000
next table: 2056
cur table: 2054
epoch: 1000
next table: 1145
cur table: 1166
epoch: 1000
next table: 2049
cur table: 2056
epoch: 1000
next table: 1169
cur table: 1145
epoch: 1000
next table: 2065
cur table: 2049
epoch: 1000
next table: 1176
cur table: 1169
epoch: 1000
next table: 2063
cur table: 2065
epoch: 1000
next table: 1170
cur table: 1176
epoch: 1000
next table: 2054
cur table: 2063
epoch: 1000
next table: 1140
cur table: 1170
epoch: 1000
next table: 2058
cur table: 2054
epoch: 1000
next table: 1156
cur table: 1140
epoch: 1000
next table: 2061
cur table: 2058
epoch: 1000
next table: 1156
cur table: 1156
epoch: 1000
next table: 2077
cur table: 2061
epoch: 1000
next table: 1180
cur table: 1156
epoch: 1000
next table: 2055
cur table: 2077
epoch: 1000
next table: 1161
cur table: 1180
epoch: 1000
next table: 2070
cur table: 2055
epoch: 1000
next table: 1157
cur table: 1161
epoch: 1000
next table: 2050
cur table: 2070
epoch: 1000
next table: 1166
cur table: 1157
epoch: 1000
next table: 2071
cur table: 2050
epoch: 1000
next table: 1164
cur table: 1166
epoch: 1000
next table: 2062
cur table: 2071
epoch: 1000
next table: 1171
cur table: 1164
epoch: 1000
next table: 2055
cur table: 2062
epoch: 1000
next table: 2070
cur table: 2055
epoch: 1000
next table: 1166
cur table: 1171
epoch: 1000
next table: 1991
cur table: 2070
epoch: 1000
next table: 1147
cur table: 1166
epoch: 1000
next table: 2084
cur table: 1991
epoch: 1000
next table: 1178
cur table: 1147
epoch: 1000
next table: 2041
cur table: 2084
epoch: 1000
next table: 1160
cur table: 1178
epoch: 1000
next table: 1985
cur table: 2041
epoch: 1000
next table: 1149
cur table: 1160
epoch: 1000
next table: 2071
cur table: 1985
epoch: 1000
next table: 1156
cur table: 1149
epoch: 1000
next table: 2040
cur table: 2071
epoch: 1000
next table: 1153
cur table: 1156
epoch: 1000
next table: 2050
cur table: 2040
epoch: 1000
next table: 1148
cur table: 1153
epoch: 1000
next table: 2073
cur table: 2050
epoch: 1000
next table: 1151
cur table: 1148
epoch: 1000
next table: 2061
cur table: 2073
epoch: 1000
next table: 1150
cur table: 1151
epoch: 1000
next table: 2081
cur table: 2061
epoch: 1000
next table: 1152
cur table: 1150
epoch: 1000
next table: 2048
cur table: 2081
epoch: 1000
next table: 1175
cur table: 1152
epoch: 1000
next table: 2061
cur table: 2048
epoch: 1000
next table: 1147
cur table: 1175
epoch: 1000
next table: 2057
cur table: 2061
epoch: 1000
next table: 1154
cur table: 1147
epoch: 1000
next table: 2064
cur table: 2057
epoch: 1000
next table: 1163
cur table: 1154
epoch: 1000
next table: 2068
cur table: 2064
epoch: 1000
next table: 1162
cur table: 1163
epoch: 1000
next table: 2042
cur table: 2068
epoch: 1000
next table: 1149
cur table: 1162
epoch: 1000
next table: 2062
cur table: 2042
epoch: 1000
next table: 1138
cur table: 1149
epoch: 1000
next table: 2070
cur table: 2062
epoch: 1000
next table: 1168
cur table: 1138
epoch: 1000
next table: 2062
cur table: 2070
epoch: 1000
next table: 1150
cur table: 1168
epoch: 1000
next table: 2068
cur table: 2062
epoch: 1000
next table: 1187
cur table: 1150
epoch: 1000
next table: 2057
cur table: 2068
epoch: 1000
next table: 1166
cur table: 1187
epoch: 1000
next table: 2058
cur table: 2057
epoch: 1000
next table: 1154
cur table: 1166
epoch: 1000
next table: 2071
cur table: 2058
epoch: 1000
next table: 1164
cur table: 1154
epoch: 1000
next table: 2061
cur table: 2071
epoch: 1000
next table: 1177
cur table: 1164
epoch: 1000
next table: 2049
cur table: 2061
epoch: 1000
next table: 1162
cur table: 1177
epoch: 1000
next table: 2054
cur table: 2049
epoch: 1000
next table: 1161
cur table: 1162
epoch: 1000
next table: 2072
cur table: 2054
epoch: 1000
next table: 1145
cur table: 1161
epoch: 1000
next table: 2069
cur table: 2072
epoch: 1000
next table: 1155
cur table: 1145
epoch: 1000
next table: 2064
cur table: 2069
epoch: 1000
next table: 1144
cur table: 1155
epoch: 1000
next table: 1906
cur table: 2064
epoch: 1000
next table: 1151
cur table: 1144
epoch: 1000
next table: 2069
cur table: 1906
epoch: 1000
next table: 1146
cur table: 1151
epoch: 1000
next table: 2088
cur table: 2069
epoch: 1000
next table: 1171
cur table: 1146
epoch: 1000
next table: 2042
cur table: 2088
epoch: 1000
next table: 1154
cur table: 1171
epoch: 1000
next table: 2057
cur table: 2042
epoch: 1000
next table: 1126
cur table: 1154
epoch: 1000
next table: 2052
cur table: 2057
epoch: 1000
next table: 1157
cur table: 1126
epoch: 1000
next table: 2070
cur table: 2052
epoch: 1000
next table: 1145
cur table: 1157
epoch: 1000
next table: 2067
cur table: 2070
epoch: 1000
next table: 1165
cur table: 1145
epoch: 1000
next table: 2071
cur table: 2067
epoch: 1000
next table: 1153
cur table: 1165
epoch: 1000
next table: 2074
cur table: 2071
epoch: 1000
next table: 1171
cur table: 1153
epoch: 1000
next table: 2041
cur table: 2074
epoch: 1000
next table: 1148
cur table: 1171
epoch: 1000
next table: 2049
cur table: 2041
epoch: 1000
next table: 1173
cur table: 1148
epoch: 1000
next table: 2056
cur table: 2049
epoch: 1000
next table: 1159
cur table: 1173
epoch: 1000
next table: 2062
cur table: 2056
epoch: 1000
next table: 1156
cur table: 1159
epoch: 1000
next table: 2066
cur table: 2062
epoch: 1000
next table: 1184
cur table: 1156
epoch: 1000
next table: 2045
cur table: 2066
epoch: 1000
next table: 1143
cur table: 1184
epoch: 1000
next table: 2064
cur table: 2045
epoch: 1000
next table: 1184
cur table: 1143
epoch: 1000
next table: 2083
cur table: 2064
epoch: 1000
next table: 1164
cur table: 1184
epoch: 1000
next table: 2045
cur table: 2083
epoch: 1000
next table: 1158
cur table: 1164
epoch: 1000
next table: 2073
cur table: 2045
epoch: 1000
next table: 1166
cur table: 1158
epoch: 1000
next table: 2050
cur table: 2073
epoch: 1000
next table: 1160
cur table: 1166
epoch: 1000
next table: 2067
cur table: 2050
epoch: 1000
next table: 1177
cur table: 1160
epoch: 1000
next table: 1889
cur table: 2067
epoch: 1000
next table: 1147
cur table: 1177
epoch: 1000
next table: 2053
cur table: 1889
epoch: 1000
next table: 1170
cur table: 1147
epoch: 1000
next table: 2040
cur table: 2053
epoch: 1000
next table: 1153
cur table: 1170
epoch: 1000
next table: 2068
cur table: 2040
epoch: 1000
next table: 1149
cur table: 1153
epoch: 1000
next table: 2069
cur table: 2068
epoch: 1000
next table: 1166
cur table: 1149
epoch: 1000
next table: 2060
cur table: 2069
epoch: 1000
next table: 1158
cur table: 1166
epoch: 1000
next table: 2078
cur table: 2060
epoch: 1000
[...]
cur table: 1132
epoch: 1000
next table: 2202
cur table: 2275
epoch: 1000
next table: 1142
cur table: 1117
epoch: 1000
next table: 2353
cur table: 2202
epoch: 1000
next table: 1154
cur table: 1142
epoch: 1000
next table: 2084
cur table: 2353
epoch: 1000
next table: 1126
cur table: 1154
epoch: 1000
next table: 2222
cur table: 2084
epoch: 1000
next table: 1130
cur table: 1126
epoch: 1000
next table: 1983
cur table: 2222
epoch: 1000
next table: 1123
cur table: 1130
epoch: 1000
next table: 2087
cur table: 1983
epoch: 1000
next table: 1136
cur table: 1123
epoch: 1000
next table: 2290
cur table: 2087
epoch: 1000
next table: 1147
cur table: 1136
epoch: 1000
next table: 2305
cur table: 2290
epoch: 1000
next table: 1145
cur table: 1147
epoch: 1000
next table: 2538
cur table: 2305
epoch: 1000
next table: 1143
cur table: 1145
epoch: 1000
next table: 2058
cur table: 2538
epoch: 1000
next table: 1160
cur table: 1143
epoch: 1000
next table: 2152
cur table: 2058
epoch: 1000
next table: 1113
cur table: 1160
epoch: 1000
next table: 2181
cur table: 2152
epoch: 1000
next table: 1126
cur table: 1113
epoch: 1000
next table: 2240
cur table: 2181
epoch: 1000
next table: 1131
cur table: 1126
epoch: 1000
next table: 2206
cur table: 2240
epoch: 1000
next table: 1120
cur table: 1131
epoch: 1000
next table: 2225
cur table: 2206
epoch: 1000
next table: 1120
cur table: 1120
epoch: 1000
next table: 2158
cur table: 2225
epoch: 1000
next table: 1120
cur table: 1120
epoch: 1000
next table: 2386
cur table: 2158
epoch: 1000
next table: 1156
cur table: 1120
epoch: 1000
next table: 2100
cur table: 2386
epoch: 1000
next table: 1148
cur table: 1156
epoch: 1000
next table: 2174
cur table: 2100
epoch: 1000
next table: 1144
cur table: 1148
epoch: 1000
next table: 2150
cur table: 2174
epoch: 1000
next table: 1140
cur table: 1144
epoch: 1000
next table: 2064
cur table: 2150
epoch: 1000
next table: 1127
cur table: 1140
epoch: 1000
next table: 2253
cur table: 2064
epoch: 1000
next table: 1128
cur table: 1127
epoch: 1000
next table: 2218
cur table: 2253
epoch: 1000
next table: 1129
cur table: 1128
epoch: 1000
next table: 2145
cur table: 2218
epoch: 1000
next table: 1121
cur table: 1129
epoch: 1000
next table: 2185
cur table: 2145
epoch: 1000
next table: 1125
cur table: 1121
epoch: 1000
next table: 2169
cur table: 2185
epoch: 1000
next table: 1135
cur table: 1125
epoch: 1000
next table: 2314
cur table: 2169
epoch: 1000
next table: 1124
cur table: 1135
epoch: 1000
next table: 2400
cur table: 2314
epoch: 1000
next table: 1144
cur table: 1124
epoch: 1000
next table: 2070
cur table: 2400
epoch: 1000
next table: 1130
cur table: 1144
epoch: 1000
next table: 2276
cur table: 2070
epoch: 1000
next table: 1138
cur table: 1130
epoch: 1000
next table: 2081
cur table: 2276
epoch: 1000
next table: 1138
cur table: 1138
epoch: 1000
next table: 2188
cur table: 2081
epoch: 1000
next table: 1127
cur table: 1138
epoch: 1000
next table: 2136
cur table: 2188
epoch: 1000
next table: 1122
cur table: 1127
epoch: 1000
next table: 1989
cur table: 2136
epoch: 1000
next table: 1149
cur table: 1122
epoch: 1000
next table: 2199
cur table: 1989
epoch: 1000
next table: 1143
cur table: 1149
epoch: 1000
next table: 2104
cur table: 2199
epoch: 1000
next table: 1128
cur table: 1143
epoch: 1000
next table: 2102
cur table: 2104
epoch: 1000
next table: 1132
cur table: 1128
epoch: 1000
next table: 2164
cur table: 2102
Heartbeat CPU 0 instructions: 100000001 cycles: 72791173 heartbeat IPC: 0.887865 cumulative IPC: 0.88919 (Simulation time: 0 hr 54 min 39 sec) 
Finished CPU 0 instructions: 50000002 cycles: 56230975 cumulative IPC: 0.88919 (Simulation time: 0 hr 54 min 39 sec) 

ChampSim completed all CPUs

Region of Interest Statistics

CPU 0 cumulative IPC: 0.88919 instructions: 50000002 cycles: 56230975
ITLB TOTAL     ACCESS:    6356535  HIT:    6356535  MISS:          0  HIT %:        100  MISS %:          0   MPKI: 0
ITLB LOAD TRANSLATION ACCESS:    6356535  HIT:    6356535  MISS:          0  HIT %:        100  MISS %:          0   MPKI: 0
ITLB PREFETCH  REQUESTED:          0  ISSUED:          0  USEFUL:          0  USELESS:          0
ITLB USEFUL LOAD PREFETCHES:          0 PREFETCH ISSUED TO LOWER LEVEL:          0  ACCURACY: -nan
ITLB TIMELY PREFETCHES:          0 LATE PREFETCHES: 0 DROPPED PREFETCHES: 0
ITLB PREFETCHES SAME FILL-ORIGIN LEVEL: 0 DIFFERENT FILL-ORIGIN LEVEL: 0
ITLB AVERAGE MISS LATENCY: -nan cycles
ITLB RQ	ACCESS:    8463112	FORWARD:          0	MERGED:    2106577	TO_CACHE:    6356535

Revised Interactions: positive negative neutral
ITLB_interactions 0 0 0 -nan -nan -nan
DTLB TOTAL     ACCESS:   16798772  HIT:   16763043  MISS:      35729  HIT %:    99.7873  MISS %:   0.212688   MPKI: 0.71458
DTLB LOAD TRANSLATION ACCESS:   16798772  HIT:   16763043  MISS:      35729  HIT %:    99.7873  MISS %:   0.212688   MPKI: 0.71458
DTLB PREFETCH  REQUESTED:          0  ISSUED:          0  USEFUL:          0  USELESS:          0
DTLB USEFUL LOAD PREFETCHES:          0 PREFETCH ISSUED TO LOWER LEVEL:          0  ACCURACY: -nan
DTLB TIMELY PREFETCHES:          0 LATE PREFETCHES: 0 DROPPED PREFETCHES: 0
DTLB PREFETCHES SAME FILL-ORIGIN LEVEL: 0 DIFFERENT FILL-ORIGIN LEVEL: 0
DTLB AVERAGE MISS LATENCY: 215.246 cycles
DTLB RQ	ACCESS:   19383253	FORWARD:          0	MERGED:    2579743	TO_CACHE:   16803510

Revised Interactions: positive negative neutral
DTLB_interactions 0 0 0 -nan -nan -nan
STLB TOTAL     ACCESS:      35729  HIT:      20877  MISS:      14852  HIT %:    58.4315  MISS %:    41.5685   MPKI: 0.29704
STLB LOAD TRANSLATION ACCESS:      35729  HIT:      20877  MISS:      14852  HIT %:    58.4315  MISS %:    41.5685   MPKI: 0.29704
STLB PREFETCH  REQUESTED:          0  ISSUED:          0  USEFUL:          0  USELESS:          0
STLB USEFUL LOAD PREFETCHES:          0 PREFETCH ISSUED TO LOWER LEVEL:          0  ACCURACY: -nan
STLB TIMELY PREFETCHES:          0 LATE PREFETCHES: 0 DROPPED PREFETCHES: 0
STLB PREFETCHES SAME FILL-ORIGIN LEVEL: 0 DIFFERENT FILL-ORIGIN LEVEL: 0
STLB AVERAGE MISS LATENCY: 470.594 cycles
STLB RQ	ACCESS:      35729	FORWARD:          0	MERGED:          0	TO_CACHE:      35729

Revised Interactions: positive negative neutral
STLB_interactions 0 0 0 -nan -nan -nan
STLB Hit, L1D data hit: 0
STLB Hit, L2C data hit: 0
STLB Hit, LLC data hit: 0
STLB Hit, LLC data miss: 0
STLB STLB hints to L2: 0
L1D TOTAL     ACCESS:   19333606  HIT:   18334000  MISS:     999606  HIT %:    94.8297  MISS %:     5.1703   MPKI: 19.9921
L1D LOAD      ACCESS:   16522002  HIT:   15546758  MISS:     975244  HIT %:    94.0973  MISS %:     5.9027   MPKI: 19.5049
L1D RFO       ACCESS:    2811604  HIT:    2787242  MISS:      24362  HIT %:    99.1335  MISS %:    0.86648   MPKI: 0.48724
L1D PREFETCH  REQUESTED:          0  ISSUED:          0  USEFUL:          0  USELESS:          0
L1D USEFUL LOAD PREFETCHES:          0 PREFETCH ISSUED TO LOWER LEVEL:          0  ACCURACY: -nan
L1D TIMELY PREFETCHES:          0 LATE PREFETCHES: 0 DROPPED PREFETCHES: 0
L1D PREFETCHES SAME FILL-ORIGIN LEVEL: 0 DIFFERENT FILL-ORIGIN LEVEL: 0
L1D AVERAGE MISS LATENCY: 47.9396 cycles
L1D RQ	ACCESS:   21250087	FORWARD:          0	MERGED:    4616066	TO_CACHE:   16566594
L1D WQ	ACCESS:    2816716	FORWARD:      67427	MERGED:         57	TO_CACHE:    2816659

Revised Interactions: positive negative neutral
L1D_interactions 0 0 0 -nan -nan -nan
L1D UNIQUE REGIONS ACCESSED: 0
L1D REGIONS CONFLICTS: 0
L1D Cross Page Prefetch Requests: 0
L1D Same Page Prefetch Requests: 0
L1D ROI Sum of L1D PQ occupancy: 0
L1D PREFETCHES PUSHED FROM L2C: 0
L1I TOTAL     ACCESS:    8463112  HIT:    8463112  MISS:          0  HIT %:        100  MISS %:          0   MPKI: 0
L1I LOAD      ACCESS:    8463112  HIT:    8463112  MISS:          0  HIT %:        100  MISS %:          0   MPKI: 0
L1I PREFETCH  REQUESTED:          0  ISSUED:          0  USEFUL:          0  USELESS:          0
L1I USEFUL LOAD PREFETCHES:          0 PREFETCH ISSUED TO LOWER LEVEL:          0  ACCURACY: -nan
L1I TIMELY PREFETCHES:          0 LATE PREFETCHES: 0 DROPPED PREFETCHES: 0
L1I PREFETCHES SAME FILL-ORIGIN LEVEL: 0 DIFFERENT FILL-ORIGIN LEVEL: 0
L1I AVERAGE MISS LATENCY: -nan cycles
L1I RQ	ACCESS:   11737522	FORWARD:          0	MERGED:    3274410	TO_CACHE:    8463112

Revised Interactions: positive negative neutral
L1I_interactions 0 0 0 -nan -nan -nan
BTB TOTAL     ACCESS:    1208719  HIT:    1208714  MISS:          5  HIT %:    99.9996  MISS %: 0.000413661   MPKI: 0.0001
BTB BRANCH_DIRECT_JUMP	ACCESS:          0  HIT:          0  MISS:          0
BTB BRANCH_INDIRECT	ACCESS:          0  HIT:          0  MISS:          0
BTB BRANCH_CONDITIONAL	ACCESS:    1208719  HIT:    1208714  MISS:          5
BTB BRANCH_DIRECT_CALL	ACCESS:          0  HIT:          0  MISS:          0
BTB BRANCH_INDIRECT_CALL	ACCESS:          0  HIT:          0  MISS:          0
BTB BRANCH_RETURN	ACCESS:          0  HIT:          0  MISS:          0
BTB BRANCH_OTHER ACCESS:          0  HIT:          0  MISS:          0

L2C TOTAL     ACCESS:    1948364  HIT:     985387  MISS:     962977  HIT %:    50.5751  MISS %:    49.4249   MPKI: 19.2595
L2C LOAD      ACCESS:     975244  HIT:     858558  MISS:     116686  HIT %:    88.0352  MISS %:    11.9648   MPKI: 2.33372
L2C DATA LOAD MPKI: 2.33372
L2C INSTRUCTION LOAD MPKI: 0
L2C RFO       ACCESS:      24362  HIT:          0  MISS:      24362  HIT %:          0  MISS %:        100   MPKI: 0.48724
L2C PREFETCH  ACCESS:     909166  HIT:      91116  MISS:     818050  HIT %:    10.0219  MISS %:    89.9781   MPKI: 16.361
L2C DATA PREFETCH MPKI: 16.361
L2C INSTRUCTION PREFETCH MPKI: 0
L2C WRITEBACK ACCESS:      24738  HIT:      22929  MISS:       1809  HIT %:    92.6874  MISS %:    7.31264   MPKI: 0.03618
L2C LOAD TRANSLATION ACCESS:      14854  HIT:      12784  MISS:       2070  HIT %:    86.0644  MISS %:    13.9356   MPKI: 0.0414
L2C PREFETCH  REQUESTED:     929984  ISSUED:     929984  USEFUL:     809558  USELESS:       8510
L2C USEFUL LOAD PREFETCHES:     809558 PREFETCH ISSUED TO LOWER LEVEL:     833274  ACCURACY: 97.1539
L2C TIMELY PREFETCHES:     809558 LATE PREFETCHES: 15204 DROPPED PREFETCHES: 0
L2C PREFETCHES SAME FILL-ORIGIN LEVEL: 833274 DIFFERENT FILL-ORIGIN LEVEL: 0
L2C AVERAGE MISS LATENCY: 188.437 cycles
L2C RQ	ACCESS:    1014461	FORWARD:          0	MERGED:          0	TO_CACHE:    1014461
L2C WQ	ACCESS:      24738	FORWARD:          0	MERGED:          0	TO_CACHE:      24738
L2C PQ	ACCESS:     929984	FORWARD:          0	MERGED:          0	TO_CACHE:     929984

Revised Interactions: positive negative neutral
L2C_interactions 807727 2111 7878 98.7784 0.258158 0.963415
L2C Instructions Evicting Data 0
L2C Translations Evicting Data 2069
L2C Data Evicting Data 957036
L2C Instructions Evicting Instructions 0
L2C Translations Evicting Instructions 0
L2C Data Evicting Instructions 0
L2C Instructions Evicting Translations 0
L2C Translations Evicting Translations 1
L2C Data Evicting Translations 2062
L2C Dense regions hint from L2: 0
PSCL5 TOTAL     ACCESS:      14852  HIT:      14852  MISS:          0  HIT %:        100  MISS %:          0   MPKI: 0
PSCL5 LOAD TRANSLATION ACCESS:      14852  HIT:      14852  MISS:          0  HIT %:        100  MISS %:          0   MPKI: 0
PSCL5 PREFETCH  REQUESTED:          0  ISSUED:          0  USEFUL:          0  USELESS:          0
PSCL5 USEFUL LOAD PREFETCHES:          0 PREFETCH ISSUED TO LOWER LEVEL:          0  ACCURACY: -nan
PSCL5 TIMELY PREFETCHES:          0 LATE PREFETCHES: 0 DROPPED PREFETCHES: 0
PSCL5 PREFETCHES SAME FILL-ORIGIN LEVEL: 0 DIFFERENT FILL-ORIGIN LEVEL: 0

Revised Interactions: positive negative neutral
PSCL5_interactions 0 0 0 -nan -nan -nan
PSCL4 TOTAL     ACCESS:      14852  HIT:      14852  MISS:          0  HIT %:        100  MISS %:          0   MPKI: 0
PSCL4 LOAD TRANSLATION ACCESS:      14852  HIT:      14852  MISS:          0  HIT %:        100  MISS %:          0   MPKI: 0
PSCL4 PREFETCH  REQUESTED:          0  ISSUED:          0  USEFUL:          0  USELESS:          0
PSCL4 USEFUL LOAD PREFETCHES:          0 PREFETCH ISSUED TO LOWER LEVEL:          0  ACCURACY: -nan
PSCL4 TIMELY PREFETCHES:          0 LATE PREFETCHES: 0 DROPPED PREFETCHES: 0
PSCL4 PREFETCHES SAME FILL-ORIGIN LEVEL: 0 DIFFERENT FILL-ORIGIN LEVEL: 0

Revised Interactions: positive negative neutral
PSCL4_interactions 0 0 0 -nan -nan -nan
PSCL3 TOTAL     ACCESS:      14852  HIT:      14852  MISS:          0  HIT %:        100  MISS %:          0   MPKI: 0
PSCL3 LOAD TRANSLATION ACCESS:      14852  HIT:      14852  MISS:          0  HIT %:        100  MISS %:          0   MPKI: 0
PSCL3 PREFETCH  REQUESTED:          0  ISSUED:          0  USEFUL:          0  USELESS:          0
PSCL3 USEFUL LOAD PREFETCHES:          0 PREFETCH ISSUED TO LOWER LEVEL:          0  ACCURACY: -nan
PSCL3 TIMELY PREFETCHES:          0 LATE PREFETCHES: 0 DROPPED PREFETCHES: 0
PSCL3 PREFETCHES SAME FILL-ORIGIN LEVEL: 0 DIFFERENT FILL-ORIGIN LEVEL: 0

Revised Interactions: positive negative neutral
PSCL3_interactions 0 0 0 -nan -nan -nan
PSCL2 TOTAL     ACCESS:      14852  HIT:      14821  MISS:         31  HIT %:    99.7913  MISS %:   0.208726   MPKI: 0.00062
PSCL2 LOAD TRANSLATION ACCESS:      14852  HIT:      14821  MISS:         31  HIT %:    99.7913  MISS %:   0.208726   MPKI: 0.00062
PSCL2 PREFETCH  REQUESTED:          0  ISSUED:          0  USEFUL:          0  USELESS:          0
PSCL2 USEFUL LOAD PREFETCHES:          0 PREFETCH ISSUED TO LOWER LEVEL:          0  ACCURACY: -nan
PSCL2 TIMELY PREFETCHES:          0 LATE PREFETCHES: 0 DROPPED PREFETCHES: 0
PSCL2 PREFETCHES SAME FILL-ORIGIN LEVEL: 0 DIFFERENT FILL-ORIGIN LEVEL: 0

Revised Interactions: positive negative neutral
PSCL2_interactions 0 0 0 -nan -nan -nan
LLC TOTAL     ACCESS:     985620  HIT:       8434  MISS:     977186  HIT %:   0.855705  MISS %:    99.1443   MPKI: 19.5437
LLC LOAD      ACCESS:     101482  HIT:       1491  MISS:      99991  HIT %:    1.46923  MISS %:    98.5308   MPKI: 1.99982
LLC RFO       ACCESS:      24362  HIT:          0  MISS:      24362  HIT %:          0  MISS %:        100   MPKI: 0.48724
LLC PREFETCH  ACCESS:     833254  HIT:       6230  MISS:     827024  HIT %:   0.747671  MISS %:    99.2523   MPKI: 16.5405
LLC WRITEBACK ACCESS:      24452  HIT:        497  MISS:      23955  HIT %:    2.03255  MISS %:    97.9674   MPKI: 0.4791
LLC LOAD TRANSLATION ACCESS:       2070  HIT:        216  MISS:       1854  HIT %:    10.4348  MISS %:    89.5652   MPKI: 0.03708
LLC PREFETCH  REQUESTED:          0  ISSUED:          0  USEFUL:        424  USELESS:     827083
LLC USEFUL LOAD PREFETCHES:        424 PREFETCH ISSUED TO LOWER LEVEL:     827044  ACCURACY: 0.0512669
LLC TIMELY PREFETCHES:        424 LATE PREFETCHES: 0 DROPPED PREFETCHES: 0
LLC PREFETCHES SAME FILL-ORIGIN LEVEL: 0 DIFFERENT FILL-ORIGIN LEVEL: 0
LLC AVERAGE MISS LATENCY: 154.123 cycles
LLC RQ	ACCESS:     127915	FORWARD:          0	MERGED:          0	TO_CACHE:     127915
LLC WQ	ACCESS:      24452	FORWARD:          0	MERGED:          0	TO_CACHE:      24452
LLC PQ	ACCESS:     833274	FORWARD:          0	MERGED:          0	TO_CACHE:     833274

Revised Interactions: positive negative neutral
LLC_interactions 947 825076 66348 0.106122 92.4589 7.43502
LLC Dense regions hint to LLC: 0

RAW hits: 239941
Loads Generated: 21490028
Loads sent to L1D: 21250087
Stores Generated: 2816716
Stores sent to L1D: 2816716
Major fault: 0 Minor fault: 28543
Allocated PAGES: 28543
[Bingo] PHT Access: 35215
[Bingo] PHT Hit PC+Addr: 339
[Bingo] PHT Hit PC+Offs: 34795
[Bingo] PHT Miss: 81
[Bingo] Prefetch PC+Addr: 0
[Bingo] Prefetch PC+Offs: 0
[Bingo] Useful PC+Addr: 0
[Bingo] Useful PC+Offs: 0
[Bingo] Useless PC+Addr: 0
[Bingo] Useless PC+Offs: 0
[Bingo] L1 Prefetch per Region: 0
[Bingo] L2 Prefetch per Region: 29.8814
[Bingo] L3 Prefetch per Region: 0
[Bingo] No Prefetch per Region: 2.1186
[Bingo] Number of Voters Mean: 15.6551
[Bingo] Number of Voters SD: 15.2204
PHT read accesses: 551353
PHT write accesses: 33814
AT read accesses: 962165
AT write accesses: 973847
FT read accesses: 102849
FT write accesses: 35215
PS read accesses: 290628
PS write accesses: 35134
PHT tag read accesses: 1632278
PHT tag write accesses: 34153
AT tag read accesses: 32467931
AT tag write accesses: 995982
FT tag read accesses: 17665729
FT tag write accesses: 104247
PS tag read accesses: 16742276
PS tag write accesses: 324288

DRAM Statistics
 CHANNEL 0
 RQ ROW_BUFFER_HIT:     789595  ROW_BUFFER_MISS:     163644
 DBUS_CONGESTED:        185
 WQ ROW_BUFFER_HIT:       4726  ROW_BUFFER_MISS:      19760  FULL:          0

 AVG_CONGESTED_CYCLE: 3
 All warmup complete: 2
Channel 0 Bank busy for read cycles: 0
Channel 0 Bank busy for write cycles: 0
Channel 0
Rank 0
0banks busy for read cycles: 39871364
0banks busy for write cycles: 6182
1banks busy for read cycles: 5312849
1banks busy for write cycles: 497033
2banks busy for read cycles: 1415284
2banks busy for write cycles: 199384
3banks busy for read cycles: 807187
3banks busy for write cycles: 130416
4banks busy for read cycles: 655123
4banks busy for write cycles: 98399
5banks busy for read cycles: 706966
5banks busy for write cycles: 82682
6banks busy for read cycles: 658733
6banks busy for write cycles: 69957
7banks busy for read cycles: 1172911
7banks busy for write cycles: 62509
8banks busy for read cycles: 4394832
8banks busy for write cycles: 89165

CPU 0 Branch Prediction Accuracy: 81.2317% MPKI: 4.6848 Average ROB Occupancy at Mispredict: 52.7866
Branch types
NOT_BRANCH: 48751635 97.5033%
BRANCH_DIRECT_JUMP: 0 0%
BRANCH_INDIRECT: 0 0%
BRANCH_CONDITIONAL: 1248064 2.49613%
BRANCH_DIRECT_CALL: 0 0%
BRANCH_INDIRECT_CALL: 0 0%
BRANCH_RETURN: 0 0%
BRANCH_OTHER: 0 0%

@sumon_overall_L1D         0         0         0         0         0         0         0
@Sumon_Early_by_class_L1D         0         0         0         0
@Sumon_Late_by_class_L1D         0         0         0         0

@Sumon_Early_by_cycle_L1D         0         0         0         0         0         0         0         0         0         0         0         0
@Sumon_Late_by_cycle_L1D         0         0         0         0         0         0
@Sumon_Early_stream_L1D         0         0         0         0         0         0         0         0         0         0         0         0
@Sumon_Early_CS_L1D         0         0         0         0         0         0         0         0         0         0         0         0
@Sumon_Early_CPLX_L1D         0         0         0         0         0         0         0         0         0         0         0         0
@Sumon_Late_stream_L1D         0         0         0         0         0         0
@Sumon_Late_CS_L1D         0         0         0         0         0         0
@Sumon_Late_CPLX_L1D         0         0         0         0         0         0
@sumon_overall_L2C    809558     15204         0      8510    818050    929984    929984
@Sumon_Early_by_class_L2C         0         0         0         0
@Sumon_Late_by_class_L2C         0         0         0         0

@Sumon_Early_by_cycle_L2C      2797      5028      7449      6567     10056    131360    209618    334547     52578     32676     16760       122
@Sumon_Late_by_cycle_L2C       882       334      1042      2719     10035       192
@Sumon_Early_stream_L2C         0         0         0         0         0         0         0         0         0         0         0         0
@Sumon_Early_CS_L2C         0         0         0         0         0         0         0         0         0         0         0         0
@Sumon_Early_CPLX_L2C         0         0         0         0         0         0         0         0         0         0         0         0
@Sumon_Late_stream_L2C         0         0         0         0         0         0
@Sumon_Late_CS_L2C         0         0         0         0         0         0
@Sumon_Late_CPLX_L2C         0         0         0         0         0         0
DRAM PAGES: 1048576
Allocated PAGES: 28543
