
*** ChampSim Multicore Out-of-Order Simulator ***

Warmup Instructions: 50000000
Simulation Instructions: 50000000
Number of CPUs: 1
LLC sets: 2048
LLC ways: 16
Off-chip DRAM Size: 4096 MB Channels: 1 Width: 64-bit Data Rate: 6400 MT/s
CPU 0 runs ../../biswa/SPEC2017Traces/603.bwaves_s-2931B.champsimtrace.xz
.xz
CPU 0 Bimodal branch predictor
BTB has LRU replacement policy
ITLB has LRU replacement policy
DTLB has LRU replacement policy
STLB has LRU replacement policy
L1I has LRU replacement policy
L1D has LRU replacement policy
Bingo PHT WAYS: 16 and PHT_SIZE: 16384
Initialize DRRIP state for L2C
Initialize SRRIP state
epoch: 1000
next table: 2514
cur table: 12310
epoch: 1000
next table: 2397
cur table: 2514
epoch: 1000
next table: 2230
cur table: 2397
epoch: 1000
next table: 2324
cur table: 2230
epoch: 1000
next table: 2314
cur table: 2324
epoch: 1000
next table: 2466
cur table: 2314
epoch: 1000
next table: 2394
cur table: 2466
epoch: 1000
next table: 2340
cur table: 2394
epoch: 1000
next table: 2385
cur table: 2340
epoch: 1000
next table: 2405
cur table: 2385
epoch: 1000
next table: 2446
cur table: 2405
epoch: 1000
next table: 2134
cur table: 2446
epoch: 1000
next table: 2424
cur table: 2134
epoch: 1000
next table: 2366
cur table: 2424
epoch: 1000
next table: 2329
cur table: 2366
epoch: 1000
next table: 2377
cur table: 2329
epoch: 1000
next table: 2292
cur table: 2377
epoch: 1000
next table: 2412
cur table: 2292
epoch: 1000
next table: 2470
cur table: 2412
epoch: 1000
next table: 2352
cur table: 2470
epoch: 1000
next table: 2334
cur table: 2352
epoch: 1000
next table: 2321
cur table: 2334
epoch: 1000
next table: 2119
cur table: 2321
epoch: 1000
next table: 2412
cur table: 2119
epoch: 1000
next table: 2403
cur table: 2412
epoch: 1000
next table: 1680
cur table: 17230
epoch: 1000
next table: 2344
cur table: 2403
epoch: 1000
next table: 2308
cur table: 2344
epoch: 1000
next table: 1506
cur table: 1680
epoch: 1000
next table: 2391
cur table: 2308
epoch: 1000
next table: 1479
cur table: 1506
epoch: 1000
next table: 2346
cur table: 2391
epoch: 1000
next table: 1528
cur table: 1479
epoch: 1000
next table: 2415
cur table: 2346
epoch: 1000
next table: 1455
cur table: 1528
epoch: 1000
next table: 2389
cur table: 2415
epoch: 1000
next table: 1483
cur table: 1455
epoch: 1000
next table: 2275
cur table: 2389
epoch: 1000
next table: 1440
cur table: 1483
epoch: 1000
next table: 2301
cur table: 2275
epoch: 1000
next table: 1464
cur table: 1440
epoch: 1000
next table: 2105
cur table: 2301
epoch: 1000
next table: 1470
cur table: 1464
epoch: 1000
next table: 2452
cur table: 2105
epoch: 1000
next table: 1431
cur table: 1470
epoch: 1000
next table: 2288
cur table: 2452
epoch: 1000
next table: 1447
cur table: 1431
epoch: 1000
next table: 2298
cur table: 2288
epoch: 1000
next table: 1424
cur table: 1447
epoch: 1000
next table: 2228
cur table: 2298
epoch: 1000
next table: 1436
cur table: 1424
epoch: 1000
next table: 2396
cur table: 2228
epoch: 1000
next table: 1408
cur table: 1436
epoch: 1000
next table: 2275
cur table: 2396
epoch: 1000
next table: 1480
cur table: 1408
epoch: 1000
next table: 2331
cur table: 2275
epoch: 1000
next table: 1487
cur table: 1480
epoch: 1000
next table: 2118
cur table: 2331
epoch: 1000
next table: 1425
cur table: 1487
epoch: 1000
next table: 2418
cur table: 2118
epoch: 1000
next table: 1434
cur table: 1425
epoch: 1000
next table: 2376
cur table: 2418
epoch: 1000
next table: 1439
cur table: 1434
epoch: 1000
next table: 2369
cur table: 2376
epoch: 1000
next table: 1411
cur table: 1439
epoch: 1000
next table: 2255
cur table: 2369
epoch: 1000
next table: 1536
cur table: 1411
epoch: 1000
next table: 2382
cur table: 2255
epoch: 1000
next table: 1486
cur table: 1536
epoch: 1000
next table: 2408
cur table: 2382
epoch: 1000
next table: 1449
cur table: 1486
epoch: 1000
next table: 2288
cur table: 2408
epoch: 1000
next table: 2279
cur table: 2288
epoch: 1000
next table: 1458
cur table: 1449
epoch: 1000
next table: 2104
cur table: 2279
epoch: 1000
next table: 1412
cur table: 1458
epoch: 1000
next table: 2363
cur table: 2104
epoch: 1000
next table: 1449
cur table: 1412
epoch: 1000
next table: 2363
cur table: 2363
epoch: 1000
next table: 1452
cur table: 1449
epoch: 1000
next table: 2343
cur table: 2363
epoch: 1000
next table: 1404
cur table: 1452
epoch: 1000
next table: 2258
cur table: 2343
epoch: 1000
next table: 1410
cur table: 1404
epoch: 1000
next table: 2391
cur table: 2258
epoch: 1000
next table: 1419
cur table: 1410
epoch: 1000
next table: 2262
cur table: 2391
epoch: 1000
next table: 1456
cur table: 1419
epoch: 1000
next table: 2282
cur table: 2262
epoch: 1000
next table: 1423
cur table: 1456
epoch: 1000
next table: 2096
cur table: 2282
epoch: 1000
next table: 1427
cur table: 1423
epoch: 1000
next table: 2441
cur table: 2096
epoch: 1000
next table: 1435
cur table: 1427
epoch: 1000
next table: 2352
cur table: 2441
epoch: 1000
next table: 1405
cur table: 1435
epoch: 1000
next table: 2295
cur table: 2352
epoch: 1000
next table: 1469
cur table: 1405
epoch: 1000
next table: 2376
cur table: 2295
epoch: 1000
next table: 1463
cur table: 1469
epoch: 1000
next table: 2326
cur table: 2376
epoch: 1000
next table: 1413
cur table: 1463
epoch: 1000
next table: 2427
cur table: 2326
epoch: 1000
next table: 1449
cur table: 1413
epoch: 1000
next table: 2412
cur table: 2427
epoch: 1000
next table: 1433
cur table: 1449
epoch: 1000
next table: 2394
cur table: 2412
epoch: 1000
next table: 1430
cur table: 1433
epoch: 1000
next table: 2380
cur table: 2394
epoch: 1000
next table: 1465
cur table: 1430
epoch: 1000
next table: 2443
cur table: 2380
epoch: 1000
next table: 1458
cur table: 1465
epoch: 1000
next table: 2381
cur table: 2443
epoch: 1000
next table: 1494
cur table: 1458
epoch: 1000
next table: 2370
cur table: 2381
epoch: 1000
next table: 1459
cur table: 1494
epoch: 1000
next table: 2125
cur table: 2370
epoch: 1000
next table: 1445
cur table: 1459
epoch: 1000
next table: 2393
cur table: 2125
epoch: 1000
next table: 1433
cur table: 1445
epoch: 1000
next table: 2309
cur table: 2393
epoch: 1000
next table: 1404
cur table: 1433
epoch: 1000
next table: 2315
cur table: 2309
epoch: 1000
next table: 1427
cur table: 1404
epoch: 1000
next table: 2302
cur table: 2315
epoch: 1000
next table: 1458
cur table: 1427
epoch: 1000
next table: 2375
cur table: 2302
epoch: 1000
next table: 1397
cur table: 1458
epoch: 1000
next table: 2322
cur table: 2375
epoch: 1000
next table: 1428
cur table: 1397
epoch: 1000
next table: 2311
cur table: 2322
epoch: 1000
next table: 1412
cur table: 1428
epoch: 1000
next table: 2029
cur table: 2311
epoch: 1000
next table: 1449
cur table: 1412
epoch: 1000
next table: 2408
cur table: 2029
epoch: 1000
next table: 1421
cur table: 1449
epoch: 1000
next table: 2386
cur table: 2408
epoch: 1000
next table: 1436
cur table: 1421
epoch: 1000
next table: 2323
cur table: 2386
epoch: 1000
next table: 1439
cur table: 1436
epoch: 1000
next table: 2417
cur table: 2323
epoch: 1000
next table: 1415
cur table: 1439
epoch: 1000
next table: 2308
cur table: 2417
epoch: 1000
next table: 1452
cur table: 1415
epoch: 1000
next table: 2396
cur table: 2308
epoch: 1000
next table: 1451
cur table: 1452
epoch: 1000
next table: 2444
cur table: 2396
epoch: 1000
next table: 1441
cur table: 1451
epoch: 1000
next table: 2317
cur table: 2444
epoch: 1000
next table: 1451
cur table: 1441
epoch: 1000
next table: 2367
cur table: 2317
epoch: 1000
next table: 1438
cur table: 1451
epoch: 1000
next table: 2303
cur table: 2367
epoch: 1000
next table: 1408
cur table: 1438
epoch: 1000
next table: 2107
cur table: 2303
epoch: 1000
next table: 1449
cur table: 1408
epoch: 1000
next table: 2438
cur table: 2107
epoch: 1000
next table: 1453
cur table: 1449
epoch: 1000
next table: 2365
cur table: 2438
epoch: 1000
next table: 1414
cur table: 1453
epoch: 1000
next table: 2275
cur table: 2365
epoch: 1000
next table: 1417
cur table: 1414
epoch: 1000
next table: 2284
cur table: 2275
epoch: 1000
next table: 1385
cur table: 1417
epoch: 1000
next table: 2341
cur table: 2284
epoch: 1000
next table: 1466
cur table: 1385
epoch: 1000
next table: 2367
cur table: 2341
epoch: 1000
next table: 1436
cur table: 1466
epoch: 1000
next table: 2302
cur table: 2367
epoch: 1000
next table: 1402
cur table: 1436
epoch: 1000
next table: 2305
cur table: 2302
epoch: 1000
next table: 1432
cur table: 1402
epoch: 1000
next table: 2137
cur table: 2305
epoch: 1000
next table: 1408
cur table: 1432
epoch: 1000
next table: 2376
cur table: 2137
epoch: 1000
next table: 1452
cur table: 1408
epoch: 1000
next table: 2333
cur table: 2376
epoch: 1000
next table: 1430
cur table: 1452
epoch: 1000
next table: 2341
cur table: 2333
epoch: 1000
next table: 1420
cur table: 1430
epoch: 1000
next table: 2420
cur table: 2341
epoch: 1000
next table: 1439
cur table: 1420
epoch: 1000
next table: 2314
cur table: 2420
epoch: 1000
next table: 1423
cur table: 1439
epoch: 1000
next table: 2380
cur table: 2314
epoch: 1000
next table: 1435
cur table: 1423
epoch: 1000
next table: 2329
cur table: 2380
epoch: 1000
next table: 1443
cur table: 1435
epoch: 1000
next table: 2405
cur table: 2329
epoch: 1000
next table: 1427
cur table: 1443
epoch: 1000
next table: 2318
cur table: 2405
epoch: 1000
next table: 1418
cur table: 1427
epoch: 1000
next table: 2115
cur table: 2318
epoch: 1000
next table: 1414
cur table: 1418
epoch: 1000
next table: 2282
cur table: 2115
epoch: 1000
next table: 1459
cur table: 1414
epoch: 1000
next table: 2351
cur table: 2282
epoch: 1000
next table: 1437
cur table: 1459
epoch: 1000
next table: 2367
cur table: 2351
epoch: 1000
next table: 1406
cur table: 1437
epoch: 1000
next table: 2311
cur table: 2367
epoch: 1000
next table: 1433
cur table: 1406
epoch: 1000
next table: 2414
cur table: 2311
epoch: 1000
next table: 1432
cur table: 1433
epoch: 1000
next table: 2324
cur table: 2414
epoch: 1000
next table: 1422
cur table: 1432
epoch: 1000
next table: 2350
cur table: 2324
epoch: 1000
next table: 1461
cur table: 1422
epoch: 1000
next table: 2239
cur table: 2350
epoch: 1000
next table: 1415
cur table: 1461
epoch: 1000
next table: 2222
cur table: 2239
epoch: 1000
next table: 1435
cur table: 1415
epoch: 1000
next table: 2409
cur table: 2222
epoch: 1000
next table: 1430
cur table: 1435
epoch: 1000
next table: 2326
cur table: 2409
epoch: 1000
next table: 1415
cur table: 1430
epoch: 1000
next table: 2338
cur table: 2326
epoch: 1000
next table: 1449
cur table: 1415
epoch: 1000
next table: 2355
cur table: 2338
epoch: 1000
next table: 1455
cur table: 1449
epoch: 1000
next table: 2329
cur table: 2355
epoch: 1000
next table: 1425
cur table: 1455
epoch: 1000
next table: 2439
cur table: 2329
epoch: 1000
next table: 1432
cur table: 1425
epoch: 1000
next table: 2411
cur table: 2439
epoch: 1000
next table: 1434
cur table: 1432
epoch: 1000
next table: 2339
cur table: 2411
epoch: 1000
next table: 1416
cur table: 1434
epoch: 1000
next table: 2338
cur table: 2339
epoch: 1000
next table: 1460
cur table: 1416
epoch: 1000
next table: 2334
cur table: 2338
epoch: 1000
next table: 1441
cur table: 1460
epoch: 1000
next table: 2124
cur table: 2334
epoch: 1000
next table: 1424
cur table: 1441
epoch: 1000
next table: 2423
cur table: 2124
epoch: 1000
next table: 1422
cur table: 1424
epoch: 1000
next table: 2294
cur table: 2423
epoch: 1000
next table: 1423
cur table: 1422
epoch: 1000
next table: 2355
cur table: 2294
epoch: 1000
next table: 1428
cur table: 1423
epoch: 1000
next table: 2364
cur table: 2355
epoch: 1000
next table: 1491
cur table: 1428
epoch: 1000
next table: 2368
cur table: 2364
epoch: 1000
next table: 1438
cur table: 1491
epoch: 1000
next table: 2407
cur table: 2368
epoch: 1000
next table: 1411
cur table: 1438
epoch: 1000
next table: 2332
cur table: 2407
epoch: 1000
next table: 1404
cur table: 1411
epoch: 1000
next table: 2320
cur table: 2332
epoch: 1000
next table: 1430
cur table: 1404
epoch: 1000
next table: 2222
cur table: 2320
Heartbeat CPU 0 instructions: 10000003 cycles: 2947792 heartbeat IPC: 3.39237 cumulative IPC: 3.39237 (Simulation time: 0 hr 5 min 27 sec) 
epoch: 1000
next table: 1459
cur table: 1430
epoch: 1000
next table: 2267
cur table: 2222
epoch: 1000
next table: 1442
cur table: 1459
epoch: 1000
next table: 2402
cur table: 2267
epoch: 1000
next table: 1427
cur table: 1442
epoch: 1000
next table: 2305
cur table: 2402
epoch: 1000
next table: 1431
cur table: 1427
epoch: 1000
next table: 2362
cur table: 2305
epoch: 1000
next table: 1420
cur table: 1431
epoch: 1000
next table: 2355
cur table: 2362
epoch: 1000
next table: 1430
cur table: 1420
epoch: 1000
next table: 2308
cur table: 2355
epoch: 1000
next table: 2406
cur table: 2308
epoch: 1000
next table: 1444
cur table: 1430
epoch: 1000
next table: 2382
cur table: 2406
epoch: 1000
next table: 1435
cur table: 1444
epoch: 1000
next table: 2346
cur table: 2382
epoch: 1000
next table: 1430
cur table: 1435
epoch: 1000
next table: 2283
cur table: 2346
epoch: 1000
next table: 1440
cur table: 1430
epoch: 1000
next table: 2222
cur table: 2283
epoch: 1000
next table: 1420
cur table: 1440
epoch: 1000
next table: 2437
cur table: 2222
epoch: 1000
next table: 1455
cur table: 1420
epoch: 1000
next table: 2367
cur table: 2437
epoch: 1000
next table: 1449
cur table: 1455
epoch: 1000
next table: 2379
cur table: 2367
epoch: 1000
next table: 1442
cur table: 1449
epoch: 1000
next table: 2337
cur table: 2379
epoch: 1000
next table: 1422
cur table: 1442
epoch: 1000
next table: 2341
cur table: 2337
epoch: 1000
next table: 1441
cur table: 1422
epoch: 1000
next table: 2361
cur table: 2341
epoch: 1000
next table: 1410
cur table: 1441
epoch: 1000
next table: 2423
cur table: 2361
epoch: 1000
next table: 1448
cur table: 1410
epoch: 1000
next table: 2315
cur table: 2423
epoch: 1000
next table: 1438
cur table: 1448
epoch: 1000
next table: 2337
cur table: 2315
epoch: 1000
next table: 1437
cur table: 1438
epoch: 1000
next table: 2334
cur table: 2337
epoch: 1000
next table: 1431
cur table: 1437
epoch: 1000
next table: 2127
cur table: 2334
epoch: 1000
next table: 1433
cur table: 1431
epoch: 1000
next table: 2412
cur table: 2127
epoch: 1000
next table: 1419
cur table: 1433
epoch: 1000
next table: 2244
cur table: 2412
epoch: 1000
next table: 1438
cur table: 1419
epoch: 1000
next table: 2368
cur table: 2244
epoch: 1000
next table: 1467
cur table: 1438
epoch: 1000
next table: 2266
cur table: 2368
epoch: 1000
next table: 1441
cur table: 1467
epoch: 1000
next table: 2385
cur table: 2266
epoch: 1000
next table: 1434
cur table: 1441
epoch: 1000
next table: 2430
cur table: 2385
epoch: 1000
next table: 1419
cur table: 1434
epoch: 1000
next table: 2305
cur table: 2430
epoch: 1000
next table: 1453
cur table: 1419
epoch: 1000
next table: 2278
cur table: 2305
epoch: 1000
next table: 1427
cur table: 1453
epoch: 1000
next table: 2212
cur table: 2278
epoch: 1000
next table: 1468
cur table: 1427
epoch: 1000
next table: 2282
cur table: 2212
epoch: 1000
next table: 1450
cur table: 1468
epoch: 1000
next table: 2344
cur table: 2282
epoch: 1000
next table: 1413
cur table: 1450
epoch: 1000
next table: 2391
cur table: 2344
epoch: 1000
next table: 1460
cur table: 1413
epoch: 1000
next table: 2312
cur table: 2391
epoch: 1000
next table: 1430
cur table: 1460
epoch: 1000
next table: 2316
cur table: 2312
epoch: 1000
next table: 1404
cur table: 1430
epoch: 1000
next table: 2419
cur table: 2316
epoch: 1000
next table: 1417
cur table: 1404
epoch: 1000
next table: 2356
cur table: 2419
epoch: 1000
next table: 1437
cur table: 1417
epoch: 1000
next table: 2318
cur table: 2356
epoch: 1000
next table: 1451
cur table: 1437
epoch: 1000
next table: 2119
cur table: 2318
epoch: 1000
next table: 1414
cur table: 1451
epoch: 1000
next table: 2372
cur table: 2119
epoch: 1000
next table: 1420
cur table: 1414
epoch: 1000
next table: 2372
cur table: 2372
epoch: 1000
next table: 1446
cur table: 1420
epoch: 1000
next table: 2371
cur table: 2372
epoch: 1000
next table: 1448
cur table: 1446
epoch: 1000
next table: 2344
cur table: 2371
epoch: 1000
next table: 1465
cur table: 1448
epoch: 1000
next table: 2293
cur table: 2344
epoch: 1000
next table: 1414
cur table: 1465
epoch: 1000
next table: 2431
cur table: 2293
epoch: 1000
next table: 1431
cur table: 1414
epoch: 1000
next table: 2330
cur table: 2431
epoch: 1000
next table: 1440
cur table: 1431
epoch: 1000
next table: 2338
cur table: 2330
epoch: 1000
next table: 1451
cur table: 1440
epoch: 1000
next table: 2327
cur table: 2338
epoch: 1000
next table: 1443
cur table: 1451
epoch: 1000
next table: 2141
cur table: 2327
epoch: 1000
next table: 1453
cur table: 1443
epoch: 1000
next table: 2401
cur table: 2141
epoch: 1000
next table: 1442
cur table: 1453
epoch: 1000
next table: 2371
cur table: 2401
epoch: 1000
next table: 1414
cur table: 1442
epoch: 1000
next table: 2284
cur table: 2371
epoch: 1000
next table: 1431
cur table: 1414
epoch: 1000
next table: 2386
cur table: 2284
epoch: 1000
next table: 1420
cur table: 1431
epoch: 1000
next table: 2273
cur table: 2386
epoch: 1000
next table: 1452
cur table: 1420
epoch: 1000
next table: 2399
cur table: 2273
epoch: 1000
next table: 1442
cur table: 1452
epoch: 1000
next table: 2318
cur table: 2399
epoch: 1000
next table: 1403
cur table: 1442
epoch: 1000
next table: 2289
cur table: 2318
epoch: 1000
next table: 1422
cur table: 1403
epoch: 1000
next table: 2288
cur table: 2289
epoch: 1000
next table: 1419
cur table: 1422
epoch: 1000
next table: 2200
cur table: 2288
epoch: 1000
next table: 1460
cur table: 1419
epoch: 1000
next table: 2425
cur table: 2200
epoch: 1000
next table: 1462
cur table: 1460
epoch: 1000
next table: 2339
cur table: 2425
epoch: 1000
next table: 1425
cur table: 1462
epoch: 1000
next table: 2352
cur table: 2339
epoch: 1000
next table: 1448
cur table: 1425
epoch: 1000
next table: 2415
cur table: 2352
epoch: 1000
next table: 1446
cur table: 1448
epoch: 1000
next table: 2388
cur table: 2415
epoch: 1000
next table: 1427
cur table: 1446
epoch: 1000
next table: 2332
cur table: 2388
epoch: 1000
next table: 1416
cur table: 1427
epoch: 1000
next table: 2465
cur table: 2332
epoch: 1000
next table: 1463
cur table: 1416
epoch: 1000
next table: 2381
cur table: 2465
epoch: 1000
next table: 1439
cur table: 1463
epoch: 1000
next table: 2299
cur table: 2381
epoch: 1000
next table: 1435
cur table: 1439
epoch: 1000
next table: 2326
cur table: 2299
epoch: 1000
next table: 1440
cur table: 1435
epoch: 1000
next table: 2149
cur table: 2326
epoch: 1000
next table: 1451
cur table: 1440
epoch: 1000
next table: 2412
cur table: 2149
epoch: 1000
next table: 1409
cur table: 1451
epoch: 1000
next table: 2438
cur table: 2412
epoch: 1000
next table: 1466
cur table: 1409
epoch: 1000
next table: 2333
cur table: 2438
epoch: 1000
next table: 1443
cur table: 1466
epoch: 1000
next table: 2358
cur table: 2333
epoch: 1000
next table: 1412
cur table: 1443
epoch: 1000
next table: 2381
cur table: 2358
epoch: 1000
next table: 1430
cur table: 1412
epoch: 1000
next table: 2309
cur table: 2381
epoch: 1000
next table: 1430
cur table: 1430
epoch: 1000
next table: 2410
cur table: 2309
epoch: 1000
next table: 1439
cur table: 1430
epoch: 1000
next table: 2404
cur table: 2410
epoch: 1000
next table: 1460
cur table: 1439
epoch: 1000
next table: 2370
cur table: 2404
epoch: 1000
next table: 1453
cur table: 1460
epoch: 1000
next table: 2322
cur table: 2370
epoch: 1000
next table: 1405
cur table: 1453
epoch: 1000
next table: 2043
cur table: 2322
epoch: 1000
next table: 1422
cur table: 1405
epoch: 1000
next table: 2356
cur table: 2043
epoch: 1000
next table: 1426
cur table: 1422
epoch: 1000
next table: 2308
cur table: 2356
epoch: 1000
next table: 1438
cur table: 1426
epoch: 1000
next table: 2309
cur table: 2308
epoch: 1000
next table: 1398
cur table: 1438
epoch: 1000
next table: 2264
cur table: 2309
epoch: 1000
next table: 1430
cur table: 1398
epoch: 1000
next table: 2368
cur table: 2264
epoch: 1000
next table: 1393
cur table: 1430
epoch: 1000
next table: 2317
cur table: 2368
epoch: 1000
next table: 1458
cur table: 1393
epoch: 1000
next table: 2324
cur table: 2317
epoch: 1000
next table: 1454
cur table: 1458
epoch: 1000
next table: 2302
cur table: 2324
epoch: 1000
next table: 1396
cur table: 1454
epoch: 1000
next table: 2179
cur table: 2302
epoch: 1000
next table: 1436
cur table: 1396
epoch: 1000
next table: 2319
cur table: 2179
epoch: 1000
next table: 1404
cur table: 1436
epoch: 1000
next table: 2350
cur table: 2319
epoch: 1000
next table: 1450
cur table: 1404
epoch: 1000
next table: 2305
cur table: 2350
epoch: 1000
next table: 1434
cur table: 1450
epoch: 1000
next table: 2349
cur table: 2305
epoch: 1000
next table: 1419
cur table: 1434
epoch: 1000
next table: 2404
cur table: 2349
epoch: 1000
next table: 1422
cur table: 1419
epoch: 1000
next table: 2303
cur table: 2404
epoch: 1000
next table: 1409
cur table: 1422
epoch: 1000
next table: 2293
cur table: 2303
epoch: 1000
next table: 1429
cur table: 1409
epoch: 1000
next table: 2106
cur table: 2293
epoch: 1000
next table: 1403
cur table: 1429
epoch: 1000
next table: 2331
cur table: 2106
epoch: 1000
next table: 1406
cur table: 1403
epoch: 1000
next table: 2294
cur table: 2331
epoch: 1000
next table: 1477
cur table: 1406
epoch: 1000
next table: 2307
cur table: 2294
epoch: 1000
next table: 1435
cur table: 1477
epoch: 1000
next table: 2393
cur table: 2307
epoch: 1000
next table: 1404
cur table: 1435
epoch: 1000
next table: 2373
cur table: 2393
epoch: 1000
next table: 1447
cur table: 1404
epoch: 1000
next table: 2275
cur table: 2373
epoch: 1000
next table: 1393
cur table: 1447
epoch: 1000
next table: 2311
cur table: 2275
epoch: 1000
next table: 1446
cur table: 1393
epoch: 1000
next table: 2096
cur table: 2311
epoch: 1000
next table: 1412
cur table: 1446
epoch: 1000
next table: 2380
cur table: 2096
epoch: 1000
next table: 1430
cur table: 1412
epoch: 1000
next table: 2318
cur table: 2380
epoch: 1000
next table: 1417
cur table: 1430
epoch: 1000
next table: 2297
cur table: 2318
epoch: 1000
next table: 1420
cur table: 1417
epoch: 1000
next table: 2315
cur table: 2297
epoch: 1000
next table: 1436
cur table: 1420
epoch: 1000
next table: 2376
cur table: 2315
epoch: 1000
next table: 2245
cur table: 2376
epoch: 1000
next table: 1401
cur table: 1436
epoch: 1000
next table: 2324
cur table: 2245
epoch: 1000
next table: 1455
cur table: 1401
epoch: 1000
next table: 2099
cur table: 2324
epoch: 1000
next table: 1406
cur table: 1455
epoch: 1000
next table: 2424
cur table: 2099
epoch: 1000
next table: 1454
cur table: 1406
epoch: 1000
next table: 2348
cur table: 2424
epoch: 1000
next table: 1456
cur table: 1454
epoch: 1000
next table: 2299
cur table: 2348
epoch: 1000
next table: 1422
cur table: 1456
epoch: 1000
next table: 2338
cur table: 2299
epoch: 1000
next table: 1427
cur table: 1422
epoch: 1000
next table: 2301
cur table: 2338
epoch: 1000
next table: 1468
cur table: 1427
epoch: 1000
next table: 2394
cur table: 2301
epoch: 1000
next table: 1405
cur table: 1468
epoch: 1000
next table: 2321
cur table: 2394
epoch: 1000
next table: 1473
cur table: 1405
epoch: 1000
next table: 2273
cur table: 2321
epoch: 1000
next table: 1458
cur table: 1473
epoch: 1000
next table: 2158
cur table: 2273
epoch: 1000
next table: 1467
cur table: 1458
epoch: 1000
next table: 2376
cur table: 2158
epoch: 1000
next table: 1478
cur table: 1467
epoch: 1000
next table: 2416
cur table: 2376
epoch: 1000
next table: 1425
cur table: 1478
epoch: 1000
next table: 2360
cur table: 2416
epoch: 1000
next table: 1464
cur table: 1425
epoch: 1000
next table: 2388
cur table: 2360
epoch: 1000
next table: 1449
cur table: 1464
epoch: 1000
next table: 2358
cur table: 2388
epoch: 1000
next table: 1425
cur table: 1449
epoch: 1000
next table: 2331
cur table: 2358
epoch: 1000
next table: 1430
cur table: 1425
epoch: 1000
next table: 2424
cur table: 2331
epoch: 1000
next table: 1435
cur table: 1430
epoch: 1000
next table: 2357
cur table: 2424
epoch: 1000
next table: 1405
cur table: 1435
epoch: 1000
next table: 2329
cur table: 2357
epoch: 1000
next table: 1452
cur table: 1405
epoch: 1000
next table: 2304
cur table: 2329
epoch: 1000
next table: 1430
cur table: 1452
epoch: 1000
next table: 2097
cur table: 2304
epoch: 1000
next table: 1434
cur table: 1430
epoch: 1000
next table: 2356
cur table: 2097
epoch: 1000
next table: 1388
cur table: 1434
epoch: 1000
next table: 2309
cur table: 2356
epoch: 1000
next table: 1452
cur table: 1388
epoch: 1000
next table: 2349
cur table: 2309
epoch: 1000
next table: 1463
cur table: 1452
epoch: 1000
next table: 2303
cur table: 2349
epoch: 1000
next table: 1424
cur table: 1463
epoch: 1000
next table: 2449
cur table: 2303
epoch: 1000
next table: 1434
cur table: 1424
epoch: 1000
next table: 2322
cur table: 2449
epoch: 1000
next table: 1420
cur table: 1434
epoch: 1000
next table: 2282
cur table: 2322
epoch: 1000
next table: 1410
cur table: 1420
epoch: 1000
next table: 2401
cur table: 2282
epoch: 1000
next table: 1476
cur table: 1410
epoch: 1000
next table: 2130
cur table: 2401
epoch: 1000
next table: 1454
cur table: 1476
epoch: 1000
next table: 2405
cur table: 2130
epoch: 1000
next table: 1434
cur table: 1454
epoch: 1000
next table: 2344
cur table: 2405
epoch: 1000
next table: 1428
cur table: 1434
epoch: 1000
next table: 2326
cur table: 2344
epoch: 1000
next table: 1425
cur table: 1428
epoch: 1000
next table: 2259
cur table: 2326
epoch: 1000
next table: 1416
cur table: 1425
Heartbeat CPU 0 instructions: 20000003 cycles: 5895142 heartbeat IPC: 3.39288 cumulative IPC: 3.39262 (Simulation time: 0 hr 10 min 33 sec) 
epoch: 1000
next table: 2427
cur table: 2259
epoch: 1000
next table: 1486
cur table: 1416
epoch: 1000
next table: 2300
cur table: 2427
epoch: 1000
next table: 1422
cur table: 1486
epoch: 1000
next table: 2212
cur table: 2300
epoch: 1000
next table: 1386
cur table: 1422
epoch: 1000
next table: 2066
cur table: 2212
epoch: 1000
next table: 1411
cur table: 1386
epoch: 1000
next table: 2388
cur table: 2066
epoch: 1000
next table: 1440
cur table: 1411
epoch: 1000
next table: 2327
cur table: 2388
epoch: 1000
next table: 1393
cur table: 1440
epoch: 1000
next table: 2229
cur table: 2327
epoch: 1000
next table: 1420
cur table: 1393
epoch: 1000
next table: 2354
cur table: 2229
epoch: 1000
next table: 1424
cur table: 1420
epoch: 1000
next table: 2455
cur table: 2354
epoch: 1000
next table: 1467
cur table: 1424
epoch: 1000
next table: 2390
cur table: 2455
epoch: 1000
next table: 1437
cur table: 1467
epoch: 1000
next table: 2330
cur table: 2390
epoch: 1000
next table: 1421
cur table: 1437
epoch: 1000
next table: 2369
cur table: 2330
epoch: 1000
next table: 1431
cur table: 1421
epoch: 1000
next table: 2390
cur table: 2369
epoch: 1000
next table: 1488
cur table: 1431
epoch: 1000
next table: 2100
cur table: 2390
epoch: 1000
next table: 1414
cur table: 1488
epoch: 1000
next table: 2385
cur table: 2100
epoch: 1000
next table: 1456
cur table: 1414
epoch: 1000
next table: 2370
cur table: 2385
epoch: 1000
next table: 1445
cur table: 1456
epoch: 1000
next table: 2345
cur table: 2370
epoch: 1000
next table: 1433
cur table: 1445
epoch: 1000
next table: 2388
cur table: 2345
epoch: 1000
next table: 1464
cur table: 1433
epoch: 1000
next table: 2367
cur table: 2388
epoch: 1000
next table: 1443
cur table: 1464
epoch: 1000
next table: 2396
cur table: 2367
epoch: 1000
next table: 1441
cur table: 1443
epoch: 1000
next table: 2454
cur table: 2396
epoch: 1000
next table: 1419
cur table: 1441
epoch: 1000
next table: 2383
cur table: 2454
epoch: 1000
next table: 1457
cur table: 1419
epoch: 1000
next table: 2288
cur table: 2383
epoch: 1000
next table: 1456
cur table: 1457
epoch: 1000
next table: 2354
cur table: 2288
epoch: 1000
next table: 1446
cur table: 1456
epoch: 1000
next table: 2146
cur table: 2354
epoch: 1000
next table: 1443
cur table: 1446
epoch: 1000
next table: 2416
cur table: 2146
epoch: 1000
next table: 1427
cur table: 1443
epoch: 1000
next table: 2386
cur table: 2416
epoch: 1000
next table: 1417
cur table: 1427
epoch: 1000
next table: 2334
cur table: 2386
epoch: 1000
next table: 1459
cur table: 1417
epoch: 1000
next table: 2350
cur table: 2334
epoch: 1000
next table: 1447
cur table: 1459
epoch: 1000
next table: 2372
cur table: 2350
epoch: 1000
next table: 1399
cur table: 1447
epoch: 1000
next table: 2335
cur table: 2372
epoch: 1000
next table: 1429
cur table: 1399
epoch: 1000
next table: 2292
cur table: 2335
epoch: 1000
next table: 1409
cur table: 1429
epoch: 1000
next table: 2346
cur table: 2292
epoch: 1000
next table: 1435
cur table: 1409
epoch: 1000
next table: 2013
cur table: 2346
epoch: 1000
next table: 1428
cur table: 1435
epoch: 1000
next table: 2431
cur table: 2013
epoch: 1000
next table: 1431
cur table: 1428
epoch: 1000
next table: 2395
cur table: 2431
epoch: 1000
next table: 1420
cur table: 1431
epoch: 1000
next table: 2239
cur table: 2395
epoch: 1000
next table: 1423
cur table: 1420
epoch: 1000
next table: 2310
cur table: 2239
epoch: 1000
next table: 1426
cur table: 1423
epoch: 1000
next table: 2310
cur table: 2310
epoch: 1000
next table: 1416
cur table: 1426
epoch: 1000
next table: 2326
cur table: 2310
epoch: 1000
next table: 1400
cur table: 1416
epoch: 1000
next table: 2339
cur table: 2326
epoch: 1000
next table: 1441
cur table: 1400
epoch: 1000
next table: 2294
cur table: 2339
epoch: 1000
next table: 1497
cur table: 1441
epoch: 1000
next table: 2129
cur table: 2294
epoch: 1000
next table: 1395
cur table: 1497
epoch: 1000
next table: 2288
cur table: 2129
epoch: 1000
next table: 1426
cur table: 1395
epoch: 1000
next table: 2278
cur table: 2288
epoch: 1000
next table: 1408
cur table: 1426
epoch: 1000
next table: 2267
cur table: 2278
epoch: 1000
next table: 1442
cur table: 1408
epoch: 1000
next table: 2412
cur table: 2267
epoch: 1000
next table: 1423
cur table: 1442
epoch: 1000
next table: 2347
cur table: 2412
epoch: 1000
next table: 1427
cur table: 1423
epoch: 1000
next table: 2295
cur table: 2347
epoch: 1000
next table: 1435
cur table: 1427
epoch: 1000
next table: 2347
cur table: 2295
epoch: 1000
next table: 2102
cur table: 2347
epoch: 1000
next table: 1428
cur table: 1435
epoch: 1000
next table: 2421
cur table: 2102
epoch: 1000
next table: 1463
cur table: 1428
epoch: 1000
next table: 2325
cur table: 2421
epoch: 1000
next table: 1444
cur table: 1463
epoch: 1000
next table: 2342
cur table: 2325
epoch: 1000
next table: 1431
cur table: 1444
epoch: 1000
next table: 2335
cur table: 2342
epoch: 1000
next table: 1417
cur table: 1431
epoch: 1000
next table: 2392
cur table: 2335
epoch: 1000
next table: 1448
cur table: 1417
epoch: 1000
next table: 2436
cur table: 2392
epoch: 1000
next table: 1431
cur table: 1448
epoch: 1000
next table: 2389
cur table: 2436
epoch: 1000
next table: 1456
cur table: 1431
epoch: 1000
next table: 2357
cur table: 2389
epoch: 1000
next table: 1441
cur table: 1456
epoch: 1000
next table: 2378
cur table: 2357
epoch: 1000
next table: 1448
cur table: 1441
epoch: 1000
next table: 2145
cur table: 2378
epoch: 1000
next table: 1420
cur table: 1448
epoch: 1000
next table: 2310
cur table: 2145
epoch: 1000
next table: 1446
cur table: 1420
epoch: 1000
next table: 2402
cur table: 2310
epoch: 1000
next table: 1417
cur table: 1446
epoch: 1000
next table: 2358
cur table: 2402
epoch: 1000
next table: 1456
cur table: 1417
epoch: 1000
next table: 2350
cur table: 2358
epoch: 1000
next table: 1443
cur table: 1456
epoch: 1000
next table: 2365
cur table: 2350
epoch: 1000
next table: 1425
cur table: 1443
epoch: 1000
next table: 2308
cur table: 2365
epoch: 1000
next table: 1425
cur table: 1425
epoch: 1000
next table: 2403
cur table: 2308
epoch: 1000
next table: 1407
cur table: 1425
epoch: 1000
next table: 2320
cur table: 2403
epoch: 1000
next table: 1447
cur table: 1407
epoch: 1000
next table: 2283
cur table: 2320
epoch: 1000
next table: 1421
cur table: 1447
epoch: 1000
next table: 1989
cur table: 2283
epoch: 1000
next table: 1406
cur table: 1421
epoch: 1000
next table: 2443
cur table: 1989
epoch: 1000
next table: 1434
cur table: 1406
epoch: 1000
next table: 2301
cur table: 2443
epoch: 1000
next table: 1405
cur table: 1434
epoch: 1000
next table: 2289
cur table: 2301
epoch: 1000
next table: 1440
cur table: 1405
epoch: 1000
next table: 2231
cur table: 2289
epoch: 1000
next table: 1398
cur table: 1440
epoch: 1000
next table: 2419
cur table: 2231
epoch: 1000
next table: 1424
cur table: 1398
epoch: 1000
next table: 2377
cur table: 2419
epoch: 1000
next table: 1419
cur table: 1424
epoch: 1000
next table: 2302
cur table: 2377
epoch: 1000
next table: 1451
cur table: 1419
epoch: 1000
next table: 2214
cur table: 2302
epoch: 1000
next table: 1414
cur table: 1451
epoch: 1000
next table: 2156
cur table: 2214
epoch: 1000
next table: 1422
cur table: 1414
epoch: 1000
next table: 2418
cur table: 2156
epoch: 1000
next table: 1430
cur table: 1422
epoch: 1000
next table: 2299
cur table: 2418
epoch: 1000
next table: 1412
cur table: 1430
epoch: 1000
next table: 2334
cur table: 2299
epoch: 1000
next table: 1464
cur table: 1412
epoch: 1000
next table: 2317
cur table: 2334
epoch: 1000
next table: 1435
cur table: 1464
epoch: 1000
next table: 2428
cur table: 2317
epoch: 1000
next table: 1424
cur table: 1435
epoch: 1000
next table: 2334
cur table: 2428
epoch: 1000
next table: 1421
cur table: 1424
epoch: 1000
next table: 2293
cur table: 2334
epoch: 1000
next table: 1437
cur table: 1421
epoch: 1000
next table: 2093
cur table: 2293
epoch: 1000
next table: 1449
cur table: 1437
epoch: 1000
next table: 2404
cur table: 2093
epoch: 1000
next table: 1445
cur table: 1449
epoch: 1000
next table: 2477
cur table: 2404
epoch: 1000
next table: 1457
cur table: 1445
epoch: 1000
next table: 2309
cur table: 2477
epoch: 1000
next table: 1431
cur table: 1457
epoch: 1000
next table: 2324
cur table: 2309
epoch: 1000
next table: 1409
cur table: 1431
epoch: 1000
next table: 2355
cur table: 2324
epoch: 1000
next table: 1454
cur table: 1409
epoch: 1000
next table: 2376
cur table: 2355
epoch: 1000
next table: 1442
cur table: 1454
epoch: 1000
next table: 2380
cur table: 2376
epoch: 1000
next table: 1432
cur table: 1442
epoch: 1000
next table: 2273
cur table: 2380
epoch: 1000
next table: 1407
cur table: 1432
epoch: 1000
next table: 2308
cur table: 2273
epoch: 1000
next table: 1421
cur table: 1407
epoch: 1000
next table: 2142
cur table: 2308
epoch: 1000
next table: 1449
cur table: 1421
epoch: 1000
next table: 2395
cur table: 2142
epoch: 1000
next table: 1455
cur table: 1449
epoch: 1000
next table: 2371
cur table: 2395
epoch: 1000
next table: 1435
cur table: 1455
epoch: 1000
next table: 2339
cur table: 2371
epoch: 1000
next table: 1415
cur table: 1435
epoch: 1000
next table: 2300
cur table: 2339
epoch: 1000
next table: 1432
cur table: 1415
epoch: 1000
next table: 2307
cur table: 2300
epoch: 1000
next table: 1414
cur table: 1432
epoch: 1000
next table: 2371
cur table: 2307
epoch: 1000
next table: 1448
cur table: 1414
epoch: 1000
next table: 2250
cur table: 2371
epoch: 1000
next table: 1420
cur table: 1448
epoch: 1000
next table: 2247
cur table: 2250
epoch: 1000
next table: 1431
cur table: 1420
epoch: 1000
next table: 2131
cur table: 2247
epoch: 1000
next table: 1417
cur table: 1431
epoch: 1000
next table: 2376
cur table: 2131
epoch: 1000
next table: 1426
cur table: 1417
epoch: 1000
next table: 2323
cur table: 2376
epoch: 1000
next table: 1457
cur table: 1426
epoch: 1000
next table: 2292
cur table: 2323
epoch: 1000
next table: 1415
cur table: 1457
epoch: 1000
next table: 2302
cur table: 2292
epoch: 1000
next table: 1425
cur table: 1415
epoch: 1000
next table: 2393
cur table: 2302
epoch: 1000
next table: 1431
cur table: 1425
epoch: 1000
next table: 2339
cur table: 2393
epoch: 1000
next table: 1418
cur table: 1431
epoch: 1000
next table: 2302
cur table: 2339
epoch: 1000
next table: 1461
cur table: 1418
epoch: 1000
next table: 2303
cur table: 2302
epoch: 1000
next table: 1443
cur table: 1461
epoch: 1000
next table: 2211
cur table: 2303
epoch: 1000
next table: 1422
cur table: 1443
epoch: 1000
next table: 2415
cur table: 2211
epoch: 1000
next table: 1429
cur table: 1422
epoch: 1000
next table: 2342
cur table: 2415
epoch: 1000
next table: 1444
cur table: 1429
epoch: 1000
next table: 2328
cur table: 2342
epoch: 1000
next table: 1412
cur table: 1444
epoch: 1000
next table: 2359
cur table: 2328
epoch: 1000
next table: 1457
cur table: 1412
epoch: 1000
next table: 2367
cur table: 2359
epoch: 1000
next table: 1446
cur table: 1457
epoch: 1000
next table: 2425
cur table: 2367
epoch: 1000
next table: 1426
cur table: 1446
epoch: 1000
next table: 2421
cur table: 2425
epoch: 1000
next table: 1430
cur table: 1426
epoch: 1000
next table: 2394
cur table: 2421
epoch: 1000
next table: 1446
cur table: 1430
epoch: 1000
next table: 2355
cur table: 2394
epoch: 1000
next table: 1409
cur table: 1446
epoch: 1000
next table: 2149
cur table: 2355
epoch: 1000
next table: 1461
cur table: 1409
epoch: 1000
next table: 2265
cur table: 2149
epoch: 1000
next table: 1441
cur table: 1461
epoch: 1000
next table: 2431
cur table: 2265
epoch: 1000
next table: 1427
cur table: 1441
epoch: 1000
next table: 2344
cur table: 2431
epoch: 1000
next table: 1423
cur table: 1427
epoch: 1000
next table: 2348
cur table: 2344
epoch: 1000
next table: 1434
cur table: 1423
epoch: 1000
next table: 2346
cur table: 2348
epoch: 1000
next table: 1448
cur table: 1434
epoch: 1000
next table: 2313
cur table: 2346
epoch: 1000
next table: 1452
cur table: 1448
epoch: 1000
next table: 2431
cur table: 2313
epoch: 1000
next table: 1441
cur table: 1452
epoch: 1000
next table: 2386
cur table: 2431
epoch: 1000
next table: 1408
cur table: 1441
epoch: 1000
next table: 2287
cur table: 2386
epoch: 1000
next table: 1420
cur table: 1408
epoch: 1000
next table: 2275
cur table: 2287
epoch: 1000
next table: 1410
cur table: 1420
epoch: 1000
next table: 2126
cur table: 2275
epoch: 1000
next table: 2388
cur table: 2126
epoch: 1000
next table: 1447
cur table: 1410
epoch: 1000
next table: 2340
cur table: 2388
epoch: 1000
next table: 1421
cur table: 1447
epoch: 1000
next table: 2325
cur table: 2340
epoch: 1000
next table: 1417
cur table: 1421
epoch: 1000
next table: 2264
cur table: 2325
epoch: 1000
next table: 1395
cur table: 1417
epoch: 1000
next table: 2382
cur table: 2264
epoch: 1000
next table: 1444
cur table: 1395
epoch: 1000
next table: 2353
cur table: 2382
epoch: 1000
next table: 1446
cur table: 1444
epoch: 1000
next table: 2304
cur table: 2353
epoch: 1000
next table: 1407
cur table: 1446
epoch: 1000
next table: 2232
cur table: 2304
epoch: 1000
next table: 1445
cur table: 1407
epoch: 1000
next table: 2226
cur table: 2232
epoch: 1000
next table: 1391
cur table: 1445
epoch: 1000
next table: 2284
cur table: 2226
epoch: 1000
next table: 1449
cur table: 1391
epoch: 1000
next table: 2323
cur table: 2284
epoch: 1000
next table: 1395
cur table: 1449
epoch: 1000
next table: 2303
cur table: 2323
epoch: 1000
next table: 1457
cur table: 1395
Heartbeat CPU 0 instructions: 30000003 cycles: 8842457 heartbeat IPC: 3.39292 cumulative IPC: 3.39272 (Simulation time: 0 hr 15 min 31 sec) 
epoch: 1000
next table: 2452
cur table: 2303
epoch: 1000
next table: 1413
cur table: 1457
epoch: 1000
next table: 2221
cur table: 2452
epoch: 1000
next table: 1433
cur table: 1413
epoch: 1000
next table: 2299
cur table: 2221
epoch: 1000
next table: 1394
cur table: 1433
epoch: 1000
next table: 2079
cur table: 2299
epoch: 1000
next table: 1427
cur table: 1394
epoch: 1000
next table: 2434
cur table: 2079
epoch: 1000
next table: 1422
cur table: 1427
epoch: 1000
next table: 2328
cur table: 2434
epoch: 1000
next table: 1453
cur table: 1422
epoch: 1000
next table: 2325
cur table: 2328
epoch: 1000
next table: 1444
cur table: 1453
epoch: 1000
next table: 2344
cur table: 2325
epoch: 1000
next table: 1425
cur table: 1444
epoch: 1000
next table: 2332
cur table: 2344
epoch: 1000
next table: 1423
cur table: 1425
epoch: 1000
next table: 2432
cur table: 2332
epoch: 1000
next table: 1441
cur table: 1423
epoch: 1000
next table: 2401
cur table: 2432
epoch: 1000
next table: 1428
cur table: 1441
epoch: 1000
next table: 2282
cur table: 2401
epoch: 1000
next table: 1430
cur table: 1428
epoch: 1000
next table: 1992
cur table: 2282
epoch: 1000
next table: 1404
cur table: 1430
epoch: 1000
next table: 2414
cur table: 1992
epoch: 1000
next table: 1439
cur table: 1404
epoch: 1000
next table: 2428
cur table: 2414
epoch: 1000
next table: 1426
cur table: 1439
epoch: 1000
next table: 2290
cur table: 2428
epoch: 1000
next table: 1423
cur table: 1426
epoch: 1000
next table: 2324
cur table: 2290
epoch: 1000
next table: 1466
cur table: 1423
epoch: 1000
next table: 2307
cur table: 2324
epoch: 1000
next table: 1419
cur table: 1466
epoch: 1000
next table: 2436
cur table: 2307
epoch: 1000
next table: 1444
cur table: 1419
epoch: 1000
next table: 2425
cur table: 2436
epoch: 1000
next table: 1461
cur table: 1444
epoch: 1000
next table: 2319
cur table: 2425
epoch: 1000
next table: 1422
cur table: 1461
epoch: 1000
next table: 2353
cur table: 2319
epoch: 1000
next table: 1454
cur table: 1422
epoch: 1000
next table: 2322
cur table: 2353
epoch: 1000
next table: 1481
cur table: 1454
epoch: 1000
next table: 2116
cur table: 2322
epoch: 1000
next table: 1450
cur table: 1481
epoch: 1000
next table: 2410
cur table: 2116
epoch: 1000
next table: 1458
cur table: 1450
epoch: 1000
next table: 2301
cur table: 2410
epoch: 1000
next table: 1405
cur table: 1458
epoch: 1000
next table: 2358
cur table: 2301
epoch: 1000
next table: 1438
cur table: 1405
epoch: 1000
next table: 2356
cur table: 2358
epoch: 1000
next table: 1465
cur table: 1438
epoch: 1000
next table: 2395
cur table: 2356
epoch: 1000
next table: 1469
cur table: 1465
epoch: 1000
next table: 2406
cur table: 2395
epoch: 1000
next table: 1434
cur table: 1469
epoch: 1000
next table: 2413
cur table: 2406
epoch: 1000
next table: 1419
cur table: 1434
epoch: 1000
next table: 2298
cur table: 2413
epoch: 1000
next table: 1445
cur table: 1419
epoch: 1000
next table: 2338
cur table: 2298
epoch: 1000
next table: 1424
cur table: 1445
epoch: 1000
next table: 2114
cur table: 2338
epoch: 1000
next table: 1453
cur table: 1424
epoch: 1000
next table: 2394
cur table: 2114
epoch: 1000
next table: 1443
cur table: 1453
epoch: 1000
next table: 2383
cur table: 2394
epoch: 1000
next table: 1430
cur table: 1443
epoch: 1000
next table: 2220
cur table: 2383
epoch: 1000
next table: 1439
cur table: 1430
epoch: 1000
next table: 2327
cur table: 2220
epoch: 1000
next table: 1434
cur table: 1439
epoch: 1000
next table: 2427
cur table: 2327
epoch: 1000
next table: 1423
cur table: 1434
epoch: 1000
next table: 2380
cur table: 2427
epoch: 1000
next table: 1465
cur table: 1423
epoch: 1000
next table: 2300
cur table: 2380
epoch: 1000
next table: 1406
cur table: 1465
epoch: 1000
next table: 2251
cur table: 2300
epoch: 1000
next table: 1441
cur table: 1406
epoch: 1000
next table: 2117
cur table: 2251
epoch: 1000
next table: 1422
cur table: 1441
epoch: 1000
next table: 2433
cur table: 2117
epoch: 1000
next table: 1434
cur table: 1422
epoch: 1000
next table: 2383
cur table: 2433
epoch: 1000
next table: 1459
cur table: 1434
epoch: 1000
next table: 2294
cur table: 2383
epoch: 1000
next table: 1415
cur table: 1459
epoch: 1000
next table: 2292
cur table: 2294
epoch: 1000
next table: 1410
cur table: 1415
epoch: 1000
next table: 2376
cur table: 2292
epoch: 1000
next table: 1415
cur table: 1410
epoch: 1000
next table: 2400
cur table: 2376
epoch: 1000
next table: 1450
cur table: 1415
epoch: 1000
next table: 2289
cur table: 2400
epoch: 1000
next table: 1437
cur table: 1450
epoch: 1000
next table: 2294
cur table: 2289
epoch: 1000
next table: 1421
cur table: 1437
epoch: 1000
next table: 2154
cur table: 2294
epoch: 1000
next table: 1447
cur table: 1421
epoch: 1000
next table: 2385
cur table: 2154
epoch: 1000
next table: 1427
cur table: 1447
epoch: 1000
next table: 2443
cur table: 2385
epoch: 1000
next table: 1419
cur table: 1427
epoch: 1000
next table: 2353
cur table: 2443
epoch: 1000
next table: 1451
cur table: 1419
epoch: 1000
next table: 2307
cur table: 2353
epoch: 1000
next table: 1446
cur table: 1451
epoch: 1000
next table: 2394
cur table: 2307
epoch: 1000
next table: 1425
cur table: 1446
epoch: 1000
next table: 2290
cur table: 2394
epoch: 1000
next table: 1406
cur table: 1425
epoch: 1000
next table: 2385
cur table: 2290
epoch: 1000
next table: 1413
cur table: 1406
epoch: 1000
next table: 2234
cur table: 2385
epoch: 1000
next table: 1455
cur table: 1413
epoch: 1000
next table: 2156
cur table: 2234
epoch: 1000
next table: 1423
cur table: 1455
epoch: 1000
next table: 2264
cur table: 2156
epoch: 1000
next table: 1425
cur table: 1423
epoch: 1000
next table: 2350
cur table: 2264
epoch: 1000
next table: 1401
cur table: 1425
epoch: 1000
next table: 2292
cur table: 2350
epoch: 1000
next table: 1446
cur table: 1401
epoch: 1000
next table: 2399
cur table: 2292
epoch: 1000
next table: 1453
cur table: 1446
epoch: 1000
next table: 2335
cur table: 2399
epoch: 1000
next table: 1421
cur table: 1453
epoch: 1000
next table: 2404
cur table: 2335
epoch: 1000
next table: 1432
cur table: 1421
epoch: 1000
next table: 2359
cur table: 2404
epoch: 1000
next table: 1419
cur table: 1432
epoch: 1000
next table: 2349
cur table: 2359
epoch: 1000
next table: 1412
cur table: 1419
epoch: 1000
next table: 2317
cur table: 2349
epoch: 1000
next table: 1460
cur table: 1412
epoch: 1000
next table: 2136
cur table: 2317
epoch: 1000
next table: 1440
cur table: 1460
epoch: 1000
next table: 2401
cur table: 2136
epoch: 1000
next table: 1430
cur table: 1440
epoch: 1000
next table: 2416
cur table: 2401
epoch: 1000
next table: 1430
cur table: 1430
epoch: 1000
next table: 2356
cur table: 2416
epoch: 1000
next table: 1433
cur table: 1430
epoch: 1000
next table: 2370
cur table: 2356
epoch: 1000
next table: 1440
cur table: 1433
epoch: 1000
next table: 2409
cur table: 2370
epoch: 1000
next table: 1455
cur table: 1440
epoch: 1000
next table: 2317
cur table: 2409
epoch: 1000
next table: 1440
cur table: 1455
epoch: 1000
next table: 2448
cur table: 2317
epoch: 1000
next table: 1417
cur table: 1440
epoch: 1000
next table: 2322
cur table: 2448
epoch: 1000
next table: 1430
cur table: 1417
epoch: 1000
next table: 2353
cur table: 2322
epoch: 1000
next table: 1386
cur table: 1430
epoch: 1000
next table: 2103
cur table: 2353
epoch: 1000
next table: 1467
cur table: 1386
epoch: 1000
next table: 2306
cur table: 2103
epoch: 1000
next table: 2219
cur table: 2306
epoch: 1000
next table: 1405
cur table: 1467
epoch: 1000
next table: 2316
cur table: 2219
epoch: 1000
next table: 1417
cur table: 1405
epoch: 1000
next table: 2276
cur table: 2316
epoch: 1000
next table: 1409
cur table: 1417
epoch: 1000
next table: 2421
cur table: 2276
epoch: 1000
next table: 1448
cur table: 1409
epoch: 1000
next table: 2392
cur table: 2421
epoch: 1000
next table: 1460
cur table: 1448
epoch: 1000
next table: 2372
cur table: 2392
epoch: 1000
next table: 1492
cur table: 1460
epoch: 1000
next table: 2288
cur table: 2372
epoch: 1000
next table: 1459
cur table: 1492
epoch: 1000
next table: 2083
cur table: 2288
epoch: 1000
next table: 1435
cur table: 1459
epoch: 1000
next table: 2382
cur table: 2083
epoch: 1000
next table: 1450
cur table: 1435
epoch: 1000
next table: 2389
cur table: 2382
epoch: 1000
next table: 1419
cur table: 1450
epoch: 1000
next table: 2282
cur table: 2389
epoch: 1000
next table: 1449
cur table: 1419
epoch: 1000
next table: 2382
cur table: 2282
epoch: 1000
next table: 1424
cur table: 1449
epoch: 1000
next table: 2319
cur table: 2382
epoch: 1000
next table: 1429
cur table: 1424
epoch: 1000
next table: 2426
cur table: 2319
epoch: 1000
next table: 1433
cur table: 1429
epoch: 1000
next table: 2371
cur table: 2426
epoch: 1000
next table: 1430
cur table: 1433
epoch: 1000
next table: 2337
cur table: 2371
epoch: 1000
next table: 1445
cur table: 1430
epoch: 1000
next table: 2330
cur table: 2337
epoch: 1000
next table: 1458
cur table: 1445
epoch: 1000
next table: 2151
cur table: 2330
epoch: 1000
next table: 1408
cur table: 1458
epoch: 1000
next table: 2400
cur table: 2151
epoch: 1000
next table: 1421
cur table: 1408
epoch: 1000
next table: 2305
cur table: 2400
epoch: 1000
next table: 1425
cur table: 1421
epoch: 1000
next table: 2335
cur table: 2305
epoch: 1000
next table: 1436
cur table: 1425
epoch: 1000
next table: 2413
cur table: 2335
epoch: 1000
next table: 1457
cur table: 1436
epoch: 1000
next table: 2314
cur table: 2413
epoch: 1000
next table: 1431
cur table: 1457
epoch: 1000
next table: 2412
cur table: 2314
epoch: 1000
next table: 1417
cur table: 1431
epoch: 1000
next table: 2326
cur table: 2412
epoch: 1000
next table: 1428
cur table: 1417
epoch: 1000
next table: 2359
cur table: 2326
epoch: 1000
next table: 1413
cur table: 1428
epoch: 1000
next table: 2326
cur table: 2359
epoch: 1000
next table: 1458
cur table: 1413
epoch: 1000
next table: 2164
cur table: 2326
epoch: 1000
next table: 1438
cur table: 1458
epoch: 1000
next table: 2394
cur table: 2164
epoch: 1000
next table: 1432
cur table: 1438
epoch: 1000
next table: 2399
cur table: 2394
epoch: 1000
next table: 1424
cur table: 1432
epoch: 1000
next table: 2344
cur table: 2399
epoch: 1000
next table: 1436
cur table: 1424
epoch: 1000
next table: 2383
cur table: 2344
epoch: 1000
next table: 1429
cur table: 1436
epoch: 1000
next table: 2319
cur table: 2383
epoch: 1000
next table: 1458
cur table: 1429
epoch: 1000
next table: 2367
cur table: 2319
epoch: 1000
next table: 1404
cur table: 1458
epoch: 1000
next table: 2346
cur table: 2367
epoch: 1000
next table: 1455
cur table: 1404
epoch: 1000
next table: 2272
cur table: 2346
epoch: 1000
next table: 1413
cur table: 1455
epoch: 1000
next table: 2292
cur table: 2272
epoch: 1000
next table: 1404
cur table: 1413
epoch: 1000
next table: 2095
cur table: 2292
epoch: 1000
next table: 1433
cur table: 1404
epoch: 1000
next table: 2275
cur table: 2095
epoch: 1000
next table: 1399
cur table: 1433
epoch: 1000
next table: 2282
cur table: 2275
epoch: 1000
next table: 1406
cur table: 1399
epoch: 1000
next table: 2293
cur table: 2282
epoch: 1000
next table: 1429
cur table: 1406
epoch: 1000
next table: 2417
cur table: 2293
epoch: 1000
next table: 1453
cur table: 1429
epoch: 1000
next table: 2399
cur table: 2417
epoch: 1000
next table: 1425
cur table: 1453
epoch: 1000
next table: 2345
cur table: 2399
epoch: 1000
next table: 1426
cur table: 1425
epoch: 1000
next table: 2344
cur table: 2345
epoch: 1000
next table: 1434
cur table: 1426
epoch: 1000
next table: 2393
cur table: 2344
epoch: 1000
next table: 1418
cur table: 1434
epoch: 1000
next table: 2153
cur table: 2393
epoch: 1000
next table: 1455
cur table: 1418
epoch: 1000
next table: 2416
cur table: 2153
epoch: 1000
next table: 1469
cur table: 1455
epoch: 1000
next table: 2460
cur table: 2416
epoch: 1000
next table: 1459
cur table: 1469
epoch: 1000
next table: 2372
cur table: 2460
epoch: 1000
next table: 1441
cur table: 1459
epoch: 1000
next table: 2355
cur table: 2372
epoch: 1000
next table: 1421
cur table: 1441
epoch: 1000
next table: 2366
cur table: 2355
epoch: 1000
next table: 1427
cur table: 1421
epoch: 1000
next table: 2271
cur table: 2366
epoch: 1000
next table: 1421
cur table: 1427
epoch: 1000
next table: 2380
cur table: 2271
epoch: 1000
next table: 1454
cur table: 1421
epoch: 1000
next table: 2325
cur table: 2380
epoch: 1000
next table: 1425
cur table: 1454
epoch: 1000
next table: 2259
cur table: 2325
epoch: 1000
next table: 1413
cur table: 1425
epoch: 1000
next table: 2068
cur table: 2259
epoch: 1000
next table: 1402
cur table: 1413
epoch: 1000
next table: 2325
cur table: 2068
epoch: 1000
next table: 1445
cur table: 1402
epoch: 1000
next table: 2324
cur table: 2325
epoch: 1000
next table: 1445
cur table: 1445
epoch: 1000
next table: 2358
cur table: 2324
epoch: 1000
next table: 1420
cur table: 1445
epoch: 1000
next table: 2329
cur table: 2358
epoch: 1000
next table: 1419
cur table: 1420
epoch: 1000
next table: 2360
cur table: 2329
epoch: 1000
next table: 1416
cur table: 1419
epoch: 1000
next table: 2303
cur table: 2360
epoch: 1000
next table: 1446
cur table: 1416
epoch: 1000
next table: 2342
cur table: 2303
epoch: 1000
next table: 1456
cur table: 1446
epoch: 1000
next table: 2253
cur table: 2342
epoch: 1000
next table: 1421
cur table: 1456
epoch: 1000
next table: 2175
cur table: 2253
epoch: 1000
next table: 1444
cur table: 1421
Heartbeat CPU 0 instructions: 40000002 cycles: 11789858 heartbeat IPC: 3.39282 cumulative IPC: 3.39275 (Simulation time: 0 hr 20 min 34 sec) 
epoch: 1000
next table: 2395
cur table: 2175
epoch: 1000
next table: 1430
cur table: 1444
epoch: 1000
next table: 2320
cur table: 2395
epoch: 1000
next table: 1413
cur table: 1430
epoch: 1000
next table: 2334
cur table: 2320
epoch: 1000
next table: 1450
cur table: 1413
epoch: 1000
next table: 2363
cur table: 2334
epoch: 1000
next table: 1462
cur table: 1450
epoch: 1000
next table: 2317
cur table: 2363
epoch: 1000
next table: 1417
cur table: 1462
epoch: 1000
next table: 2430
cur table: 2317
epoch: 1000
next table: 1431
cur table: 1417
epoch: 1000
next table: 2314
cur table: 2430
epoch: 1000
next table: 1434
cur table: 1431
epoch: 1000
next table: 2289
cur table: 2314
epoch: 1000
next table: 1414
cur table: 1434
epoch: 1000
next table: 2337
cur table: 2289
epoch: 1000
next table: 1456
cur table: 1414
epoch: 1000
next table: 2127
cur table: 2337
epoch: 1000
next table: 1419
cur table: 1456
epoch: 1000
next table: 2347
cur table: 2127
epoch: 1000
next table: 1427
cur table: 1419
epoch: 1000
next table: 2323
cur table: 2347
epoch: 1000
next table: 2357
cur table: 2323
epoch: 1000
next table: 1432
cur table: 1427
epoch: 1000
next table: 2336
cur table: 2357
epoch: 1000
next table: 1424
cur table: 1432
epoch: 1000
next table: 2438
cur table: 2336
epoch: 1000
next table: 1447
cur table: 1424
epoch: 1000
next table: 2418
cur table: 2438
epoch: 1000
next table: 1444
cur table: 1447
epoch: 1000
next table: 2250
cur table: 2418
epoch: 1000
next table: 1392
cur table: 1444
epoch: 1000
next table: 2335
cur table: 2250
epoch: 1000
next table: 1446
cur table: 1392
epoch: 1000
next table: 2154
cur table: 2335
epoch: 1000
next table: 1414
cur table: 1446
epoch: 1000
next table: 2426
cur table: 2154
epoch: 1000
next table: 1445
cur table: 1414
epoch: 1000
next table: 2283
cur table: 2426
epoch: 1000
next table: 1432
cur table: 1445
epoch: 1000
next table: 2338
cur table: 2283
epoch: 1000
next table: 1415
cur table: 1432
epoch: 1000
next table: 2366
cur table: 2338
epoch: 1000
next table: 1435
cur table: 1415
epoch: 1000
next table: 2331
cur table: 2366
epoch: 1000
next table: 1405
cur table: 1435
epoch: 1000
next table: 2384
cur table: 2331
epoch: 1000
next table: 1444
cur table: 1405
epoch: 1000
next table: 2269
cur table: 2384
epoch: 1000
next table: 1406
cur table: 1444
epoch: 1000
next table: 2284
cur table: 2269
epoch: 1000
next table: 1416
cur table: 1406
epoch: 1000
next table: 2061
cur table: 2284
epoch: 1000
next table: 1382
cur table: 1416
epoch: 1000
next table: 2321
cur table: 2061
epoch: 1000
next table: 1476
cur table: 1382
epoch: 1000
next table: 2319
cur table: 2321
epoch: 1000
next table: 1404
cur table: 1476
epoch: 1000
next table: 2261
cur table: 2319
epoch: 1000
next table: 1405
cur table: 1404
epoch: 1000
next table: 2387
cur table: 2261
epoch: 1000
next table: 1409
cur table: 1405
epoch: 1000
next table: 2328
cur table: 2387
epoch: 1000
next table: 1450
cur table: 1409
epoch: 1000
next table: 2308
cur table: 2328
epoch: 1000
next table: 1439
cur table: 1450
epoch: 1000
next table: 2049
cur table: 2308
epoch: 1000
next table: 1398
cur table: 1439
epoch: 1000
next table: 2369
cur table: 2049
epoch: 1000
next table: 1433
cur table: 1398
epoch: 1000
next table: 2388
cur table: 2369
epoch: 1000
next table: 1410
cur table: 1433
epoch: 1000
next table: 2273
cur table: 2388
epoch: 1000
next table: 1457
cur table: 1410
epoch: 1000
next table: 2333
cur table: 2273
epoch: 1000
next table: 1409
cur table: 1457
epoch: 1000
next table: 2339
cur table: 2333
epoch: 1000
next table: 1430
cur table: 1409
epoch: 1000
next table: 2393
cur table: 2339
epoch: 1000
next table: 1393
cur table: 1430
epoch: 1000
next table: 2285
cur table: 2393
epoch: 1000
next table: 1447
cur table: 1393
epoch: 1000
next table: 2303
cur table: 2285
epoch: 1000
next table: 1448
cur table: 1447
epoch: 1000
next table: 2122
cur table: 2303
epoch: 1000
next table: 1433
cur table: 1448
epoch: 1000
next table: 2430
cur table: 2122
epoch: 1000
next table: 1425
cur table: 1433
epoch: 1000
next table: 2456
cur table: 2430
epoch: 1000
next table: 1459
cur table: 1425
epoch: 1000
next table: 2208
cur table: 2456
epoch: 1000
next table: 1412
cur table: 1459
epoch: 1000
next table: 2352
cur table: 2208
epoch: 1000
next table: 1458
cur table: 1412
epoch: 1000
next table: 2318
cur table: 2352
epoch: 1000
next table: 1422
cur table: 1458
epoch: 1000
next table: 2449
cur table: 2318
epoch: 1000
next table: 1464
cur table: 1422
epoch: 1000
next table: 2384
cur table: 2449
epoch: 1000
next table: 1433
cur table: 1464
epoch: 1000
next table: 2257
cur table: 2384
epoch: 1000
next table: 1439
cur table: 1433
epoch: 1000
next table: 2352
cur table: 2257
epoch: 1000
next table: 1445
cur table: 1439
epoch: 1000
next table: 2055
cur table: 2352
epoch: 1000
next table: 1445
cur table: 1445
epoch: 1000
next table: 2493
cur table: 2055
epoch: 1000
next table: 1437
cur table: 1445
epoch: 1000
next table: 2383
cur table: 2493
epoch: 1000
next table: 1431
cur table: 1437
epoch: 1000
next table: 2257
cur table: 2383
epoch: 1000
next table: 1412
cur table: 1431
epoch: 1000
next table: 2348
cur table: 2257
epoch: 1000
next table: 1460
cur table: 1412
epoch: 1000
next table: 2359
cur table: 2348
epoch: 1000
next table: 1462
cur table: 1460
epoch: 1000
next table: 2454
cur table: 2359
epoch: 1000
next table: 1459
cur table: 1462
epoch: 1000
next table: 2409
cur table: 2454
epoch: 1000
next table: 1438
cur table: 1459
epoch: 1000
next table: 2395
cur table: 2409
epoch: 1000
next table: 1446
cur table: 1438
epoch: 1000
next table: 2393
cur table: 2395
epoch: 1000
next table: 1434
cur table: 1446
epoch: 1000
next table: 2336
cur table: 2393
epoch: 1000
next table: 1436
cur table: 1434
epoch: 1000
next table: 2048
cur table: 2336
epoch: 1000
next table: 1415
cur table: 1436
epoch: 1000
next table: 2403
cur table: 2048
epoch: 1000
next table: 1449
cur table: 1415
epoch: 1000
next table: 2448
cur table: 2403
epoch: 1000
next table: 1469
cur table: 1449
epoch: 1000
next table: 2417
cur table: 2448
epoch: 1000
next table: 1431
cur table: 1469
epoch: 1000
next table: 2261
cur table: 2417
epoch: 1000
next table: 1439
cur table: 1431
epoch: 1000
next table: 2354
cur table: 2261
epoch: 1000
next table: 1424
cur table: 1439
epoch: 1000
next table: 2327
cur table: 2354
epoch: 1000
next table: 1414
cur table: 1424
epoch: 1000
next table: 2412
cur table: 2327
epoch: 1000
next table: 1458
cur table: 1414
epoch: 1000
next table: 2310
cur table: 2412
epoch: 1000
next table: 1406
cur table: 1458
epoch: 1000
next table: 2370
cur table: 2310
epoch: 1000
next table: 1438
cur table: 1406
epoch: 1000
next table: 2314
cur table: 2370
epoch: 1000
next table: 1431
cur table: 1438
epoch: 1000
next table: 2143
cur table: 2314
epoch: 1000
next table: 1415
cur table: 1431
epoch: 1000
next table: 2375
cur table: 2143
epoch: 1000
next table: 1453
cur table: 1415
epoch: 1000
next table: 2261
cur table: 2375
epoch: 1000
next table: 1414
cur table: 1453
epoch: 1000
next table: 2369
cur table: 2261
epoch: 1000
next table: 1432
cur table: 1414
epoch: 1000
next table: 2327
cur table: 2369
epoch: 1000
next table: 1439
cur table: 1432
epoch: 1000
next table: 2390
cur table: 2327
epoch: 1000
next table: 1420
cur table: 1439
epoch: 1000
next table: 2340
cur table: 2390
epoch: 1000
next table: 1458
cur table: 1420
epoch: 1000
next table: 2355
cur table: 2340
epoch: 1000
next table: 1451
cur table: 1458
epoch: 1000
next table: 2311
cur table: 2355
epoch: 1000
next table: 1445
cur table: 1451
epoch: 1000
next table: 2163
cur table: 2311
epoch: 1000
next table: 1459
cur table: 1445
epoch: 1000
next table: 2334
cur table: 2163
epoch: 1000
next table: 1395
cur table: 1459
epoch: 1000
next table: 2249
cur table: 2334
epoch: 1000
next table: 1476
cur table: 1395
epoch: 1000
next table: 2364
cur table: 2249
epoch: 1000
next table: 1440
cur table: 1476
epoch: 1000
next table: 2375
cur table: 2364
epoch: 1000
next table: 1427
cur table: 1440
epoch: 1000
next table: 2427
cur table: 2375
epoch: 1000
next table: 1426
cur table: 1427
epoch: 1000
next table: 2365
cur table: 2427
epoch: 1000
next table: 1432
cur table: 1426
epoch: 1000
next table: 2353
cur table: 2365
epoch: 1000
next table: 1419
cur table: 1432
epoch: 1000
next table: 2325
cur table: 2353
epoch: 1000
next table: 1459
cur table: 1419
epoch: 1000
next table: 2087
cur table: 2325
epoch: 1000
next table: 1440
cur table: 1459
epoch: 1000
next table: 2397
cur table: 2087
epoch: 1000
next table: 1422
cur table: 1440
epoch: 1000
next table: 2400
cur table: 2397
epoch: 1000
next table: 1435
cur table: 1422
epoch: 1000
next table: 2326
cur table: 2400
epoch: 1000
next table: 1418
cur table: 1435
epoch: 1000
next table: 2347
cur table: 2326
epoch: 1000
next table: 1458
cur table: 1418
epoch: 1000
next table: 2366
cur table: 2347
epoch: 1000
next table: 1469
cur table: 1458
epoch: 1000
next table: 2295
cur table: 2366
epoch: 1000
next table: 1428
cur table: 1469
epoch: 1000
next table: 2422
cur table: 2295
epoch: 1000
next table: 1422
cur table: 1428
epoch: 1000
next table: 2323
cur table: 2422
epoch: 1000
next table: 1443
cur table: 1422
epoch: 1000
next table: 2340
cur table: 2323
epoch: 1000
next table: 1420
cur table: 1443
epoch: 1000
next table: 2360
cur table: 2340
epoch: 1000
next table: 1453
cur table: 1420
epoch: 1000
next table: 2457
cur table: 2360
epoch: 1000
next table: 1470
cur table: 1453
epoch: 1000
next table: 2212
cur table: 2457
epoch: 1000
next table: 1465
cur table: 1470
epoch: 1000
next table: 2358
cur table: 2212
epoch: 1000
next table: 1442
cur table: 1465
epoch: 1000
next table: 2383
cur table: 2358
epoch: 1000
next table: 1398
cur table: 1442
epoch: 1000
next table: 2293
cur table: 2383
epoch: 1000
next table: 2330
cur table: 2293
epoch: 1000
next table: 1420
cur table: 1398
epoch: 1000
next table: 2276
cur table: 2330
epoch: 1000
next table: 1456
cur table: 1420
epoch: 1000
next table: 2378
cur table: 2276
epoch: 1000
next table: 1446
cur table: 1456
epoch: 1000
next table: 2327
cur table: 2378
epoch: 1000
next table: 1426
cur table: 1446
epoch: 1000
next table: 2327
cur table: 2327
epoch: 1000
next table: 1417
cur table: 1426
epoch: 1000
next table: 2088
cur table: 2327
epoch: 1000
next table: 1408
cur table: 1417
epoch: 1000
next table: 2384
cur table: 2088
epoch: 1000
next table: 1434
cur table: 1408
epoch: 1000
next table: 2317
cur table: 2384
epoch: 1000
next table: 1439
cur table: 1434
epoch: 1000
next table: 2346
cur table: 2317
epoch: 1000
next table: 1396
cur table: 1439
epoch: 1000
next table: 2275
cur table: 2346
epoch: 1000
next table: 1421
cur table: 1396
epoch: 1000
next table: 2373
cur table: 2275
epoch: 1000
next table: 1409
cur table: 1421
epoch: 1000
next table: 2269
cur table: 2373
epoch: 1000
next table: 1429
cur table: 1409
epoch: 1000
next table: 2300
cur table: 2269
epoch: 1000
next table: 1405
cur table: 1429
epoch: 1000
next table: 2164
cur table: 2300
epoch: 1000
next table: 1441
cur table: 1405
epoch: 1000
next table: 2480
cur table: 2164
epoch: 1000
next table: 1416
cur table: 1441
epoch: 1000
next table: 2317
cur table: 2480
epoch: 1000
next table: 1443
cur table: 1416
epoch: 1000
next table: 2308
cur table: 2317
epoch: 1000
next table: 1437
cur table: 1443
epoch: 1000
next table: 2358
cur table: 2308
epoch: 1000
next table: 1426
cur table: 1437
epoch: 1000
next table: 2329
cur table: 2358
epoch: 1000
next table: 1428
cur table: 1426
epoch: 1000
next table: 2429
cur table: 2329
epoch: 1000
next table: 1406
cur table: 1428
epoch: 1000
next table: 2275
cur table: 2429
epoch: 1000
next table: 1450
cur table: 1406
epoch: 1000
next table: 2266
cur table: 2275
epoch: 1000
next table: 1411
cur table: 1450
epoch: 1000
next table: 2092
cur table: 2266
epoch: 1000
next table: 1418
cur table: 1411
epoch: 1000
next table: 2415
cur table: 2092
epoch: 1000
next table: 1436
cur table: 1418
epoch: 1000
next table: 2399
cur table: 2415
epoch: 1000
next table: 1419
cur table: 1436
epoch: 1000
next table: 2318
cur table: 2399
epoch: 1000
next table: 1471
cur table: 1419
epoch: 1000
next table: 2341
cur table: 2318
epoch: 1000
next table: 1439
cur table: 1471
epoch: 1000
next table: 2305
cur table: 2341
epoch: 1000
next table: 1422
cur table: 1439
epoch: 1000
next table: 2428
cur table: 2305
epoch: 1000
next table: 1436
cur table: 1422
epoch: 1000
next table: 2417
cur table: 2428
epoch: 1000
next table: 1424
cur table: 1436
epoch: 1000
next table: 2335
cur table: 2417
epoch: 1000
next table: 1444
cur table: 1424
epoch: 1000
next table: 2286
cur table: 2335
epoch: 1000
next table: 1443
cur table: 1444
epoch: 1000
next table: 2150
cur table: 2286
epoch: 1000
next table: 1423
cur table: 1443
epoch: 1000
next table: 2360
cur table: 2150
epoch: 1000
next table: 1432
cur table: 1423
epoch: 1000
next table: 2464
cur table: 2360
epoch: 1000
next table: 1429
cur table: 1432
epoch: 1000
next table: 2318
cur table: 2464
epoch: 1000
next table: 1414
cur table: 1429
epoch: 1000
next table: 2426
cur table: 2318
epoch: 1000
next table: 1460
cur table: 1414
epoch: 1000
next table: 2359
cur table: 2426
epoch: 1000
next table: 1467
cur table: 1460
epoch: 1000
next table: 2448
cur table: 2359
epoch: 1000
next table: 1460
cur table: 1467
epoch: 1000
next table: 2337
cur table: 2448
Heartbeat CPU 0 instructions: 50000003 cycles: 14737325 heartbeat IPC: 3.39274 cumulative IPC: 3.39275 (Simulation time: 0 hr 26 min 21 sec) 

Warmup complete CPU 0 instructions: 50000003 cycles: 14737325 (Simulation time: 0 hr 26 min 21 sec) 

epoch: 1000
next table: 2441
cur table: 2284
epoch: 1000
next table: 1417
cur table: 1437
epoch: 1000
next table: 2455
cur table: 2441
epoch: 1000
next table: 1451
cur table: 1417
epoch: 1000
next table: 2418
cur table: 2455
epoch: 1000
next table: 1434
cur table: 1451
epoch: 1000
next table: 2416
cur table: 2418
epoch: 1000
next table: 1418
cur table: 1434
epoch: 1000
next table: 2249
cur table: 2416
epoch: 1000
next table: 1476
cur table: 1418
epoch: 1000
next table: 2234
cur table: 2249
epoch: 1000
next table: 1415
cur table: 1476
epoch: 1000
next table: 2324
cur table: 2234
epoch: 1000
next table: 1463
cur table: 1415
epoch: 1000
next table: 2216
cur table: 2324
epoch: 1000
next table: 1437
cur table: 1463
epoch: 1000
next table: 2301
cur table: 2216
epoch: 1000
next table: 1435
cur table: 1437
epoch: 1000
next table: 2198
cur table: 2301
epoch: 1000
next table: 1434
cur table: 1435
epoch: 1000
next table: 2229
cur table: 2198
epoch: 1000
next table: 1434
cur table: 1434
epoch: 1000
next table: 2319
cur table: 2229
epoch: 1000
next table: 1426
cur table: 1434
epoch: 1000
next table: 2398
cur table: 2319
epoch: 1000
next table: 1455
cur table: 1426
epoch: 1000
next table: 2317
cur table: 2398
epoch: 1000
next table: 1441
cur table: 1455
epoch: 1000
next table: 2150
cur table: 2317
epoch: 1000
next table: 1409
cur table: 1441
epoch: 1000
next table: 2151
cur table: 2150
epoch: 1000
next table: 1428
cur table: 1409
epoch: 1000
next table: 2313
cur table: 2151
epoch: 1000
next table: 1407
cur table: 1428
epoch: 1000
next table: 2484
cur table: 2313
epoch: 1000
next table: 1447
cur table: 1407
epoch: 1000
next table: 2319
cur table: 2484
epoch: 1000
next table: 1422
cur table: 1447
epoch: 1000
next table: 2341
cur table: 2319
epoch: 1000
next table: 1404
cur table: 1422
epoch: 1000
next table: 2321
cur table: 2341
epoch: 1000
next table: 1422
cur table: 1404
epoch: 1000
next table: 2453
cur table: 2321
epoch: 1000
next table: 1452
cur table: 1422
epoch: 1000
next table: 2194
cur table: 2453
epoch: 1000
next table: 1445
cur table: 1452
epoch: 1000
next table: 2718
cur table: 2194
epoch: 1000
next table: 1428
cur table: 1445
epoch: 1000
next table: 2234
cur table: 2718
epoch: 1000
next table: 1485
cur table: 1428
epoch: 1000
next table: 2517
cur table: 2234
epoch: 1000
next table: 1407
cur table: 1485
epoch: 1000
next table: 2204
cur table: 2517
epoch: 1000
next table: 1418
cur table: 1407
epoch: 1000
next table: 2406
cur table: 2204
epoch: 1000
next table: 1449
cur table: 1418
epoch: 1000
next table: 2344
cur table: 2406
epoch: 1000
next table: 1457
cur table: 1449
epoch: 1000
next table: 2165
cur table: 2344
epoch: 1000
next table: 1453
cur table: 1457
epoch: 1000
next table: 2088
cur table: 2165
epoch: 1000
next table: 1457
cur table: 1453
epoch: 1000
next table: 2131
cur table: 2088
epoch: 1000
next table: 1411
cur table: 1457
epoch: 1000
next table: 2111
cur table: 2131
epoch: 1000
next table: 1452
cur table: 1411
epoch: 1000
next table: 2120
cur table: 2111
epoch: 1000
next table: 1429
cur table: 1452
epoch: 1000
next table: 2132
cur table: 2120
epoch: 1000
next table: 1438
cur table: 1429
epoch: 1000
next table: 2103
cur table: 2132
epoch: 1000
next table: 1461
cur table: 1438
epoch: 1000
next table: 2182
cur table: 2103
epoch: 1000
next table: 1418
cur table: 1461
epoch: 1000
next table: 2393
cur table: 2182
epoch: 1000
next table: 1479
cur table: 1418
epoch: 1000
next table: 2249
cur table: 2393
epoch: 1000
next table: 1470
cur table: 1479
epoch: 1000
next table: 2046
cur table: 2249
epoch: 1000
next table: 1426
cur table: 1470
epoch: 1000
next table: 2124
cur table: 2046
epoch: 1000
next table: 1441
cur table: 1426
epoch: 1000
next table: 2113
cur table: 2124
epoch: 1000
next table: 1474
cur table: 1441
epoch: 1000
next table: 2343
cur table: 2113
epoch: 1000
next table: 2126
cur table: 2343
epoch: 1000
next table: 1451
cur table: 1474
epoch: 1000
next table: 2309
cur table: 2126
epoch: 1000
next table: 1458
cur table: 1451
epoch: 1000
next table: 2290
cur table: 2309
epoch: 1000
next table: 1466
cur table: 1458
epoch: 1000
next table: 2152
cur table: 2290
epoch: 1000
next table: 1473
cur table: 1466
epoch: 1000
next table: 2244
cur table: 2152
epoch: 1000
next table: 1468
cur table: 1473
epoch: 1000
next table: 2111
cur table: 2244
epoch: 1000
next table: 1508
cur table: 1468
epoch: 1000
next table: 2244
cur table: 2111
epoch: 1000
next table: 1473
cur table: 1508
epoch: 1000
next table: 2321
cur table: 2244
epoch: 1000
next table: 1470
cur table: 1473
epoch: 1000
next table: 2082
cur table: 2321
epoch: 1000
next table: 1462
cur table: 1470
epoch: 1000
next table: 2273
cur table: 2082
epoch: 1000
next table: 1462
cur table: 1462
epoch: 1000
next table: 2172
cur table: 2273
epoch: 1000
next table: 1466
cur table: 1462
epoch: 1000
next table: 2296
cur table: 2172
epoch: 1000
next table: 1443
cur table: 1466
epoch: 1000
next table: 2252
cur table: 2296
epoch: 1000
next table: 1475
cur table: 1443
epoch: 1000
next table: 2167
cur table: 2252
epoch: 1000
next table: 2276
cur table: 2167
epoch: 1000
next table: 1459
cur table: 1475
epoch: 1000
next table: 2212
cur table: 2276
epoch: 1000
next table: 1466
cur table: 1459
epoch: 1000
next table: 2218
cur table: 2212
epoch: 1000
next table: 1465
cur table: 1466
epoch: 1000
next table: 2208
cur table: 2218
epoch: 1000
next table: 1427
cur table: 1465
epoch: 1000
next table: 2135
cur table: 2208
epoch: 1000
next table: 1438
cur table: 1427
epoch: 1000
next table: 2315
cur table: 2135
epoch: 1000
next table: 1453
cur table: 1438
epoch: 1000
next table: 2490
cur table: 2315
epoch: 1000
next table: 1426
cur table: 1453
epoch: 1000
next table: 2409
cur table: 2490
epoch: 1000
next table: 1439
cur table: 1426
epoch: 1000
next table: 2252
cur table: 2409
epoch: 1000
next table: 1433
cur table: 1439
epoch: 1000
next table: 2208
cur table: 2252
epoch: 1000
next table: 1426
cur table: 1433
epoch: 1000
next table: 2361
cur table: 2208
epoch: 1000
next table: 1455
cur table: 1426
epoch: 1000
next table: 2549
cur table: 2361
epoch: 1000
next table: 1456
cur table: 1455
epoch: 1000
next table: 2571
cur table: 2549
epoch: 1000
next table: 1422
cur table: 1456
epoch: 1000
next table: 2196
cur table: 2571
epoch: 1000
next table: 1426
cur table: 1422
epoch: 1000
next table: 2271
cur table: 2196
epoch: 1000
next table: 1438
cur table: 1426
epoch: 1000
next table: 2264
cur table: 2271
epoch: 1000
next table: 1417
cur table: 1438
epoch: 1000
next table: 2317
cur table: 2264
epoch: 1000
next table: 1460
cur table: 1417
epoch: 1000
next table: 2135
cur table: 2317
epoch: 1000
next table: 1462
cur table: 1460
epoch: 1000
next table: 2289
cur table: 2135
epoch: 1000
next table: 1450
cur table: 1462
epoch: 1000
next table: 2460
cur table: 2289
epoch: 1000
next table: 1430
cur table: 1450
epoch: 1000
next table: 2257
cur table: 2460
epoch: 1000
next table: 1452
cur table: 1430
epoch: 1000
next table: 2393
cur table: 2257
epoch: 1000
next table: 1446
cur table: 1452
epoch: 1000
next table: 2255
cur table: 2393
epoch: 1000
next table: 1426
cur table: 1446
epoch: 1000
next table: 2233
cur table: 2255
epoch: 1000
next table: 1452
cur table: 1426
epoch: 1000
next table: 2344
cur table: 2233
epoch: 1000
next table: 1442
cur table: 1452
epoch: 1000
next table: 2295
cur table: 2344
epoch: 1000
next table: 1403
cur table: 1442
epoch: 1000
next table: 2369
cur table: 2295
epoch: 1000
next table: 1447
cur table: 1403
epoch: 1000
next table: 2116
cur table: 2369
epoch: 1000
next table: 1431
cur table: 1447
epoch: 1000
next table: 2328
cur table: 2116
epoch: 1000
next table: 1457
cur table: 1431
epoch: 1000
next table: 2546
cur table: 2328
epoch: 1000
next table: 1456
cur table: 1457
epoch: 1000
next table: 2528
cur table: 2546
epoch: 1000
next table: 1425
cur table: 1456
epoch: 1000
next table: 2283
cur table: 2528
epoch: 1000
next table: 1427
cur table: 1425
epoch: 1000
next table: 2169
cur table: 2283
epoch: 1000
next table: 1471
cur table: 1427
epoch: 1000
next table: 2332
cur table: 2169
epoch: 1000
next table: 1428
cur table: 1471
epoch: 1000
next table: 2089
cur table: 2332
epoch: 1000
next table: 1461
cur table: 1428
epoch: 1000
next table: 2267
cur table: 2089
epoch: 1000
next table: 1452
cur table: 1461
epoch: 1000
next table: 2231
cur table: 2267
epoch: 1000
next table: 1433
cur table: 1452
epoch: 1000
next table: 2419
cur table: 2231
epoch: 1000
next table: 1424
cur table: 1433
epoch: 1000
next table: 2143
cur table: 2419
epoch: 1000
next table: 1423
cur table: 1424
epoch: 1000
next table: 2177
cur table: 2143
epoch: 1000
next table: 1433
cur table: 1423
epoch: 1000
next table: 2228
cur table: 2177
epoch: 1000
next table: 1454
cur table: 1433
epoch: 1000
next table: 2201
cur table: 2228
epoch: 1000
next table: 1442
cur table: 1454
epoch: 1000
next table: 2200
cur table: 2201
epoch: 1000
next table: 1408
cur table: 1442
epoch: 1000
next table: 2147
cur table: 2200
epoch: 1000
next table: 1440
cur table: 1408
epoch: 1000
next table: 2208
cur table: 2147
epoch: 1000
next table: 1417
cur table: 1440
epoch: 1000
next table: 2357
cur table: 2208
epoch: 1000
next table: 1454
cur table: 1417
epoch: 1000
next table: 2360
cur table: 2357
epoch: 1000
next table: 1456
cur table: 1454
epoch: 1000
next table: 2523
cur table: 2360
epoch: 1000
next table: 1406
cur table: 1456
epoch: 1000
next table: 2189
cur table: 2523
epoch: 1000
next table: 1417
cur table: 1406
epoch: 1000
next table: 2352
cur table: 2189
epoch: 1000
next table: 1425
cur table: 1417
epoch: 1000
next table: 2478
cur table: 2352
epoch: 1000
next table: 1441
cur table: 1425
epoch: 1000
next table: 2109
cur table: 2478
epoch: 1000
next table: 1438
cur table: 1441
epoch: 1000
next table: 2140
cur table: 2109
epoch: 1000
next table: 1432
cur table: 1438
epoch: 1000
next table: 2180
cur table: 2140
epoch: 1000
next table: 1434
cur table: 1432
epoch: 1000
next table: 2228
cur table: 2180
epoch: 1000
next table: 1434
cur table: 1434
epoch: 1000
next table: 2285
cur table: 2228
epoch: 1000
next table: 1454
cur table: 1434
epoch: 1000
next table: 2217
cur table: 2285
epoch: 1000
next table: 1464
cur table: 1454
epoch: 1000
next table: 2477
cur table: 2217
epoch: 1000
next table: 1469
cur table: 1464
epoch: 1000
next table: 2476
cur table: 2477
epoch: 1000
next table: 1475
cur table: 1469
epoch: 1000
next table: 2563
cur table: 2476
epoch: 1000
next table: 1458
cur table: 1475
epoch: 1000
next table: 2435
cur table: 2563
epoch: 1000
next table: 1433
cur table: 1458
epoch: 1000
next table: 2240
cur table: 2435
epoch: 1000
next table: 1415
cur table: 1433
epoch: 1000
next table: 2392
cur table: 2240
epoch: 1000
next table: 1437
cur table: 1415
epoch: 1000
next table: 2272
cur table: 2392
epoch: 1000
next table: 1435
cur table: 1437
epoch: 1000
next table: 2339
cur table: 2272
epoch: 1000
next table: 1462
cur table: 1435
epoch: 1000
next table: 2400
cur table: 2339
epoch: 1000
next table: 1445
cur table: 1462
epoch: 1000
next table: 2229
cur table: 2400
epoch: 1000
next table: 1426
cur table: 1445
epoch: 1000
next table: 2208
cur table: 2229
epoch: 1000
next table: 1418
cur table: 1426
epoch: 1000
next table: 2320
cur table: 2208
epoch: 1000
next table: 1423
cur table: 1418
epoch: 1000
next table: 2388
cur table: 2320
epoch: 1000
next table: 1455
cur table: 1423
epoch: 1000
next table: 2259
cur table: 2388
epoch: 1000
next table: 1452
cur table: 1455
epoch: 1000
next table: 2308
cur table: 2259
epoch: 1000
next table: 1434
cur table: 1452
epoch: 1000
next table: 2341
cur table: 2308
epoch: 1000
next table: 1457
cur table: 1434
epoch: 1000
next table: 2273
cur table: 2341
epoch: 1000
next table: 1430
cur table: 1457
epoch: 1000
next table: 2167
cur table: 2273
epoch: 1000
next table: 1419
cur table: 1430
epoch: 1000
next table: 2315
cur table: 2167
epoch: 1000
next table: 1434
cur table: 1419
epoch: 1000
next table: 2188
cur table: 2315
epoch: 1000
next table: 1455
cur table: 1434
epoch: 1000
next table: 2334
cur table: 2188
epoch: 1000
next table: 2098
cur table: 2334
epoch: 1000
next table: 1441
cur table: 1455
epoch: 1000
next table: 2117
cur table: 2098
epoch: 1000
next table: 1431
cur table: 1441
epoch: 1000
next table: 2325
cur table: 2117
epoch: 1000
next table: 1440
cur table: 1431
epoch: 1000
next table: 2360
cur table: 2325
epoch: 1000
next table: 1426
cur table: 1440
epoch: 1000
next table: 2340
cur table: 2360
epoch: 1000
next table: 1457
cur table: 1426
epoch: 1000
next table: 2268
cur table: 2340
epoch: 1000
next table: 1444
cur table: 1457
epoch: 1000
next table: 2231
cur table: 2268
epoch: 1000
next table: 1409
cur table: 1444
epoch: 1000
next table: 2167
cur table: 2231
epoch: 1000
next table: 1482
cur table: 1409
epoch: 1000
next table: 2292
cur table: 2167
epoch: 1000
next table: 1439
cur table: 1482
epoch: 1000
next table: 2344
cur table: 2292
epoch: 1000
next table: 1448
cur table: 1439
epoch: 1000
next table: 2389
cur table: 2344
epoch: 1000
next table: 1442
cur table: 1448
Heartbeat CPU 0 instructions: 60000000 cycles: 23743206 heartbeat IPC: 1.11039 cumulative IPC: 1.11039 (Simulation time: 0 hr 31 min 19 sec) 
epoch: 1000
next table: 2344
cur table: 2389
epoch: 1000
next table: 1429
cur table: 1442
epoch: 1000
next table: 2195
cur table: 2344
epoch: 1000
next table: 1438
cur table: 1429
epoch: 1000
next table: 2205
cur table: 2195
epoch: 1000
next table: 1443
cur table: 1438
epoch: 1000
next table: 2503
cur table: 2205
epoch: 1000
next table: 1426
cur table: 1443
epoch: 1000
next table: 2477
cur table: 2503
epoch: 1000
next table: 1454
cur table: 1426
epoch: 1000
next table: 2331
cur table: 2477
epoch: 1000
next table: 1447
cur table: 1454
epoch: 1000
next table: 2193
cur table: 2331
epoch: 1000
next table: 1438
cur table: 1447
epoch: 1000
next table: 2143
cur table: 2193
epoch: 1000
next table: 1434
cur table: 1438
epoch: 1000
next table: 2294
cur table: 2143
epoch: 1000
next table: 1428
cur table: 1434
epoch: 1000
next table: 2130
cur table: 2294
epoch: 1000
next table: 1425
cur table: 1428
epoch: 1000
next table: 2140
cur table: 2130
epoch: 1000
next table: 1453
[...]
epoch: 1000
next table: 2329
cur table: 2375
epoch: 1000
next table: 1434
cur table: 1449
epoch: 1000
next table: 2149
cur table: 2329
epoch: 1000
next table: 1424
cur table: 1434
epoch: 1000
next table: 2332
cur table: 2149
epoch: 1000
next table: 1452
cur table: 1424
epoch: 1000
next table: 2684
cur table: 2332
epoch: 1000
next table: 1441
cur table: 1452
epoch: 1000
next table: 2235
cur table: 2684
epoch: 1000
next table: 1433
cur table: 1441
epoch: 1000
next table: 2176
cur table: 2235
epoch: 1000
next table: 1405
cur table: 1433
epoch: 1000
next table: 2349
cur table: 2176
epoch: 1000
next table: 1441
cur table: 1405
epoch: 1000
next table: 2314
cur table: 2349
epoch: 1000
next table: 1438
cur table: 1441
epoch: 1000
next table: 2539
cur table: 2314
epoch: 1000
next table: 1453
cur table: 1438
epoch: 1000
next table: 2478
cur table: 2539
epoch: 1000
next table: 1453
cur table: 1453
epoch: 1000
next table: 2264
cur table: 2478
epoch: 1000
next table: 1405
cur table: 1453
epoch: 1000
next table: 2146
cur table: 2264
epoch: 1000
next table: 1448
cur table: 1405
epoch: 1000
next table: 2462
cur table: 2146
epoch: 1000
next table: 1419
cur table: 1448
epoch: 1000
next table: 2655
cur table: 2462
epoch: 1000
next table: 1469
cur table: 1419
epoch: 1000
next table: 2309
cur table: 2655
epoch: 1000
next table: 1452
cur table: 1469
epoch: 1000
next table: 2422
cur table: 2309
epoch: 1000
next table: 1435
cur table: 1452
epoch: 1000
next table: 2343
cur table: 2422
epoch: 1000
next table: 1408
cur table: 1435
epoch: 1000
next table: 2211
cur table: 2343
epoch: 1000
next table: 1485
cur table: 1408
epoch: 1000
next table: 2534
cur table: 2211
epoch: 1000
next table: 1419
cur table: 1485
epoch: 1000
next table: 2256
cur table: 2534
epoch: 1000
next table: 1459
cur table: 1419
epoch: 1000
next table: 2545
cur table: 2256
epoch: 1000
next table: 1450
cur table: 1459
epoch: 1000
next table: 2295
cur table: 2545
epoch: 1000
next table: 1431
cur table: 1450
epoch: 1000
next table: 2141
cur table: 2295
epoch: 1000
next table: 1417
cur table: 1431
epoch: 1000
next table: 2488
cur table: 2141
epoch: 1000
next table: 1421
cur table: 1417
epoch: 1000
next table: 2185
cur table: 2488
epoch: 1000
next table: 1452
cur table: 1421
epoch: 1000
next table: 2335
cur table: 2185
epoch: 1000
next table: 1453
cur table: 1452
epoch: 1000
next table: 2373
cur table: 2335
epoch: 1000
next table: 1428
cur table: 1453
epoch: 1000
next table: 2237
cur table: 2373
epoch: 1000
next table: 1426
cur table: 1428
epoch: 1000
next table: 2370
cur table: 2237
epoch: 1000
next table: 1428
cur table: 1426
epoch: 1000
next table: 2180
cur table: 2370
epoch: 1000
next table: 1417
cur table: 1428
epoch: 1000
next table: 2374
cur table: 2180
epoch: 1000
next table: 1454
cur table: 1417
epoch: 1000
next table: 2307
cur table: 2374
epoch: 1000
next table: 1431
cur table: 1454
epoch: 1000
next table: 2356
cur table: 2307
epoch: 1000
next table: 1471
cur table: 1431
epoch: 1000
next table: 2434
cur table: 2356
epoch: 1000
next table: 1462
cur table: 1471
epoch: 1000
next table: 2527
cur table: 2434
epoch: 1000
next table: 1467
cur table: 1462
epoch: 1000
next table: 2523
cur table: 2527
epoch: 1000
next table: 1451
cur table: 1467
epoch: 1000
next table: 2394
cur table: 2523
epoch: 1000
next table: 1452
cur table: 1451
epoch: 1000
next table: 2259
cur table: 2394
Heartbeat CPU 0 instructions: 100000000 cycles: 59856578 heartbeat IPC: 1.1088 cumulative IPC: 1.10817 (Simulation time: 0 hr 54 min 20 sec) 
Finished CPU 0 instructions: 50000000 cycles: 45119270 cumulative IPC: 1.10817 (Simulation time: 0 hr 54 min 20 sec) 

ChampSim completed all CPUs

Region of Interest Statistics

CPU 0 cumulative IPC: 1.10817 instructions: 50000000 cycles: 45119270
ITLB TOTAL     ACCESS:    6035283  HIT:    6035283  MISS:          0  HIT %:        100  MISS %:          0   MPKI: 0
ITLB LOAD TRANSLATION ACCESS:    6035283  HIT:    6035283  MISS:          0  HIT %:        100  MISS %:          0   MPKI: 0
ITLB PREFETCH  REQUESTED:          0  ISSUED:          0  USEFUL:          0  USELESS:          0
ITLB USEFUL LOAD PREFETCHES:          0 PREFETCH ISSUED TO LOWER LEVEL:          0  ACCURACY: -nan
ITLB TIMELY PREFETCHES:          0 LATE PREFETCHES: 0 DROPPED PREFETCHES: 0
ITLB PREFETCHES SAME FILL-ORIGIN LEVEL: 0 DIFFERENT FILL-ORIGIN LEVEL: 0
ITLB AVERAGE MISS LATENCY: -nan cycles
ITLB RQ	ACCESS:    7014809	FORWARD:          0	MERGED:     979526	TO_CACHE:    6035283

Revised Interactions: positive negative neutral
ITLB_interactions 0 0 0 -nan -nan -nan
DTLB TOTAL     ACCESS:   12522735  HIT:   12412232  MISS:     110503  HIT %:    99.1176  MISS %:   0.882419   MPKI: 2.21006
DTLB LOAD TRANSLATION ACCESS:   12522735  HIT:   12412232  MISS:     110503  HIT %:    99.1176  MISS %:   0.882419   MPKI: 2.21006
DTLB PREFETCH  REQUESTED:          0  ISSUED:          0  USEFUL:          0  USELESS:          0
DTLB USEFUL LOAD PREFETCHES:          0 PREFETCH ISSUED TO LOWER LEVEL:          0  ACCURACY: -nan
DTLB TIMELY PREFETCHES:          0 LATE PREFETCHES: 0 DROPPED PREFETCHES: 0
DTLB PREFETCHES SAME FILL-ORIGIN LEVEL: 0 DIFFERENT FILL-ORIGIN LEVEL: 0
DTLB AVERAGE MISS LATENCY: 44.1446 cycles
DTLB RQ	ACCESS:   18661804	FORWARD:          0	MERGED:    6133286	TO_CACHE:   12528518

Revised Interactions: positive negative neutral
DTLB_interactions 0 0 0 -nan -nan -nan
STLB TOTAL     ACCESS:     110503  HIT:      99845  MISS:      10658  HIT %:     90.355  MISS %:    9.64499   MPKI: 0.21316
STLB LOAD TRANSLATION ACCESS:     110503  HIT:      99845  MISS:      10658  HIT %:     90.355  MISS %:    9.64499   MPKI: 0.21316
STLB PREFETCH  REQUESTED:          0  ISSUED:          0  USEFUL:          0  USELESS:          0
STLB USEFUL LOAD PREFETCHES:          0 PREFETCH ISSUED TO LOWER LEVEL:          0  ACCURACY: -nan
STLB TIMELY PREFETCHES:          0 LATE PREFETCHES: 0 DROPPED PREFETCHES: 0
STLB PREFETCHES SAME FILL-ORIGIN LEVEL: 0 DIFFERENT FILL-ORIGIN LEVEL: 0
STLB AVERAGE MISS LATENCY: 356.82 cycles
STLB RQ	ACCESS:     110503	FORWARD:          0	MERGED:          0	TO_CACHE:     110503

Revised Interactions: positive negative neutral
STLB_interactions 0 0 0 -nan -nan -nan
STLB Hit, L1D data hit: 0
STLB Hit, L2C data hit: 0
STLB Hit, LLC data hit: 0
STLB Hit, LLC data miss: 0
STLB STLB hints to L2: 0
L1D TOTAL     ACCESS:   17842854  HIT:   16992512  MISS:     850342  HIT %:    95.2343  MISS %:    4.76573   MPKI: 17.0068
L1D LOAD      ACCESS:    9492991  HIT:    8958786  MISS:     534205  HIT %:    94.3726  MISS %:    5.62736   MPKI: 10.6841
L1D RFO       ACCESS:    8349863  HIT:    8033726  MISS:     316137  HIT %:    96.2139  MISS %:    3.78613   MPKI: 6.32274
L1D PREFETCH  REQUESTED:          0  ISSUED:          0  USEFUL:          0  USELESS:          0
L1D USEFUL LOAD PREFETCHES:          0 PREFETCH ISSUED TO LOWER LEVEL:          0  ACCURACY: -nan
L1D TIMELY PREFETCHES:          0 LATE PREFETCHES: 0 DROPPED PREFETCHES: 0
L1D PREFETCHES SAME FILL-ORIGIN LEVEL: 0 DIFFERENT FILL-ORIGIN LEVEL: 0
L1D AVERAGE MISS LATENCY: 149.366 cycles
L1D RQ	ACCESS:   14260698	FORWARD:          0	MERGED:    4689016	TO_CACHE:    9501653
L1D WQ	ACCESS:    9162268	FORWARD:      70029	MERGED:       2117	TO_CACHE:    9160151

Revised Interactions: positive negative neutral
L1D_interactions 0 0 0 -nan -nan -nan
L1D UNIQUE REGIONS ACCESSED: 0
L1D REGIONS CONFLICTS: 0
L1D Cross Page Prefetch Requests: 0
L1D Same Page Prefetch Requests: 0
L1D ROI Sum of L1D PQ occupancy: 0
L1D PREFETCHES PUSHED FROM L2C: 0
L1I TOTAL     ACCESS:    7014807  HIT:    7014807  MISS:          0  HIT %:        100  MISS %:          0   MPKI: 0
L1I LOAD      ACCESS:    7014807  HIT:    7014807  MISS:          0  HIT %:        100  MISS %:          0   MPKI: 0
L1I PREFETCH  REQUESTED:          0  ISSUED:          0  USEFUL:          0  USELESS:          0
L1I USEFUL LOAD PREFETCHES:          0 PREFETCH ISSUED TO LOWER LEVEL:          0  ACCURACY: -nan
L1I TIMELY PREFETCHES:          0 LATE PREFETCHES: 0 DROPPED PREFETCHES: 0
L1I PREFETCHES SAME FILL-ORIGIN LEVEL: 0 DIFFERENT FILL-ORIGIN LEVEL: 0
L1I AVERAGE MISS LATENCY: -nan cycles
L1I RQ	ACCESS:   10117854	FORWARD:          0	MERGED:    3103045	TO_CACHE:    7014809

Revised Interactions: positive negative neutral
L1I_interactions 0 0 0 -nan -nan -nan
BTB TOTAL     ACCESS:     421996  HIT:     421991  MISS:          5  HIT %:    99.9988  MISS %: 0.00118485   MPKI: 0.0001
BTB BRANCH_DIRECT_JUMP	ACCESS:          0  HIT:          0  MISS:          0
BTB BRANCH_INDIRECT	ACCESS:          0  HIT:          0  MISS:          0
BTB BRANCH_CONDITIONAL	ACCESS:     421996  HIT:     421991  MISS:          5
BTB BRANCH_DIRECT_CALL	ACCESS:          0  HIT:          0  MISS:          0
BTB BRANCH_INDIRECT_CALL	ACCESS:          0  HIT:          0  MISS:          0
BTB BRANCH_RETURN	ACCESS:          0  HIT:          0  MISS:          0
BTB BRANCH_OTHER ACCESS:          0  HIT:          0  MISS:          0

L2C TOTAL     ACCESS:    1722251  HIT:     982908  MISS:     739343  HIT %:    57.0711  MISS %:    42.9289   MPKI: 14.7869
L2C LOAD      ACCESS:     534092  HIT:     513391  MISS:      20701  HIT %:    96.1241  MISS %:    3.87592   MPKI: 0.41402
L2C DATA LOAD MPKI: 0.41402
L2C INSTRUCTION LOAD MPKI: 0
L2C RFO       ACCESS:     305812  HIT:       8117  MISS:     297695  HIT %:    2.65425  MISS %:    97.3458   MPKI: 5.9539
L2C PREFETCH  ACCESS:     551374  HIT:     135513  MISS:     415861  HIT %:    24.5773  MISS %:    75.4227   MPKI: 8.31722
L2C DATA PREFETCH MPKI: 8.31722
L2C INSTRUCTION PREFETCH MPKI: 0
L2C WRITEBACK ACCESS:     320307  HIT:     317005  MISS:       3302  HIT %:    98.9691  MISS %:    1.03089   MPKI: 0.06604
L2C LOAD TRANSLATION ACCESS:      10666  HIT:       8882  MISS:       1784  HIT %:     83.274  MISS %:     16.726   MPKI: 0.03568
L2C PREFETCH  REQUESTED:     551479  ISSUED:     551479  USEFUL:     406852  USELESS:       9028
L2C USEFUL LOAD PREFETCHES:     406852 PREFETCH ISSUED TO LOWER LEVEL:     415955  ACCURACY: 97.8115
L2C TIMELY PREFETCHES:     406852 LATE PREFETCHES: 94 DROPPED PREFETCHES: 0
L2C PREFETCHES SAME FILL-ORIGIN LEVEL: 415955 DIFFERENT FILL-ORIGIN LEVEL: 0
L2C AVERAGE MISS LATENCY: 285.866 cycles
L2C RQ	ACCESS:     861009	FORWARD:          0	MERGED:          0	TO_CACHE:     850571
L2C WQ	ACCESS:     320307	FORWARD:      10438	MERGED:          0	TO_CACHE:     320307
L2C PQ	ACCESS:     551479	FORWARD:          0	MERGED:          0	TO_CACHE:     551479

Revised Interactions: positive negative neutral
L2C_interactions 403327 4877 7884 96.9331 1.17211 1.89479
L2C Instructions Evicting Data 0
L2C Translations Evicting Data 1742
L2C Data Evicting Data 732614
L2C Instructions Evicting Instructions 0
L2C Translations Evicting Instructions 0
L2C Data Evicting Instructions 0
L2C Instructions Evicting Translations 0
L2C Translations Evicting Translations 42
L2C Data Evicting Translations 1643
L2C Dense regions hint from L2: 0
PSCL5 TOTAL     ACCESS:      10658  HIT:      10658  MISS:          0  HIT %:        100  MISS %:          0   MPKI: 0
PSCL5 LOAD TRANSLATION ACCESS:      10658  HIT:      10658  MISS:          0  HIT %:        100  MISS %:          0   MPKI: 0
PSCL5 PREFETCH  REQUESTED:          0  ISSUED:          0  USEFUL:          0  USELESS:          0
PSCL5 USEFUL LOAD PREFETCHES:          0 PREFETCH ISSUED TO LOWER LEVEL:          0  ACCURACY: -nan
PSCL5 TIMELY PREFETCHES:          0 LATE PREFETCHES: 0 DROPPED PREFETCHES: 0
PSCL5 PREFETCHES SAME FILL-ORIGIN LEVEL: 0 DIFFERENT FILL-ORIGIN LEVEL: 0

Revised Interactions: positive negative neutral
PSCL5_interactions 0 0 0 -nan -nan -nan
PSCL4 TOTAL     ACCESS:      10658  HIT:      10658  MISS:          0  HIT %:        100  MISS %:          0   MPKI: 0
PSCL4 LOAD TRANSLATION ACCESS:      10658  HIT:      10658  MISS:          0  HIT %:        100  MISS %:          0   MPKI: 0
PSCL4 PREFETCH  REQUESTED:          0  ISSUED:          0  USEFUL:          0  USELESS:          0
PSCL4 USEFUL LOAD PREFETCHES:          0 PREFETCH ISSUED TO LOWER LEVEL:          0  ACCURACY: -nan
PSCL4 TIMELY PREFETCHES:          0 LATE PREFETCHES: 0 DROPPED PREFETCHES: 0
PSCL4 PREFETCHES SAME FILL-ORIGIN LEVEL: 0 DIFFERENT FILL-ORIGIN LEVEL: 0

Revised Interactions: positive negative neutral
PSCL4_interactions 0 0 0 -nan -nan -nan
PSCL3 TOTAL     ACCESS:       8505  HIT:       8499  MISS:          6  HIT %:    99.9295  MISS %:  0.0705467   MPKI: 0.00012
PSCL3 LOAD TRANSLATION ACCESS:       8505  HIT:       8499  MISS:          6  HIT %:    99.9295  MISS %:  0.0705467   MPKI: 0.00012
PSCL3 PREFETCH  REQUESTED:          0  ISSUED:          0  USEFUL:          0  USELESS:          0
PSCL3 USEFUL LOAD PREFETCHES:          0 PREFETCH ISSUED TO LOWER LEVEL:          0  ACCURACY: -nan
PSCL3 TIMELY PREFETCHES:          0 LATE PREFETCHES: 0 DROPPED PREFETCHES: 0
PSCL3 PREFETCHES SAME FILL-ORIGIN LEVEL: 0 DIFFERENT FILL-ORIGIN LEVEL: 0

Revised Interactions: positive negative neutral
PSCL3_interactions 0 0 0 -nan -nan -nan
PSCL2 TOTAL     ACCESS:      10658  HIT:      10638  MISS:         20  HIT %:    99.8123  MISS %:   0.187652   MPKI: 0.0004
PSCL2 LOAD TRANSLATION ACCESS:      10658  HIT:      10638  MISS:         20  HIT %:    99.8123  MISS %:   0.187652   MPKI: 0.0004
PSCL2 PREFETCH  REQUESTED:          0  ISSUED:          0  USEFUL:          0  USELESS:          0
PSCL2 USEFUL LOAD PREFETCHES:          0 PREFETCH ISSUED TO LOWER LEVEL:          0  ACCURACY: -nan
PSCL2 TIMELY PREFETCHES:          0 LATE PREFETCHES: 0 DROPPED PREFETCHES: 0
PSCL2 PREFETCHES SAME FILL-ORIGIN LEVEL: 0 DIFFERENT FILL-ORIGIN LEVEL: 0

Revised Interactions: positive negative neutral
PSCL2_interactions 0 0 0 -nan -nan -nan
LLC TOTAL     ACCESS:    1034508  HIT:      14752  MISS:    1019756  HIT %:    1.42599  MISS %:     98.574   MPKI: 20.3951
LLC LOAD      ACCESS:      20607  HIT:       2300  MISS:      18307  HIT %:    11.1613  MISS %:    88.8387   MPKI: 0.36614
LLC RFO       ACCESS:     297695  HIT:          0  MISS:     297695  HIT %:          0  MISS %:        100   MPKI: 5.9539
LLC PREFETCH  ACCESS:     415954  HIT:       6648  MISS:     409306  HIT %:    1.59825  MISS %:    98.4017   MPKI: 8.18612
LLC WRITEBACK ACCESS:     298468  HIT:       5474  MISS:     292994  HIT %:    1.83403  MISS %:     98.166   MPKI: 5.85988
LLC LOAD TRANSLATION ACCESS:       1784  HIT:        330  MISS:       1454  HIT %:    18.4978  MISS %:    81.5022   MPKI: 0.02908
LLC PREFETCH  REQUESTED:          0  ISSUED:          0  USEFUL:        378  USELESS:     409473
LLC USEFUL LOAD PREFETCHES:        378 PREFETCH ISSUED TO LOWER LEVEL:     409306  ACCURACY: 0.0923514
LLC TIMELY PREFETCHES:        378 LATE PREFETCHES: 0 DROPPED PREFETCHES: 0
LLC PREFETCHES SAME FILL-ORIGIN LEVEL: 0 DIFFERENT FILL-ORIGIN LEVEL: 0
LLC AVERAGE MISS LATENCY: 184.995 cycles
LLC RQ	ACCESS:     320087	FORWARD:          0	MERGED:          0	TO_CACHE:     320087
LLC WQ	ACCESS:     298468	FORWARD:          1	MERGED:          0	TO_CACHE:     298468
LLC PQ	ACCESS:     415955	FORWARD:          0	MERGED:          0	TO_CACHE:     415954

Revised Interactions: positive negative neutral
LLC_interactions 1534 406731 96934 0.303643 80.5091 19.1873
LLC Dense regions hint to LLC: 0

RAW hits: 400769
Loads Generated: 14661468
Loads sent to L1D: 14260698
Stores Generated: 9162260
Stores sent to L1D: 9162268
Major fault: 0 Minor fault: 20761
Allocated PAGES: 20761
[Bingo] PHT Access: 21485
[Bingo] PHT Hit PC+Addr: 393
[Bingo] PHT Hit PC+Offs: 20981
[Bingo] PHT Miss: 111
[Bingo] Prefetch PC+Addr: 0
[Bingo] Prefetch PC+Offs: 0
[Bingo] Useful PC+Addr: 0
[Bingo] Useful PC+Offs: 0
[Bingo] Useless PC+Addr: 0
[Bingo] Useless PC+Offs: 0
[Bingo] L1 Prefetch per Region: 0
[Bingo] L2 Prefetch per Region: 27.8715
[Bingo] L3 Prefetch per Region: 0
[Bingo] No Prefetch per Region: 4.12852
[Bingo] Number of Voters Mean: 14.953
[Bingo] Number of Voters SD: 14.1112
PHT read accesses: 323715
PHT write accesses: 19995
AT read accesses: 526885
AT write accesses: 531081
FT read accesses: 64519
FT write accesses: 21485
PS read accesses: 76011
PS write accesses: 21374
PHT tag read accesses: 962028
PHT tag write accesses: 20388
AT tag read accesses: 21208072
AT tag write accesses: 546880
FT tag read accesses: 13211964
FT tag write accesses: 64488
PS tag read accesses: 9232890
PS tag write accesses: 95771

DRAM Statistics
 CHANNEL 0
 RQ ROW_BUFFER_HIT:     480682  ROW_BUFFER_MISS:     246080
 DBUS_CONGESTED:        171
 WQ ROW_BUFFER_HIT:     114112  ROW_BUFFER_MISS:     185206  FULL:        566

 AVG_CONGESTED_CYCLE: 3
 All warmup complete: 2
Channel 0 Bank busy for read cycles: 0
Channel 0 Bank busy for write cycles: 0
Channel 0
Rank 0
0banks busy for read cycles: 5441145
0banks busy for write cycles: 55368
1banks busy for read cycles: 20019907
1banks busy for write cycles: 6290428
2banks busy for read cycles: 867441
2banks busy for write cycles: 2088683
3banks busy for read cycles: 371355
3banks busy for write cycles: 895351
4banks busy for read cycles: 335937
4banks busy for write cycles: 508395
5banks busy for read cycles: 293237
5banks busy for write cycles: 414779
6banks busy for read cycles: 293952
6banks busy for write cycles: 407191
7banks busy for read cycles: 694845
7banks busy for write cycles: 562961
8banks busy for read cycles: 3595046
8banks busy for write cycles: 1983250

CPU 0 Branch Prediction Accuracy: 80.6206% MPKI: 1.63562 Average ROB Occupancy at Mispredict: 84.3432
Branch types
NOT_BRANCH: 49577687 99.1554%
BRANCH_DIRECT_JUMP: 0 0%
BRANCH_INDIRECT: 0 0%
BRANCH_CONDITIONAL: 421999 0.843998%
BRANCH_DIRECT_CALL: 0 0%
BRANCH_INDIRECT_CALL: 0 0%
BRANCH_RETURN: 0 0%
BRANCH_OTHER: 0 0%

@sumon_overall_L1D         0         0         0         0         0         0         0
@Sumon_Early_by_class_L1D         0         0         0         0
@Sumon_Late_by_class_L1D         0         0         0         0

@Sumon_Early_by_cycle_L1D         0         0         0         0         0         0         0         0         0         0         0         0
@Sumon_Late_by_cycle_L1D         0         0         0         0         0         0
@Sumon_Early_stream_L1D         0         0         0         0         0         0         0         0         0         0         0         0
@Sumon_Early_CS_L1D         0         0         0         0         0         0         0         0         0         0         0         0
@Sumon_Early_CPLX_L1D         0         0         0         0         0         0         0         0         0         0         0         0
@Sumon_Late_stream_L1D         0         0         0         0         0         0
@Sumon_Late_CS_L1D         0         0         0         0         0         0
@Sumon_Late_CPLX_L1D         0         0         0         0         0         0
@sumon_overall_L2C    406852        94         0      9028    415861    551479    551479
@Sumon_Early_by_class_L2C         0         0         0         0
@Sumon_Late_by_class_L2C         0         0         0         0

@Sumon_Early_by_cycle_L2C        39        91       149      2908      6299     18110     36315     67171    142152    131805        24      1789
@Sumon_Late_by_cycle_L2C         4         9        22         8        51         0
@Sumon_Early_stream_L2C         0         0         0         0         0         0         0         0         0         0         0         0
@Sumon_Early_CS_L2C         0         0         0         0         0         0         0         0         0         0         0         0
@Sumon_Early_CPLX_L2C         0         0         0         0         0         0         0         0         0         0         0         0
@Sumon_Late_stream_L2C         0         0         0         0         0         0
@Sumon_Late_CS_L2C         0         0         0         0         0         0
@Sumon_Late_CPLX_L2C         0         0         0         0         0         0
DRAM PAGES: 1048576
Allocated PAGES: 20761
