
*** ChampSim Multicore Out-of-Order Simulator ***

Warmup Instructions: 50000000
Simulation Instructions: 50000000
Number of CPUs: 1
LLC sets: 2048
LLC ways: 16
Off-chip DRAM Size: 4096 MB Channels: 1 Width: 64-bit Data Rate: 6400 MT/s
CPU 0 runs ../../biswa/SPEC2017Traces/605.mcf_s-484B.champsimtrace.xz
.xz
CPU 0 Bimodal branch predictor
BTB has LRU replacement policy
ITLB has LRU replacement policy
DTLB has LRU replacement policy
STLB has LRU replacement policy
L1I has LRU replacement policy
L1D has LRU replacement policy
Bingo PHT WAYS: 16 and PHT_SIZE: 16384
Initialize DRRIP state for L2C
Initialize SRRIP state
epoch: 1000
next table: 2149
cur table: 8781
epoch: 1000
next table: 1873
cur table: 2149
epoch: 1000
next table: 1828
cur table: 1873
epoch: 1000
next table: 1810
cur table: 1828
epoch: 1000
next table: 1691
cur table: 1810
epoch: 1000
next table: 1485
cur table: 1691
epoch: 1000
next table: 1829
cur table: 1485
epoch: 1000
next table: 1725
cur table: 1829
epoch: 1000
next table: 1786
cur table: 1725
epoch: 1000
next table: 1781
cur table: 1786
epoch: 1000
next table: 1766
cur table: 1781
epoch: 1000
next table: 1805
cur table: 1766
epoch: 1000
next table: 1793
cur table: 1805
epoch: 1000
next table: 1832
cur table: 1793
epoch: 1000
next table: 1844
cur table: 1832
epoch: 1000
next table: 1809
cur table: 1844
epoch: 1000
next table: 1687
cur table: 1809
epoch: 1000
next table: 1832
cur table: 1687
epoch: 1000
next table: 1804
cur table: 1832
epoch: 1000
next table: 1683
cur table: 1804
epoch: 1000
next table: 1622
cur table: 1683
epoch: 1000
next table: 1640
cur table: 1622
epoch: 1000
next table: 1699
cur table: 1640
epoch: 1000
next table: 1740
cur table: 1699
epoch: 1000
next table: 1285
cur table: 8023
epoch: 1000
next table: 1613
cur table: 1740
epoch: 1000
next table: 1163
cur table: 1285
epoch: 1000
next table: 1766
cur table: 1613
epoch: 1000
next table: 1173
cur table: 1163
epoch: 1000
next table: 1697
cur table: 1766
epoch: 1000
next table: 1175
cur table: 1173
epoch: 1000
next table: 1663
cur table: 1697
epoch: 1000
next table: 1172
cur table: 1175
epoch: 1000
next table: 1543
cur table: 1663
epoch: 1000
next table: 1168
cur table: 1172
epoch: 1000
next table: 1569
cur table: 1543
epoch: 1000
next table: 1200
cur table: 1168
epoch: 1000
next table: 1525
cur table: 1569
epoch: 1000
next table: 1155
cur table: 1200
epoch: 1000
next table: 1532
cur table: 1525
epoch: 1000
next table: 1154
cur table: 1155
epoch: 1000
next table: 1682
cur table: 1532
epoch: 1000
next table: 1181
cur table: 1154
epoch: 1000
next table: 1638
cur table: 1682
epoch: 1000
next table: 1198
cur table: 1181
epoch: 1000
next table: 1664
cur table: 1638
epoch: 1000
next table: 1166
cur table: 1198
epoch: 1000
next table: 1647
cur table: 1664
epoch: 1000
next table: 1197
cur table: 1166
epoch: 1000
next table: 1620
cur table: 1647
epoch: 1000
next table: 1181
cur table: 1197
epoch: 1000
next table: 1657
cur table: 1620
epoch: 1000
next table: 1211
cur table: 1181
epoch: 1000
next table: 1620
cur table: 1657
epoch: 1000
next table: 1210
cur table: 1211
epoch: 1000
next table: 1724
cur table: 1620
epoch: 1000
next table: 1204
cur table: 1210
epoch: 1000
next table: 1725
cur table: 1724
epoch: 1000
next table: 1202
cur table: 1204
epoch: 1000
next table: 1688
cur table: 1725
epoch: 1000
next table: 1204
cur table: 1202
epoch: 1000
next table: 1817
cur table: 1688
epoch: 1000
next table: 1209
cur table: 1204
epoch: 1000
next table: 1856
cur table: 1817
epoch: 1000
next table: 1196
cur table: 1209
epoch: 1000
next table: 1793
cur table: 1856
epoch: 1000
next table: 1169
cur table: 1196
epoch: 1000
next table: 1786
cur table: 1793
epoch: 1000
next table: 1186
cur table: 1169
epoch: 1000
next table: 1813
cur table: 1786
epoch: 1000
next table: 1169
cur table: 1186
epoch: 1000
next table: 1796
cur table: 1813
epoch: 1000
next table: 1196
cur table: 1169
epoch: 1000
next table: 1516
cur table: 1796
epoch: 1000
next table: 1193
cur table: 1196
epoch: 1000
next table: 1525
cur table: 1516
epoch: 1000
next table: 1164
cur table: 1193
epoch: 1000
next table: 1595
cur table: 1525
epoch: 1000
next table: 1165
cur table: 1164
epoch: 1000
next table: 1756
cur table: 1595
epoch: 1000
next table: 1174
cur table: 1165
epoch: 1000
next table: 1785
cur table: 1756
epoch: 1000
next table: 1167
cur table: 1174
epoch: 1000
next table: 1795
cur table: 1785
epoch: 1000
next table: 1184
cur table: 1167
epoch: 1000
next table: 1646
cur table: 1795
epoch: 1000
next table: 1201
cur table: 1184
epoch: 1000
next table: 1633
cur table: 1646
epoch: 1000
next table: 1198
cur table: 1201
epoch: 1000
next table: 1636
cur table: 1633
epoch: 1000
next table: 1178
cur table: 1198
epoch: 1000
next table: 1601
cur table: 1636
epoch: 1000
next table: 1188
cur table: 1178
epoch: 1000
next table: 1636
cur table: 1601
epoch: 1000
next table: 1199
cur table: 1188
epoch: 1000
next table: 1601
cur table: 1636
epoch: 1000
next table: 1190
cur table: 1199
epoch: 1000
next table: 1513
cur table: 1601
epoch: 1000
next table: 1188
cur table: 1190
epoch: 1000
next table: 1750
cur table: 1513
epoch: 1000
next table: 1189
cur table: 1188
epoch: 1000
next table: 1800
cur table: 1750
epoch: 1000
next table: 1168
cur table: 1189
epoch: 1000
next table: 1565
cur table: 1800
epoch: 1000
next table: 1204
cur table: 1168
epoch: 1000
next table: 1766
cur table: 1565
epoch: 1000
next table: 1201
cur table: 1204
epoch: 1000
next table: 1721
cur table: 1766
epoch: 1000
next table: 1167
cur table: 1201
epoch: 1000
next table: 1782
cur table: 1721
epoch: 1000
next table: 1191
cur table: 1167
epoch: 1000
next table: 1719
cur table: 1782
epoch: 1000
next table: 1225
cur table: 1191
epoch: 1000
next table: 1522
cur table: 1719
epoch: 1000
next table: 1216
cur table: 1225
epoch: 1000
next table: 1504
cur table: 1522
epoch: 1000
next table: 1225
cur table: 1216
epoch: 1000
next table: 1558
cur table: 1504
epoch: 1000
next table: 1233
cur table: 1225
epoch: 1000
next table: 1622
cur table: 1558
epoch: 1000
next table: 1219
cur table: 1233
epoch: 1000
next table: 1582
cur table: 1622
epoch: 1000
next table: 1250
cur table: 1219
epoch: 1000
next table: 1645
cur table: 1582
epoch: 1000
next table: 1254
cur table: 1250
epoch: 1000
next table: 1651
cur table: 1645
epoch: 1000
next table: 1287
cur table: 1254
epoch: 1000
next table: 1720
cur table: 1651
epoch: 1000
next table: 1324
cur table: 1287
epoch: 1000
next table: 1793
cur table: 1720
epoch: 1000
next table: 1292
cur table: 1324
epoch: 1000
next table: 1677
cur table: 1793
epoch: 1000
next table: 1299
cur table: 1292
epoch: 1000
next table: 1838
cur table: 1677
epoch: 1000
next table: 1231
cur table: 1299
epoch: 1000
next table: 1682
cur table: 1838
epoch: 1000
next table: 1257
cur table: 1231
epoch: 1000
next table: 1609
cur table: 1682
epoch: 1000
next table: 1230
cur table: 1257
epoch: 1000
next table: 1650
cur table: 1609
epoch: 1000
next table: 1269
cur table: 1230
epoch: 1000
next table: 1715
cur table: 1650
epoch: 1000
next table: 1213
cur table: 1269
epoch: 1000
next table: 1640
cur table: 1715
epoch: 1000
next table: 1661
cur table: 1640
epoch: 1000
next table: 1237
cur table: 1213
epoch: 1000
next table: 1616
cur table: 1661
epoch: 1000
next table: 1206
cur table: 1237
epoch: 1000
next table: 1629
cur table: 1616
epoch: 1000
next table: 1226
cur table: 1206
epoch: 1000
next table: 1655
cur table: 1629
epoch: 1000
next table: 1258
cur table: 1226
epoch: 1000
next table: 1595
cur table: 1655
epoch: 1000
next table: 1261
cur table: 1258
epoch: 1000
next table: 1637
cur table: 1595
epoch: 1000
next table: 1238
cur table: 1261
epoch: 1000
next table: 1701
cur table: 1637
epoch: 1000
next table: 1267
cur table: 1238
epoch: 1000
next table: 1571
cur table: 1701
epoch: 1000
next table: 1224
cur table: 1267
epoch: 1000
next table: 1652
cur table: 1571
epoch: 1000
next table: 1267
cur table: 1224
epoch: 1000
next table: 1778
cur table: 1652
epoch: 1000
next table: 1295
cur table: 1267
epoch: 1000
next table: 1653
cur table: 1778
epoch: 1000
next table: 1277
cur table: 1295
epoch: 1000
next table: 1669
cur table: 1653
epoch: 1000
next table: 1292
cur table: 1277
epoch: 1000
next table: 1724
cur table: 1669
epoch: 1000
next table: 1278
cur table: 1292
epoch: 1000
next table: 1716
cur table: 1724
epoch: 1000
next table: 1254
cur table: 1278
epoch: 1000
next table: 1781
cur table: 1716
epoch: 1000
next table: 1241
cur table: 1254
epoch: 1000
next table: 1789
cur table: 1781
epoch: 1000
next table: 1211
cur table: 1241
epoch: 1000
next table: 1743
cur table: 1789
epoch: 1000
next table: 1225
cur table: 1211
epoch: 1000
next table: 1792
cur table: 1743
epoch: 1000
next table: 1225
cur table: 1225
epoch: 1000
next table: 1800
cur table: 1792
epoch: 1000
next table: 1180
cur table: 1225
epoch: 1000
next table: 1728
cur table: 1800
epoch: 1000
next table: 1176
cur table: 1180
epoch: 1000
next table: 1650
cur table: 1728
epoch: 1000
next table: 1187
cur table: 1176
epoch: 1000
next table: 1556
cur table: 1650
epoch: 1000
next table: 1166
cur table: 1187
epoch: 1000
next table: 1613
cur table: 1556
epoch: 1000
next table: 1207
cur table: 1166
epoch: 1000
next table: 1571
cur table: 1613
epoch: 1000
next table: 1175
cur table: 1207
epoch: 1000
next table: 1552
cur table: 1571
epoch: 1000
next table: 1189
cur table: 1175
epoch: 1000
next table: 1637
cur table: 1552
epoch: 1000
next table: 1219
cur table: 1189
epoch: 1000
next table: 1647
cur table: 1637
epoch: 1000
next table: 1172
cur table: 1219
epoch: 1000
next table: 1588
cur table: 1647
epoch: 1000
next table: 1193
cur table: 1172
epoch: 1000
next table: 1598
cur table: 1588
epoch: 1000
next table: 1209
cur table: 1193
epoch: 1000
next table: 1643
cur table: 1598
epoch: 1000
next table: 1260
cur table: 1209
epoch: 1000
next table: 1696
cur table: 1643
epoch: 1000
next table: 1240
cur table: 1260
epoch: 1000
next table: 1607
cur table: 1696
epoch: 1000
next table: 1256
cur table: 1240
epoch: 1000
next table: 1669
cur table: 1607
epoch: 1000
next table: 1262
cur table: 1256
epoch: 1000
next table: 1667
cur table: 1669
epoch: 1000
next table: 1249
cur table: 1262
epoch: 1000
next table: 1627
cur table: 1667
epoch: 1000
next table: 1250
cur table: 1249
epoch: 1000
next table: 1713
cur table: 1627
epoch: 1000
next table: 1246
cur table: 1250
epoch: 1000
next table: 1685
cur table: 1713
epoch: 1000
next table: 1243
cur table: 1246
epoch: 1000
next table: 1699
cur table: 1685
epoch: 1000
next table: 1287
cur table: 1243
epoch: 1000
next table: 1751
cur table: 1699
epoch: 1000
next table: 1235
cur table: 1287
epoch: 1000
next table: 1823
cur table: 1751
epoch: 1000
next table: 1234
cur table: 1235
epoch: 1000
next table: 1812
cur table: 1823
epoch: 1000
next table: 1191
cur table: 1234
epoch: 1000
next table: 1838
cur table: 1812
epoch: 1000
next table: 1183
cur table: 1191
epoch: 1000
next table: 1802
cur table: 1838
epoch: 1000
next table: 1197
cur table: 1183
epoch: 1000
next table: 1815
cur table: 1802
epoch: 1000
next table: 1229
cur table: 1197
epoch: 1000
next table: 1799
cur table: 1815
epoch: 1000
next table: 1329
cur table: 1229
epoch: 1000
next table: 1839
cur table: 1799
epoch: 1000
next table: 1333
cur table: 1329
epoch: 1000
next table: 1779
cur table: 1839
epoch: 1000
next table: 1325
cur table: 1333
epoch: 1000
next table: 1812
cur table: 1779
epoch: 1000
next table: 1390
cur table: 1325
epoch: 1000
next table: 1814
cur table: 1812
epoch: 1000
next table: 1319
cur table: 1390
epoch: 1000
next table: 1786
cur table: 1814
epoch: 1000
next table: 1376
cur table: 1319
epoch: 1000
next table: 1807
cur table: 1786
epoch: 1000
next table: 1290
cur table: 1376
epoch: 1000
next table: 1810
cur table: 1807
epoch: 1000
next table: 1311
cur table: 1290
epoch: 1000
next table: 1811
cur table: 1810
epoch: 1000
next table: 1367
cur table: 1311
epoch: 1000
next table: 1795
cur table: 1811
epoch: 1000
next table: 1341
cur table: 1367
epoch: 1000
next table: 1805
cur table: 1795
epoch: 1000
next table: 1346
cur table: 1341
epoch: 1000
next table: 1799
cur table: 1805
epoch: 1000
next table: 1393
cur table: 1346
epoch: 1000
next table: 1789
cur table: 1799
epoch: 1000
next table: 1406
cur table: 1393
epoch: 1000
next table: 1814
cur table: 1789
epoch: 1000
next table: 1443
cur table: 1406
epoch: 1000
next table: 1835
cur table: 1814
epoch: 1000
next table: 1435
cur table: 1443
epoch: 1000
next table: 1791
cur table: 1835
epoch: 1000
next table: 1469
cur table: 1435
epoch: 1000
next table: 1821
cur table: 1791
epoch: 1000
next table: 1479
cur table: 1469
epoch: 1000
next table: 1778
cur table: 1821
epoch: 1000
next table: 1367
cur table: 1479
epoch: 1000
next table: 1819
cur table: 1778
epoch: 1000
next table: 1490
cur table: 1367
epoch: 1000
next table: 1821
cur table: 1819
epoch: 1000
next table: 1388
cur table: 1490
epoch: 1000
next table: 1812
cur table: 1821
epoch: 1000
next table: 1421
cur table: 1388
epoch: 1000
next table: 1798
cur table: 1812
epoch: 1000
next table: 1403
cur table: 1421
epoch: 1000
next table: 1828
cur table: 1798
epoch: 1000
next table: 1411
cur table: 1403
epoch: 1000
next table: 1816
cur table: 1828
epoch: 1000
next table: 1431
cur table: 1411
epoch: 1000
next table: 1795
cur table: 1816
epoch: 1000
next table: 1496
cur table: 1431
epoch: 1000
next table: 1834
cur table: 1795
epoch: 1000
next table: 1385
cur table: 1496
epoch: 1000
next table: 1837
cur table: 1834
epoch: 1000
next table: 1404
cur table: 1385
epoch: 1000
next table: 1810
cur table: 1837
epoch: 1000
next table: 1428
cur table: 1404
epoch: 1000
next table: 1824
cur table: 1810
epoch: 1000
next table: 1394
cur table: 1428
epoch: 1000
next table: 1781
cur table: 1824
epoch: 1000
next table: 1469
cur table: 1394
epoch: 1000
next table: 1829
cur table: 1781
epoch: 1000
next table: 1423
cur table: 1469
epoch: 1000
next table: 1803
cur table: 1829
epoch: 1000
next table: 1461
cur table: 1423
epoch: 1000
next table: 1804
cur table: 1803
epoch: 1000
next table: 1442
cur table: 1461
epoch: 1000
next table: 1799
cur table: 1804
epoch: 1000
next table: 1409
cur table: 1442
epoch: 1000
next table: 1801
cur table: 1799
epoch: 1000
next table: 1435
cur table: 1409
epoch: 1000
next table: 1763
cur table: 1801
epoch: 1000
next table: 1327
cur table: 1435
epoch: 1000
next table: 1791
cur table: 1763
epoch: 1000
next table: 1462
cur table: 1327
epoch: 1000
next table: 1801
cur table: 1791
epoch: 1000
next table: 1368
cur table: 1462
epoch: 1000
next table: 1812
cur table: 1801
epoch: 1000
next table: 1476
cur table: 1368
epoch: 1000
next table: 1815
cur table: 1812
epoch: 1000
next table: 1351
cur table: 1476
epoch: 1000
next table: 1789
cur table: 1815
epoch: 1000
next table: 1416
cur table: 1351
epoch: 1000
next table: 1779
cur table: 1789
epoch: 1000
next table: 1436
cur table: 1416
epoch: 1000
next table: 1798
cur table: 1779
epoch: 1000
next table: 1438
cur table: 1436
epoch: 1000
next table: 1830
cur table: 1798
epoch: 1000
next table: 1463
cur table: 1438
epoch: 1000
next table: 1822
cur table: 1830
epoch: 1000
next table: 1434
cur table: 1463
epoch: 1000
next table: 1810
cur table: 1822
epoch: 1000
next table: 1400
cur table: 1434
epoch: 1000
next table: 1810
cur table: 1810
epoch: 1000
next table: 1413
cur table: 1400
epoch: 1000
next table: 1844
cur table: 1810
epoch: 1000
next table: 1414
cur table: 1413
epoch: 1000
next table: 1791
cur table: 1844
epoch: 1000
next table: 1506
cur table: 1414
epoch: 1000
next table: 1844
cur table: 1791
epoch: 1000
next table: 1428
cur table: 1506
epoch: 1000
next table: 1836
cur table: 1844
epoch: 1000
next table: 1475
cur table: 1428
epoch: 1000
next table: 1854
cur table: 1836
epoch: 1000
next table: 1447
cur table: 1475
epoch: 1000
next table: 1810
cur table: 1854
epoch: 1000
next table: 1421
cur table: 1447
epoch: 1000
next table: 1814
cur table: 1810
epoch: 1000
next table: 1424
cur table: 1421
epoch: 1000
next table: 1817
cur table: 1814
epoch: 1000
next table: 1399
cur table: 1424
epoch: 1000
next table: 1830
cur table: 1817
epoch: 1000
next table: 1422
cur table: 1399
epoch: 1000
next table: 1811
cur table: 1830
epoch: 1000
next table: 1493
cur table: 1422
epoch: 1000
next table: 1835
cur table: 1811
epoch: 1000
next table: 1432
cur table: 1493
epoch: 1000
next table: 1837
cur table: 1835
epoch: 1000
next table: 1438
cur table: 1432
epoch: 1000
next table: 1815
cur table: 1837
epoch: 1000
next table: 1500
cur table: 1438
epoch: 1000
next table: 1803
cur table: 1815
epoch: 1000
next table: 1490
cur table: 1500
epoch: 1000
next table: 1798
cur table: 1803
epoch: 1000
next table: 1468
cur table: 1490
epoch: 1000
next table: 1798
cur table: 1798
epoch: 1000
next table: 1509
cur table: 1468
epoch: 1000
next table: 1796
cur table: 1798
epoch: 1000
next table: 1514
cur table: 1509
epoch: 1000
next table: 1781
cur table: 1796
epoch: 1000
next table: 1495
cur table: 1514
epoch: 1000
next table: 1798
cur table: 1781
epoch: 1000
next table: 1481
cur table: 1495
epoch: 1000
next table: 1788
cur table: 1798
epoch: 1000
next table: 1579
cur table: 1481
epoch: 1000
next table: 1829
cur table: 1788
epoch: 1000
next table: 1393
cur table: 1579
epoch: 1000
next table: 1793
cur table: 1829
epoch: 1000
next table: 1321
cur table: 1393
epoch: 1000
next table: 1889
cur table: 1793
epoch: 1000
next table: 1370
cur table: 1321
epoch: 1000
next table: 1844
cur table: 1889
epoch: 1000
next table: 1832
cur table: 1844
epoch: 1000
next table: 1316
cur table: 1370
epoch: 1000
next table: 1791
cur table: 1832
epoch: 1000
next table: 1281
cur table: 1316
epoch: 1000
next table: 1862
cur table: 1791
epoch: 1000
next table: 1862
cur table: 1862
epoch: 1000
next table: 1292
cur table: 1281
epoch: 1000
next table: 1856
cur table: 1862
epoch: 1000
next table: 1879
cur table: 1856
epoch: 1000
next table: 1383
cur table: 1292
epoch: 1000
next table: 1856
cur table: 1879
epoch: 1000
next table: 1830
cur table: 1856
epoch: 1000
next table: 1395
cur table: 1383
epoch: 1000
next table: 1926
cur table: 1830
epoch: 1000
next table: 1865
cur table: 1926
epoch: 1000
next table: 1372
cur table: 1395
epoch: 1000
next table: 1909
cur table: 1865
epoch: 1000
next table: 1866
cur table: 1909
epoch: 1000
next table: 1388
cur table: 1372
epoch: 1000
next table: 1868
cur table: 1866
epoch: 1000
next table: 1294
cur table: 1388
epoch: 1000
next table: 1536
cur table: 1868
epoch: 1000
next table: 1248
cur table: 1294
epoch: 1000
next table: 1578
cur table: 1536
epoch: 1000
next table: 1214
cur table: 1248
epoch: 1000
next table: 1495
cur table: 1578
epoch: 1000
next table: 1654
cur table: 1495
epoch: 1000
next table: 1283
cur table: 1214
epoch: 1000
next table: 1762
cur table: 1654
epoch: 1000
next table: 1295
cur table: 1283
epoch: 1000
next table: 1748
cur table: 1762
epoch: 1000
next table: 1766
cur table: 1748
epoch: 1000
next table: 1261
cur table: 1295
epoch: 1000
next table: 1754
cur table: 1766
epoch: 1000
next table: 1278
cur table: 1261
epoch: 1000
next table: 1807
cur table: 1754
epoch: 1000
next table: 1776
cur table: 1807
epoch: 1000
next table: 1283
cur table: 1278
epoch: 1000
next table: 1663
cur table: 1776
epoch: 1000
next table: 1237
cur table: 1283
epoch: 1000
next table: 1702
cur table: 1663
epoch: 1000
next table: 1249
cur table: 1237
epoch: 1000
next table: 1749
cur table: 1702
epoch: 1000
next table: 1753
cur table: 1749
epoch: 1000
next table: 1259
cur table: 1249
epoch: 1000
next table: 1781
cur table: 1753
epoch: 1000
next table: 1208
cur table: 1259
epoch: 1000
next table: 1756
cur table: 1781
epoch: 1000
next table: 1196
cur table: 1208
epoch: 1000
next table: 1726
cur table: 1756
epoch: 1000
next table: 1762
cur table: 1726
epoch: 1000
next table: 1200
cur table: 1196
epoch: 1000
next table: 1794
cur table: 1762
epoch: 1000
next table: 1158
cur table: 1200
epoch: 1000
next table: 1700
cur table: 1794
epoch: 1000
next table: 1176
cur table: 1158
epoch: 1000
next table: 1822
cur table: 1700
epoch: 1000
next table: 1187
cur table: 1176
epoch: 1000
next table: 1745
cur table: 1822
epoch: 1000
next table: 1155
cur table: 1187
epoch: 1000
next table: 1701
cur table: 1745
epoch: 1000
next table: 1157
cur table: 1155
epoch: 1000
next table: 1714
cur table: 1701
epoch: 1000
next table: 1171
cur table: 1157
Heartbeat CPU 0 instructions: 10000001 cycles: 3162227 heartbeat IPC: 3.16233 cumulative IPC: 3.16233 (Simulation time: 0 hr 6 min 23 sec) 
epoch: 1000
next table: 1769
cur table: 1714
epoch: 1000
next table: 1149
cur table: 1171
epoch: 1000
next table: 1724
cur table: 1769
epoch: 1000
next table: 1156
cur table: 1149
epoch: 1000
next table: 1661
cur table: 1724
epoch: 1000
next table: 1165
cur table: 1156
epoch: 1000
next table: 1732
cur table: 1661
epoch: 1000
next table: 1155
cur table: 1165
epoch: 1000
next table: 1696
cur table: 1732
epoch: 1000
next table: 1138
cur table: 1155
epoch: 1000
next table: 1779
cur table: 1696
epoch: 1000
next table: 1166
cur table: 1138
epoch: 1000
next table: 1711
cur table: 1779
epoch: 1000
next table: 1136
cur table: 1166
epoch: 1000
next table: 1702
cur table: 1711
epoch: 1000
next table: 1158
cur table: 1136
epoch: 1000
next table: 1737
cur table: 1702
epoch: 1000
next table: 1151
cur table: 1158
epoch: 1000
next table: 1717
cur table: 1737
epoch: 1000
next table: 1140
cur table: 1151
epoch: 1000
next table: 1664
cur table: 1717
epoch: 1000
next table: 1160
cur table: 1140
epoch: 1000
next table: 1760
cur table: 1664
epoch: 1000
next table: 1154
cur table: 1160
epoch: 1000
next table: 1671
cur table: 1760
epoch: 1000
next table: 1191
cur table: 1154
epoch: 1000
next table: 1445
cur table: 1671
epoch: 1000
next table: 1160
cur table: 1191
epoch: 1000
next table: 1503
cur table: 1445
epoch: 1000
next table: 1158
cur table: 1160
epoch: 1000
next table: 1623
cur table: 1503
epoch: 1000
next table: 1184
cur table: 1158
epoch: 1000
next table: 1594
cur table: 1623
epoch: 1000
next table: 1193
cur table: 1184
epoch: 1000
next table: 1521
cur table: 1594
epoch: 1000
next table: 1173
cur table: 1193
epoch: 1000
next table: 1513
cur table: 1521
epoch: 1000
next table: 1175
cur table: 1173
epoch: 1000
next table: 1617
cur table: 1513
epoch: 1000
next table: 1217
cur table: 1175
epoch: 1000
next table: 1596
cur table: 1617
epoch: 1000
next table: 1249
cur table: 1217
epoch: 1000
next table: 1592
cur table: 1596
epoch: 1000
next table: 1279
cur table: 1249
epoch: 1000
next table: 1554
cur table: 1592
epoch: 1000
next table: 1286
cur table: 1279
epoch: 1000
next table: 1566
cur table: 1554
epoch: 1000
next table: 1257
cur table: 1286
epoch: 1000
next table: 1763
cur table: 1566
epoch: 1000
next table: 1300
cur table: 1257
epoch: 1000
next table: 1705
cur table: 1763
epoch: 1000
next table: 1293
cur table: 1300
epoch: 1000
next table: 1747
cur table: 1705
epoch: 1000
next table: 1311
cur table: 1293
epoch: 1000
next table: 1669
cur table: 1747
epoch: 1000
next table: 1362
cur table: 1311
epoch: 1000
next table: 1802
cur table: 1669
epoch: 1000
next table: 1372
cur table: 1362
epoch: 1000
next table: 1700
cur table: 1802
epoch: 1000
next table: 1293
cur table: 1372
epoch: 1000
next table: 1707
cur table: 1700
epoch: 1000
next table: 1255
cur table: 1293
epoch: 1000
next table: 1568
cur table: 1707
epoch: 1000
next table: 1241
cur table: 1255
epoch: 1000
next table: 1839
cur table: 1568
epoch: 1000
next table: 1222
cur table: 1241
epoch: 1000
next table: 1835
cur table: 1839
epoch: 1000
next table: 1280
cur table: 1222
epoch: 1000
next table: 1893
cur table: 1835
epoch: 1000
next table: 1224
cur table: 1280
epoch: 1000
next table: 1803
cur table: 1893
epoch: 1000
next table: 1200
cur table: 1224
epoch: 1000
next table: 1877
cur table: 1803
epoch: 1000
next table: 1225
cur table: 1200
epoch: 1000
next table: 1869
cur table: 1877
epoch: 1000
next table: 1198
cur table: 1225
epoch: 1000
next table: 1826
cur table: 1869
epoch: 1000
next table: 1186
cur table: 1198
epoch: 1000
next table: 1835
cur table: 1826
epoch: 1000
next table: 1167
cur table: 1186
epoch: 1000
next table: 1848
cur table: 1835
epoch: 1000
next table: 1188
cur table: 1167
epoch: 1000
next table: 1872
cur table: 1848
epoch: 1000
next table: 1169
cur table: 1188
epoch: 1000
next table: 1740
cur table: 1872
epoch: 1000
next table: 1165
cur table: 1169
epoch: 1000
next table: 1861
cur table: 1740
epoch: 1000
next table: 1174
cur table: 1165
epoch: 1000
next table: 1844
cur table: 1861
epoch: 1000
next table: 1190
cur table: 1174
epoch: 1000
next table: 1880
cur table: 1844
epoch: 1000
next table: 1167
cur table: 1190
epoch: 1000
next table: 1826
cur table: 1880
epoch: 1000
next table: 1173
cur table: 1167
epoch: 1000
next table: 1858
cur table: 1826
epoch: 1000
next table: 1177
cur table: 1173
epoch: 1000
next table: 1821
cur table: 1858
epoch: 1000
next table: 1178
cur table: 1177
epoch: 1000
next table: 1864
cur table: 1821
epoch: 1000
next table: 1195
cur table: 1178
epoch: 1000
next table: 1762
cur table: 1864
epoch: 1000
next table: 1194
cur table: 1195
epoch: 1000
next table: 1834
cur table: 1762
epoch: 1000
next table: 1173
cur table: 1194
epoch: 1000
next table: 1731
cur table: 1834
epoch: 1000
next table: 1180
cur table: 1173
epoch: 1000
next table: 1857
cur table: 1731
epoch: 1000
next table: 1186
cur table: 1180
epoch: 1000
next table: 1785
cur table: 1857
epoch: 1000
next table: 1201
cur table: 1186
epoch: 1000
next table: 1869
cur table: 1785
epoch: 1000
next table: 1168
cur table: 1201
epoch: 1000
next table: 1831
cur table: 1869
epoch: 1000
next table: 1180
cur table: 1168
epoch: 1000
next table: 1773
cur table: 1831
epoch: 1000
next table: 1191
cur table: 1180
epoch: 1000
next table: 1872
cur table: 1773
epoch: 1000
next table: 1205
cur table: 1191
epoch: 1000
next table: 1850
cur table: 1872
epoch: 1000
next table: 1201
cur table: 1205
epoch: 1000
next table: 1840
cur table: 1850
epoch: 1000
next table: 1203
cur table: 1201
epoch: 1000
next table: 1802
cur table: 1840
epoch: 1000
next table: 1178
cur table: 1203
epoch: 1000
next table: 1828
cur table: 1802
epoch: 1000
next table: 1209
cur table: 1178
epoch: 1000
next table: 1827
cur table: 1828
epoch: 1000
next table: 1195
cur table: 1209
epoch: 1000
next table: 1844
cur table: 1827
epoch: 1000
next table: 1184
cur table: 1195
epoch: 1000
next table: 1837
cur table: 1844
epoch: 1000
next table: 1239
cur table: 1184
epoch: 1000
next table: 1787
cur table: 1837
epoch: 1000
next table: 1235
cur table: 1239
epoch: 1000
next table: 1819
cur table: 1787
epoch: 1000
next table: 1309
cur table: 1235
epoch: 1000
next table: 1787
cur table: 1819
epoch: 1000
next table: 1349
cur table: 1309
epoch: 1000
next table: 1769
cur table: 1787
epoch: 1000
next table: 1312
cur table: 1349
epoch: 1000
next table: 1736
cur table: 1769
epoch: 1000
next table: 1364
cur table: 1312
epoch: 1000
next table: 1772
cur table: 1736
epoch: 1000
next table: 1321
cur table: 1364
epoch: 1000
next table: 1806
cur table: 1772
epoch: 1000
next table: 1400
cur table: 1321
epoch: 1000
next table: 1759
cur table: 1806
epoch: 1000
next table: 1341
cur table: 1400
epoch: 1000
next table: 1801
cur table: 1759
epoch: 1000
next table: 1322
cur table: 1341
epoch: 1000
next table: 1797
cur table: 1801
epoch: 1000
next table: 1351
cur table: 1322
epoch: 1000
next table: 1813
cur table: 1797
epoch: 1000
next table: 1299
cur table: 1351
epoch: 1000
next table: 1821
cur table: 1813
epoch: 1000
next table: 1320
cur table: 1299
epoch: 1000
next table: 1774
cur table: 1821
epoch: 1000
next table: 1448
cur table: 1320
epoch: 1000
next table: 1769
cur table: 1774
epoch: 1000
next table: 1794
cur table: 1769
epoch: 1000
next table: 1393
cur table: 1448
epoch: 1000
next table: 1796
cur table: 1794
epoch: 1000
next table: 1396
cur table: 1393
epoch: 1000
next table: 1805
cur table: 1796
epoch: 1000
next table: 1401
cur table: 1396
epoch: 1000
next table: 1800
cur table: 1805
epoch: 1000
next table: 1415
cur table: 1401
epoch: 1000
next table: 1808
cur table: 1800
epoch: 1000
next table: 1441
cur table: 1415
epoch: 1000
next table: 1792
cur table: 1808
epoch: 1000
next table: 1380
cur table: 1441
epoch: 1000
next table: 1787
cur table: 1792
epoch: 1000
next table: 1499
cur table: 1380
epoch: 1000
next table: 1819
cur table: 1787
epoch: 1000
next table: 1387
cur table: 1499
epoch: 1000
next table: 1814
cur table: 1819
epoch: 1000
next table: 1446
cur table: 1387
epoch: 1000
next table: 1810
cur table: 1814
epoch: 1000
next table: 1428
cur table: 1446
epoch: 1000
next table: 1828
cur table: 1810
epoch: 1000
next table: 1377
cur table: 1428
epoch: 1000
next table: 1816
cur table: 1828
epoch: 1000
next table: 1451
cur table: 1377
epoch: 1000
next table: 1816
cur table: 1816
epoch: 1000
next table: 1403
cur table: 1451
epoch: 1000
next table: 1815
cur table: 1816
epoch: 1000
next table: 1456
cur table: 1403
epoch: 1000
next table: 1792
cur table: 1815
epoch: 1000
next table: 1444
cur table: 1456
epoch: 1000
next table: 1813
cur table: 1792
epoch: 1000
next table: 1445
cur table: 1444
epoch: 1000
next table: 1804
cur table: 1813
epoch: 1000
next table: 1403
cur table: 1445
epoch: 1000
next table: 1820
cur table: 1804
epoch: 1000
next table: 1477
cur table: 1403
epoch: 1000
next table: 1812
cur table: 1820
epoch: 1000
next table: 1423
cur table: 1477
epoch: 1000
next table: 1820
cur table: 1812
epoch: 1000
next table: 1348
cur table: 1423
epoch: 1000
next table: 1833
cur table: 1820
epoch: 1000
next table: 1444
cur table: 1348
epoch: 1000
next table: 1763
cur table: 1833
epoch: 1000
next table: 1435
cur table: 1444
epoch: 1000
next table: 1784
cur table: 1763
epoch: 1000
next table: 1401
cur table: 1435
epoch: 1000
next table: 1820
cur table: 1784
epoch: 1000
next table: 1391
cur table: 1401
epoch: 1000
next table: 1809
cur table: 1820
epoch: 1000
next table: 1385
cur table: 1391
epoch: 1000
next table: 1821
cur table: 1809
epoch: 1000
next table: 1424
cur table: 1385
epoch: 1000
next table: 1824
cur table: 1821
epoch: 1000
next table: 1308
cur table: 1424
epoch: 1000
next table: 1786
cur table: 1824
epoch: 1000
next table: 1357
cur table: 1308
epoch: 1000
next table: 1779
cur table: 1786
epoch: 1000
next table: 1391
cur table: 1357
epoch: 1000
next table: 1840
cur table: 1779
epoch: 1000
next table: 1517
cur table: 1391
epoch: 1000
next table: 1753
cur table: 1840
epoch: 1000
next table: 1419
cur table: 1517
epoch: 1000
next table: 1796
cur table: 1753
epoch: 1000
next table: 1423
cur table: 1419
epoch: 1000
next table: 1805
cur table: 1796
epoch: 1000
next table: 1380
cur table: 1423
epoch: 1000
next table: 1817
cur table: 1805
epoch: 1000
next table: 1420
cur table: 1380
epoch: 1000
next table: 1816
cur table: 1817
epoch: 1000
next table: 1482
cur table: 1420
epoch: 1000
next table: 1856
cur table: 1816
epoch: 1000
next table: 1482
cur table: 1482
epoch: 1000
next table: 1839
cur table: 1856
epoch: 1000
next table: 1448
cur table: 1482
epoch: 1000
next table: 1816
cur table: 1839
epoch: 1000
next table: 1435
cur table: 1448
epoch: 1000
next table: 1787
cur table: 1816
epoch: 1000
next table: 1470
cur table: 1435
epoch: 1000
next table: 1854
cur table: 1787
epoch: 1000
next table: 1447
cur table: 1470
epoch: 1000
next table: 1848
cur table: 1854
epoch: 1000
next table: 1380
cur table: 1447
epoch: 1000
next table: 1830
cur table: 1848
epoch: 1000
next table: 1422
cur table: 1380
epoch: 1000
next table: 1821
cur table: 1830
epoch: 1000
next table: 1364
cur table: 1422
epoch: 1000
next table: 1805
cur table: 1821
epoch: 1000
next table: 1406
cur table: 1364
epoch: 1000
next table: 1838
cur table: 1805
epoch: 1000
next table: 1414
cur table: 1406
epoch: 1000
next table: 1820
cur table: 1838
epoch: 1000
next table: 1447
cur table: 1414
epoch: 1000
next table: 1791
cur table: 1820
epoch: 1000
next table: 1459
cur table: 1447
epoch: 1000
next table: 1830
cur table: 1791
epoch: 1000
next table: 1500
cur table: 1459
epoch: 1000
next table: 1810
cur table: 1830
epoch: 1000
next table: 1436
cur table: 1500
epoch: 1000
next table: 1790
cur table: 1810
epoch: 1000
next table: 1527
cur table: 1436
epoch: 1000
next table: 1796
cur table: 1790
epoch: 1000
next table: 1487
cur table: 1527
epoch: 1000
next table: 1795
cur table: 1796
epoch: 1000
next table: 1485
cur table: 1487
epoch: 1000
next table: 1803
cur table: 1795
epoch: 1000
next table: 1520
cur table: 1485
epoch: 1000
next table: 1790
cur table: 1803
epoch: 1000
next table: 1486
cur table: 1520
epoch: 1000
next table: 1799
cur table: 1790
epoch: 1000
next table: 1579
cur table: 1486
epoch: 1000
next table: 1788
cur table: 1799
epoch: 1000
next table: 1258
cur table: 1579
epoch: 1000
next table: 1819
cur table: 1788
epoch: 1000
next table: 1318
cur table: 1258
epoch: 1000
next table: 1857
cur table: 1819
epoch: 1000
next table: 1253
cur table: 1318
epoch: 1000
next table: 1815
cur table: 1857
epoch: 1000
next table: 1244
cur table: 1253
epoch: 1000
next table: 1796
cur table: 1815
epoch: 1000
next table: 1267
cur table: 1244
epoch: 1000
next table: 1765
cur table: 1796
epoch: 1000
next table: 1839
cur table: 1765
epoch: 1000
next table: 1257
cur table: 1267
epoch: 1000
next table: 1837
cur table: 1839
epoch: 1000
next table: 1293
cur table: 1257
epoch: 1000
next table: 1820
cur table: 1837
epoch: 1000
next table: 1298
cur table: 1293
epoch: 1000
next table: 1812
cur table: 1820
epoch: 1000
next table: 1353
cur table: 1298
epoch: 1000
next table: 1834
cur table: 1812
epoch: 1000
next table: 1860
cur table: 1834
epoch: 1000
next table: 1469
cur table: 1353
epoch: 1000
next table: 1908
cur table: 1860
epoch: 1000
next table: 1839
cur table: 1908
epoch: 1000
next table: 1556
cur table: 1469
epoch: 1000
next table: 1837
cur table: 1839
epoch: 1000
next table: 1846
cur table: 1837
epoch: 1000
next table: 1845
cur table: 1846
epoch: 1000
next table: 1573
cur table: 1556
epoch: 1000
next table: 1851
cur table: 1845
epoch: 1000
next table: 1279
cur table: 1573
epoch: 1000
next table: 1897
cur table: 1851
epoch: 1000
next table: 1245
cur table: 1279
epoch: 1000
next table: 1827
cur table: 1897
epoch: 1000
next table: 1246
cur table: 1245
epoch: 1000
next table: 1861
cur table: 1827
epoch: 1000
next table: 1255
cur table: 1246
epoch: 1000
next table: 1823
cur table: 1861
epoch: 1000
next table: 1255
cur table: 1255
epoch: 1000
next table: 1825
cur table: 1823
epoch: 1000
next table: 1242
cur table: 1255
epoch: 1000
next table: 1826
cur table: 1825
epoch: 1000
next table: 1246
cur table: 1242
epoch: 1000
next table: 1850
cur table: 1826
epoch: 1000
next table: 1258
cur table: 1246
epoch: 1000
next table: 1870
cur table: 1850
epoch: 1000
next table: 1266
cur table: 1258
epoch: 1000
next table: 1897
cur table: 1870
epoch: 1000
next table: 1265
cur table: 1266
epoch: 1000
next table: 1892
cur table: 1897
epoch: 1000
next table: 1252
cur table: 1265
epoch: 1000
next table: 1879
cur table: 1892
epoch: 1000
next table: 1255
cur table: 1252
epoch: 1000
next table: 1865
cur table: 1879
epoch: 1000
next table: 1269
cur table: 1255
epoch: 1000
next table: 1853
cur table: 1865
epoch: 1000
next table: 1236
cur table: 1269
epoch: 1000
next table: 1893
cur table: 1853
epoch: 1000
next table: 1261
cur table: 1236
epoch: 1000
next table: 1824
cur table: 1893
epoch: 1000
next table: 1275
cur table: 1261
epoch: 1000
next table: 1845
cur table: 1824
epoch: 1000
next table: 1258
cur table: 1275
epoch: 1000
next table: 1855
cur table: 1845
epoch: 1000
next table: 1264
cur table: 1258
epoch: 1000
next table: 1926
cur table: 1855
epoch: 1000
next table: 1248
cur table: 1264
epoch: 1000
next table: 1824
cur table: 1926
epoch: 1000
next table: 1257
cur table: 1248
epoch: 1000
next table: 1856
cur table: 1824
epoch: 1000
next table: 1255
cur table: 1257
epoch: 1000
next table: 1847
cur table: 1856
epoch: 1000
next table: 1254
cur table: 1255
epoch: 1000
next table: 1820
cur table: 1847
epoch: 1000
next table: 1260
cur table: 1254
epoch: 1000
next table: 1863
cur table: 1820
epoch: 1000
next table: 1242
cur table: 1260
epoch: 1000
next table: 1868
cur table: 1863
epoch: 1000
next table: 1217
cur table: 1242
epoch: 1000
next table: 1849
cur table: 1868
epoch: 1000
next table: 1194
cur table: 1217
epoch: 1000
next table: 1844
cur table: 1849
epoch: 1000
next table: 1198
cur table: 1194
epoch: 1000
next table: 1795
cur table: 1844
epoch: 1000
next table: 1207
cur table: 1198
epoch: 1000
next table: 1845
cur table: 1795
epoch: 1000
next table: 1316
cur table: 1207
epoch: 1000
next table: 1837
cur table: 1845
epoch: 1000
next table: 1841
cur table: 1837
epoch: 1000
next table: 1340
cur table: 1316
epoch: 1000
next table: 1804
cur table: 1841
epoch: 1000
next table: 1412
cur table: 1340
epoch: 1000
next table: 1803
cur table: 1804
epoch: 1000
next table: 1505
cur table: 1412
epoch: 1000
next table: 1792
cur table: 1803
epoch: 1000
next table: 1539
cur table: 1505
epoch: 1000
next table: 1798
cur table: 1792
epoch: 1000
next table: 1537
cur table: 1539
epoch: 1000
next table: 1800
cur table: 1798
epoch: 1000
next table: 1823
cur table: 1800
epoch: 1000
next table: 1612
cur table: 1537
epoch: 1000
next table: 1803
cur table: 1823
epoch: 1000
next table: 1571
cur table: 1612
epoch: 1000
next table: 1805
cur table: 1803
epoch: 1000
next table: 1481
cur table: 1571
epoch: 1000
next table: 1786
cur table: 1805
epoch: 1000
next table: 1516
cur table: 1481
epoch: 1000
next table: 1800
cur table: 1786
epoch: 1000
next table: 1548
cur table: 1516
epoch: 1000
next table: 1794
cur table: 1800
epoch: 1000
next table: 1486
cur table: 1548
epoch: 1000
next table: 1789
cur table: 1794
epoch: 1000
next table: 1805
cur table: 1789
epoch: 1000
next table: 1482
cur table: 1486
epoch: 1000
next table: 1791
cur table: 1805
epoch: 1000
next table: 1526
cur table: 1482
epoch: 1000
next table: 1803
cur table: 1791
epoch: 1000
next table: 1642
cur table: 1526
epoch: 1000
next table: 1800
cur table: 1803
epoch: 1000
next table: 1524
cur table: 1642
epoch: 1000
next table: 1803
cur table: 1800
epoch: 1000
next table: 1605
cur table: 1524
epoch: 1000
next table: 1787
cur table: 1803
epoch: 1000
next table: 1794
cur table: 1787
epoch: 1000
next table: 1590
cur table: 1605
epoch: 1000
next table: 1801
cur table: 1794
epoch: 1000
next table: 1566
cur table: 1590
epoch: 1000
next table: 1792
cur table: 1801
epoch: 1000
next table: 1605
cur table: 1566
epoch: 1000
next table: 1787
cur table: 1792
epoch: 1000
next table: 1528
cur table: 1605
epoch: 1000
next table: 1796
cur table: 1787
epoch: 1000
next table: 1562
cur table: 1528
epoch: 1000
next table: 1797
cur table: 1796
epoch: 1000
next table: 1790
cur table: 1797
epoch: 1000
next table: 1507
cur table: 1562
epoch: 1000
next table: 1810
cur table: 1790
epoch: 1000
next table: 1559
cur table: 1507
epoch: 1000
next table: 1789
cur table: 1810
epoch: 1000
next table: 1614
cur table: 1559
epoch: 1000
next table: 1792
cur table: 1789
epoch: 1000
next table: 1597
cur table: 1614
epoch: 1000
next table: 1792
cur table: 1792
epoch: 1000
next table: 1596
cur table: 1597
epoch: 1000
next table: 1797
cur table: 1792
epoch: 1000
next table: 1790
cur table: 1797
epoch: 1000
next table: 1579
cur table: 1596
epoch: 1000
next table: 1769
cur table: 1790
epoch: 1000
next table: 1535
cur table: 1579
epoch: 1000
next table: 1802
cur table: 1769
epoch: 1000
next table: 1587
cur table: 1535
epoch: 1000
next table: 1798
cur table: 1802
epoch: 1000
next table: 1579
cur table: 1587
epoch: 1000
next table: 1798
cur table: 1798
epoch: 1000
next table: 1544
cur table: 1579
epoch: 1000
next table: 1794
cur table: 1798
epoch: 1000
next table: 1582
cur table: 1544
epoch: 1000
next table: 1795
cur table: 1794
epoch: 1000
next table: 1788
cur table: 1795
epoch: 1000
next table: 1503
cur table: 1582
epoch: 1000
next table: 1791
cur table: 1788
epoch: 1000
next table: 1570
cur table: 1503
epoch: 1000
next table: 1794
cur table: 1791
epoch: 1000
next table: 1463
cur table: 1570
epoch: 1000
next table: 1780
cur table: 1794
epoch: 1000
next table: 1497
cur table: 1463
epoch: 1000
next table: 1807
cur table: 1780
epoch: 1000
next table: 1518
cur table: 1497
epoch: 1000
next table: 1782
cur table: 1807
epoch: 1000
next table: 1514
cur table: 1518
epoch: 1000
next table: 1798
cur table: 1782
epoch: 1000
next table: 1542
cur table: 1514
epoch: 1000
next table: 1809
cur table: 1798
epoch: 1000
next table: 1792
cur table: 1809
epoch: 1000
next table: 1543
cur table: 1542
epoch: 1000
next table: 1804
cur table: 1792
epoch: 1000
next table: 1586
cur table: 1543
epoch: 1000
next table: 1783
cur table: 1804
epoch: 1000
next table: 1491
cur table: 1586
epoch: 1000
next table: 1817
cur table: 1783
epoch: 1000
next table: 1580
cur table: 1491
epoch: 1000
next table: 1787
cur table: 1817
epoch: 1000
next table: 1562
cur table: 1580
epoch: 1000
next table: 1798
cur table: 1787
epoch: 1000
next table: 1590
cur table: 1562
epoch: 1000
next table: 1800
cur table: 1798
epoch: 1000
next table: 1805
cur table: 1800
epoch: 1000
next table: 1589
cur table: 1590
epoch: 1000
next table: 1794
cur table: 1805
epoch: 1000
next table: 1573
cur table: 1589
epoch: 1000
next table: 1811
cur table: 1794
epoch: 1000
next table: 1507
cur table: 1573
epoch: 1000
next table: 1808
cur table: 1811
epoch: 1000
next table: 1513
cur table: 1507
epoch: 1000
next table: 1808
cur table: 1808
epoch: 1000
next table: 1436
cur table: 1513
epoch: 1000
next table: 1796
cur table: 1808
epoch: 1000
next table: 1518
cur table: 1436
epoch: 1000
next table: 1790
cur table: 1796
epoch: 1000
next table: 1505
cur table: 1518
epoch: 1000
next table: 1786
cur table: 1790
epoch: 1000
next table: 1490
cur table: 1505
epoch: 1000
next table: 1796
cur table: 1786
epoch: 1000
next table: 1484
cur table: 1490
epoch: 1000
next table: 1799
cur table: 1796
epoch: 1000
next table: 1469
cur table: 1484
epoch: 1000
next table: 1799
cur table: 1799
epoch: 1000
next table: 1449
cur table: 1469
epoch: 1000
next table: 1807
cur table: 1799
epoch: 1000
next table: 1520
cur table: 1449
epoch: 1000
next table: 1787
cur table: 1807
epoch: 1000
next table: 1464
cur table: 1520
epoch: 1000
next table: 1804
cur table: 1787
epoch: 1000
next table: 1474
cur table: 1464
epoch: 1000
next table: 1808
cur table: 1804
epoch: 1000
next table: 1534
cur table: 1474
epoch: 1000
next table: 1791
cur table: 1808
epoch: 1000
next table: 1453
cur table: 1534
epoch: 1000
next table: 1812
cur table: 1791
epoch: 1000
next table: 1536
cur table: 1453
epoch: 1000
next table: 1769
cur table: 1812
epoch: 1000
next table: 1296
cur table: 1536
epoch: 1000
next table: 1834
cur table: 1769
epoch: 1000
next table: 1298
cur table: 1296
epoch: 1000
next table: 1846
cur table: 1834
epoch: 1000
next table: 1327
cur table: 1298
epoch: 1000
next table: 1895
cur table: 1846
epoch: 1000
next table: 1297
cur table: 1327
epoch: 1000
next table: 1556
cur table: 1895
epoch: 1000
next table: 1239
cur table: 1297
epoch: 1000
next table: 1544
cur table: 1556
epoch: 1000
next table: 1287
cur table: 1239
epoch: 1000
next table: 1715
cur table: 1544
epoch: 1000
next table: 1239
cur table: 1287
epoch: 1000
next table: 1607
cur table: 1715
epoch: 1000
next table: 1238
cur table: 1239
epoch: 1000
next table: 1582
cur table: 1607
epoch: 1000
next table: 1304
cur table: 1238
epoch: 1000
next table: 1724
cur table: 1582
epoch: 1000
next table: 1284
cur table: 1304
epoch: 1000
next table: 1651
cur table: 1724
epoch: 1000
next table: 1675
cur table: 1651
epoch: 1000
next table: 1297
cur table: 1284
epoch: 1000
next table: 1707
cur table: 1675
epoch: 1000
next table: 1298
cur table: 1297
epoch: 1000
next table: 1724
cur table: 1707
epoch: 1000
next table: 1313
cur table: 1298
epoch: 1000
next table: 1733
cur table: 1724
epoch: 1000
next table: 1298
cur table: 1313
epoch: 1000
next table: 1758
cur table: 1733
epoch: 1000
next table: 1315
cur table: 1298
epoch: 1000
next table: 1624
cur table: 1758
epoch: 1000
next table: 1268
cur table: 1315
epoch: 1000
next table: 1729
cur table: 1624
epoch: 1000
next table: 1261
cur table: 1268
epoch: 1000
next table: 1626
cur table: 1729
epoch: 1000
next table: 1230
cur table: 1261
epoch: 1000
next table: 1684
cur table: 1626
epoch: 1000
next table: 1265
cur table: 1230
epoch: 1000
next table: 1679
cur table: 1684
epoch: 1000
next table: 1285
cur table: 1265
epoch: 1000
next table: 1615
cur table: 1679
epoch: 1000
next table: 1266
cur table: 1285
epoch: 1000
next table: 1619
cur table: 1615
epoch: 1000
next table: 1237
cur table: 1266
epoch: 1000
next table: 1701
cur table: 1619
epoch: 1000
next table: 1326
cur table: 1237
epoch: 1000
next table: 1658
cur table: 1701
epoch: 1000
next table: 1279
cur table: 1326
epoch: 1000
next table: 1630
cur table: 1658
epoch: 1000
next table: 1256
cur table: 1279
epoch: 1000
next table: 1708
cur table: 1630
epoch: 1000
next table: 1274
cur table: 1256
epoch: 1000
next table: 1579
cur table: 1708
epoch: 1000
next table: 1277
cur table: 1274
epoch: 1000
next table: 1701
cur table: 1579
epoch: 1000
next table: 1321
cur table: 1277
epoch: 1000
next table: 1699
cur table: 1701
epoch: 1000
next table: 1317
cur table: 1321
epoch: 1000
next table: 1708
cur table: 1699
epoch: 1000
next table: 1340
cur table: 1317
epoch: 1000
next table: 1691
cur table: 1708
epoch: 1000
next table: 1272
cur table: 1340
epoch: 1000
next table: 1787
cur table: 1691
epoch: 1000
next table: 1354
cur table: 1272
epoch: 1000
next table: 1710
cur table: 1787
epoch: 1000
next table: 1318
cur table: 1354
epoch: 1000
next table: 1693
cur table: 1710
epoch: 1000
next table: 1293
cur table: 1318
epoch: 1000
next table: 1803
cur table: 1693
epoch: 1000
next table: 1295
cur table: 1293
epoch: 1000
next table: 1782
cur table: 1803
epoch: 1000
next table: 1267
cur table: 1295
epoch: 1000
next table: 1731
cur table: 1782
epoch: 1000
next table: 1301
cur table: 1267
epoch: 1000
next table: 1723
cur table: 1731
epoch: 1000
next table: 1324
cur table: 1301
epoch: 1000
next table: 1687
cur table: 1723
epoch: 1000
next table: 1226
cur table: 1324
epoch: 1000
next table: 1601
cur table: 1687
epoch: 1000
next table: 1251
cur table: 1226
epoch: 1000
next table: 1600
cur table: 1601
epoch: 1000
next table: 1227
cur table: 1251
epoch: 1000
next table: 1671
cur table: 1600
epoch: 1000
next table: 1220
cur table: 1227
epoch: 1000
next table: 1622
cur table: 1671
epoch: 1000
next table: 1248
cur table: 1220
epoch: 1000
next table: 1577
cur table: 1622
epoch: 1000
next table: 1244
cur table: 1248
epoch: 1000
next table: 1660
cur table: 1577
epoch: 1000
next table: 1254
cur table: 1244
epoch: 1000
next table: 1640
cur table: 1660
epoch: 1000
next table: 1267
cur table: 1254
epoch: 1000
next table: 1677
cur table: 1640
epoch: 1000
next table: 1303
cur table: 1267
epoch: 1000
next table: 1641
cur table: 1677
epoch: 1000
next table: 1279
cur table: 1303
epoch: 1000
next table: 1697
cur table: 1641
epoch: 1000
next table: 1264
cur table: 1279
epoch: 1000
next table: 1684
cur table: 1697
epoch: 1000
next table: 1319
cur table: 1264
epoch: 1000
next table: 1602
cur table: 1684
epoch: 1000
next table: 1254
cur table: 1319
epoch: 1000
next table: 1617
cur table: 1602
epoch: 1000
next table: 1231
cur table: 1254
epoch: 1000
next table: 1634
cur table: 1617
epoch: 1000
next table: 1295
cur table: 1231
epoch: 1000
next table: 1576
cur table: 1634
epoch: 1000
next table: 1311
cur table: 1295
epoch: 1000
next table: 1678
cur table: 1576
epoch: 1000
next table: 1329
cur table: 1311
epoch: 1000
next table: 1783
cur table: 1678
epoch: 1000
next table: 1704
cur table: 1783
epoch: 1000
next table: 1382
cur table: 1329
epoch: 1000
next table: 1673
cur table: 1704
epoch: 1000
next table: 1317
cur table: 1382
epoch: 1000
next table: 1608
cur table: 1673
epoch: 1000
next table: 1260
cur table: 1317
epoch: 1000
next table: 1610
cur table: 1608
epoch: 1000
next table: 1303
cur table: 1260
epoch: 1000
next table: 1705
cur table: 1610
epoch: 1000
next table: 1303
cur table: 1303
epoch: 1000
next table: 1741
cur table: 1705
epoch: 1000
next table: 1377
cur table: 1303
epoch: 1000
next table: 1872
cur table: 1741
epoch: 1000
next table: 1289
cur table: 1377
epoch: 1000
next table: 1778
cur table: 1872
epoch: 1000
next table: 1313
cur table: 1289
epoch: 1000
next table: 1787
cur table: 1778
epoch: 1000
next table: 1247
cur table: 1313
epoch: 1000
next table: 1807
cur table: 1787
epoch: 1000
next table: 1201
cur table: 1247
epoch: 1000
next table: 1760
cur table: 1807
epoch: 1000
next table: 1219
cur table: 1201
epoch: 1000
next table: 1762
cur table: 1760
epoch: 1000
next table: 1237
cur table: 1219
epoch: 1000
next table: 1832
cur table: 1762
epoch: 1000
next table: 1189
cur table: 1237
epoch: 1000
next table: 1754
cur table: 1832
epoch: 1000
next table: 1194
cur table: 1189
epoch: 1000
next table: 1823
cur table: 1754
epoch: 1000
next table: 1188
cur table: 1194
epoch: 1000
next table: 1748
cur table: 1823
epoch: 1000
next table: 1141
cur table: 1188
epoch: 1000
next table: 1689
cur table: 1748
epoch: 1000
next table: 1163
cur table: 1141
epoch: 1000
next table: 1847
cur table: 1689
epoch: 1000
next table: 1163
cur table: 1163
epoch: 1000
next table: 1762
cur table: 1847
epoch: 1000
next table: 1148
cur table: 1163
epoch: 1000
next table: 1727
cur table: 1762
epoch: 1000
next table: 1156
cur table: 1148
epoch: 1000
next table: 1769
cur table: 1727
epoch: 1000
next table: 1146
cur table: 1156
epoch: 1000
next table: 1772
cur table: 1769
epoch: 1000
next table: 1174
cur table: 1146
epoch: 1000
next table: 1806
cur table: 1772
epoch: 1000
next table: 1155
cur table: 1174
epoch: 1000
next table: 1735
cur table: 1806
epoch: 1000
next table: 1160
cur table: 1155
epoch: 1000
next table: 1771
cur table: 1735
epoch: 1000
next table: 1134
cur table: 1160
epoch: 1000
next table: 1692
cur table: 1771
epoch: 1000
next table: 1141
cur table: 1134
epoch: 1000
next table: 1717
cur table: 1692
epoch: 1000
next table: 1145
cur table: 1141
epoch: 1000
next table: 1793
cur table: 1717
epoch: 1000
next table: 1161
cur table: 1145
epoch: 1000
next table: 1803
cur table: 1793
epoch: 1000
next table: 1152
cur table: 1161
epoch: 1000
next table: 1656
cur table: 1803
epoch: 1000
next table: 1152
cur table: 1152
epoch: 1000
next table: 1753
cur table: 1656
epoch: 1000
next table: 1154
cur table: 1152
epoch: 1000
next table: 1809
cur table: 1753
epoch: 1000
next table: 1158
cur table: 1154
epoch: 1000
next table: 1707
cur table: 1809
epoch: 1000
next table: 1174
cur table: 1158
epoch: 1000
next table: 1835
cur table: 1707
epoch: 1000
next table: 1137
cur table: 1174
epoch: 1000
next table: 1682
cur table: 1835
epoch: 1000
next table: 1148
cur table: 1137
epoch: 1000
next table: 1716
cur table: 1682
epoch: 1000
next table: 1146
cur table: 1148
epoch: 1000
next table: 1746
cur table: 1716
epoch: 1000
next table: 1155
cur table: 1146
epoch: 1000
next table: 1777
cur table: 1746
epoch: 1000
next table: 1137
cur table: 1155
epoch: 1000
next table: 1643
cur table: 1777
epoch: 1000
next table: 1151
cur table: 1137
epoch: 1000
next table: 1702
cur table: 1643
epoch: 1000
next table: 1157
cur table: 1151
epoch: 1000
next table: 1666
cur table: 1702
epoch: 1000
next table: 1176
cur table: 1157
epoch: 1000
next table: 1457
cur table: 1666
epoch: 1000
next table: 1156
cur table: 1176
epoch: 1000
next table: 1450
cur table: 1457
epoch: 1000
next table: 1173
cur table: 1156
epoch: 1000
next table: 1494
cur table: 1450
epoch: 1000
next table: 1172
cur table: 1173
epoch: 1000
next table: 1491
cur table: 1494
epoch: 1000
next table: 1226
cur table: 1172
epoch: 1000
next table: 1602
cur table: 1491
epoch: 1000
next table: 1230
cur table: 1226
epoch: 1000
next table: 1613
cur table: 1602
epoch: 1000
next table: 1622
cur table: 1613
epoch: 1000
next table: 1233
cur table: 1230
epoch: 1000
next table: 1674
cur table: 1622
epoch: 1000
next table: 1306
cur table: 1233
epoch: 1000
next table: 1764
cur table: 1674
epoch: 1000
next table: 1329
cur table: 1306
epoch: 1000
next table: 1632
cur table: 1764
epoch: 1000
next table: 1296
cur table: 1329
Heartbeat CPU 0 instructions: 20000000 cycles: 6361469 heartbeat IPC: 3.12574 cumulative IPC: 3.14393 (Simulation time: 0 hr 12 min 31 sec) 
epoch: 1000
next table: 1660
cur table: 1632
epoch: 1000
next table: 1300
cur table: 1296
epoch: 1000
next table: 1735
cur table: 1660
epoch: 1000
next table: 1325
cur table: 1300
epoch: 1000
next table: 1711
cur table: 1735
epoch: 1000
next table: 1265
cur table: 1325
epoch: 1000
next table: 1660
cur table: 1711
epoch: 1000
next table: 1267
cur table: 1265
epoch: 1000
next table: 1626
cur table: 1660
epoch: 1000
next table: 1206
cur table: 1267
epoch: 1000
next table: 1660
cur table: 1626
epoch: 1000
next table: 1271
cur table: 1206
epoch: 1000
next table: 1711
cur table: 1660
epoch: 1000
next table: 1280
cur table: 1271
epoch: 1000
next table: 1731
cur table: 1711
epoch: 1000
next table: 1239
cur table: 1280
epoch: 1000
next table: 1814
cur table: 1731
epoch: 1000
next table: 1213
cur table: 1239
epoch: 1000
next table: 1782
cur table: 1814
epoch: 1000
next table: 1234
cur table: 1213
epoch: 1000
next table: 1845
cur table: 1782
epoch: 1000
next table: 1206
cur table: 1234
epoch: 1000
next table: 1652
cur table: 1845
epoch: 1000
next table: 1191
cur table: 1206
epoch: 1000
next table: 1832
cur table: 1652
epoch: 1000
next table: 1204
cur table: 1191
epoch: 1000
next table: 1852
cur table: 1832
epoch: 1000
next table: 1226
cur table: 1204
epoch: 1000
next table: 1825
cur table: 1852
epoch: 1000
next table: 1178
cur table: 1226
epoch: 1000
next table: 1820
cur table: 1825
epoch: 1000
next table: 1221
cur table: 1178
epoch: 1000
next table: 1958
cur table: 1820
epoch: 1000
next table: 1175
cur table: 1221
epoch: 1000
next table: 1854
cur table: 1958
epoch: 1000
next table: 1188
cur table: 1175
epoch: 1000
next table: 1880
cur table: 1854
epoch: 1000
next table: 1198
cur table: 1188
epoch: 1000
next table: 1857
cur table: 1880
epoch: 1000
next table: 1180
cur table: 1198
epoch: 1000
next table: 1888
cur table: 1857
epoch: 1000
next table: 1184
cur table: 1180
epoch: 1000
next table: 1849
cur table: 1888
epoch: 1000
next table: 1191
cur table: 1184
epoch: 1000
next table: 1881
cur table: 1849
epoch: 1000
next table: 1188
cur table: 1191
epoch: 1000
next table: 1892
cur table: 1881
epoch: 1000
next table: 1211
cur table: 1188
epoch: 1000
next table: 1801
cur table: 1892
epoch: 1000
next table: 1205
cur table: 1211
epoch: 1000
next table: 1915
cur table: 1801
epoch: 1000
next table: 1208
cur table: 1205
epoch: 1000
next table: 1838
cur table: 1915
epoch: 1000
next table: 1889
cur table: 1838
epoch: 1000
next table: 1203
cur table: 1208
epoch: 1000
next table: 1803
cur table: 1889
epoch: 1000
next table: 1210
cur table: 1203
epoch: 1000
next table: 1806
cur table: 1803
epoch: 1000
next table: 1218
cur table: 1210
epoch: 1000
next table: 1878
cur table: 1806
epoch: 1000
next table: 1239
cur table: 1218
epoch: 1000
next table: 1852
cur table: 1878
epoch: 1000
next table: 1268
cur table: 1239
epoch: 1000
next table: 1817
cur table: 1852
epoch: 1000
next table: 1836
cur table: 1817
epoch: 1000
next table: 1327
cur table: 1268
epoch: 1000
next table: 1767
cur table: 1836
epoch: 1000
next table: 1522
cur table: 1327
epoch: 1000
next table: 1816
cur table: 1767
epoch: 1000
next table: 1798
cur table: 1816
epoch: 1000
next table: 1475
cur table: 1522
epoch: 1000
next table: 1787
cur table: 1798
epoch: 1000
next table: 1778
cur table: 1787
epoch: 1000
next table: 1583
cur table: 1475
epoch: 1000
next table: 1811
cur table: 1778
epoch: 1000
next table: 1565
cur table: 1583
epoch: 1000
next table: 1769
cur table: 1811
epoch: 1000
next table: 1799
cur table: 1769
epoch: 1000
next table: 1547
cur table: 1565
epoch: 1000
next table: 1818
cur table: 1799
epoch: 1000
next table: 1629
cur table: 1547
epoch: 1000
next table: 1824
cur table: 1818
epoch: 1000
next table: 1775
cur table: 1824
epoch: 1000
next table: 1542
cur table: 1629
epoch: 1000
next table: 1816
cur table: 1775
epoch: 1000
next table: 1803
cur table: 1816
epoch: 1000
next table: 1838
cur table: 1542
epoch: 1000
next table: 1786
cur table: 1803
epoch: 1000
next table: 1670
cur table: 1838
epoch: 1000
next table: 1837
cur table: 1786
epoch: 1000
next table: 1783
cur table: 1837
epoch: 1000
next table: 1742
cur table: 1670
epoch: 1000
next table: 1822
cur table: 1783
epoch: 1000
next table: 1807
cur table: 1822
epoch: 1000
next table: 1676
cur table: 1742
epoch: 1000
next table: 1831
cur table: 1807
epoch: 1000
next table: 1680
cur table: 1676
epoch: 1000
next table: 1814
cur table: 1831
epoch: 1000
next table: 1795
cur table: 1814
epoch: 1000
next table: 1625
cur table: 1680
epoch: 1000
next table: 1821
cur table: 1795
epoch: 1000
next table: 1657
cur table: 1625
epoch: 1000
next table: 1818
cur table: 1821
epoch: 1000
next table: 1808
cur table: 1818
epoch: 1000
next table: 1712
cur table: 1657
epoch: 1000
next table: 1780
cur table: 1808
epoch: 1000
next table: 1844
cur table: 1780
epoch: 1000
next table: 1730
cur table: 1712
epoch: 1000
next table: 1822
cur table: 1844
epoch: 1000
next table: 1644
cur table: 1730
epoch: 1000
next table: 1818
cur table: 1822
epoch: 1000
next table: 1814
cur table: 1818
epoch: 1000
next table: 1684
cur table: 1644
epoch: 1000
next table: 1795
cur table: 1814
epoch: 1000
next table: 1650
cur table: 1684
epoch: 1000
next table: 1807
cur table: 1795
epoch: 1000
next table: 1790
cur table: 1807
epoch: 1000
next table: 1627
cur table: 1650
epoch: 1000
next table: 1791
cur table: 1790
epoch: 1000
next table: 1589
cur table: 1627
epoch: 1000
next table: 1825
cur table: 1791
epoch: 1000
next table: 1804
cur table: 1825
epoch: 1000
next table: 1651
cur table: 1589
epoch: 1000
next table: 1794
cur table: 1804
epoch: 1000
next table: 1552
cur table: 1651
epoch: 1000
next table: 1804
cur table: 1794
epoch: 1000
next table: 1773
cur table: 1804
epoch: 1000
next table: 1489
cur table: 1552
epoch: 1000
next table: 1811
cur table: 1773
epoch: 1000
next table: 1570
cur table: 1489
epoch: 1000
next table: 1792
cur table: 1811
epoch: 1000
next table: 1515
cur table: 1570
epoch: 1000
next table: 1802
cur table: 1792
epoch: 1000
next table: 1462
cur table: 1515
epoch: 1000
next table: 1798
cur table: 1802
epoch: 1000
next table: 1531
cur table: 1462
epoch: 1000
next table: 1838
cur table: 1798
epoch: 1000
next table: 1783
cur table: 1838
epoch: 1000
next table: 1615
cur table: 1531
epoch: 1000
next table: 1846
cur table: 1783
epoch: 1000
next table: 1497
cur table: 1615
epoch: 1000
next table: 1865
cur table: 1846
epoch: 1000
next table: 1527
cur table: 1497
epoch: 1000
next table: 1836
cur table: 1865
epoch: 1000
next table: 1588
cur table: 1527
epoch: 1000
next table: 1837
cur table: 1836
epoch: 1000
next table: 1821
cur table: 1837
epoch: 1000
next table: 1622
cur table: 1588
epoch: 1000
next table: 1817
cur table: 1821
epoch: 1000
next table: 1534
cur table: 1622
epoch: 1000
next table: 1839
cur table: 1817
epoch: 1000
next table: 1645
cur table: 1534
epoch: 1000
next table: 1845
cur table: 1839
epoch: 1000
next table: 1835
cur table: 1845
epoch: 1000
next table: 1513
cur table: 1645
epoch: 1000
next table: 1823
cur table: 1835
epoch: 1000
next table: 1586
cur table: 1513
epoch: 1000
next table: 1820
cur table: 1823
epoch: 1000
next table: 1505
cur table: 1586
epoch: 1000
next table: 1828
cur table: 1820
epoch: 1000
next table: 1531
cur table: 1505
epoch: 1000
next table: 1799
cur table: 1828
epoch: 1000
next table: 1826
cur table: 1799
epoch: 1000
next table: 1495
cur table: 1531
epoch: 1000
next table: 1827
cur table: 1826
epoch: 1000
next table: 1550
cur table: 1495
epoch: 1000
next table: 1817
cur table: 1827
epoch: 1000
next table: 1547
cur table: 1550
epoch: 1000
next table: 1795
cur table: 1817
epoch: 1000
next table: 1561
cur table: 1547
epoch: 1000
next table: 1790
cur table: 1795
epoch: 1000
next table: 1579
cur table: 1561
epoch: 1000
next table: 1799
cur table: 1790
epoch: 1000
next table: 1512
cur table: 1579
epoch: 1000
next table: 1796
cur table: 1799
epoch: 1000
next table: 1497
cur table: 1512
epoch: 1000
next table: 1807
cur table: 1796
epoch: 1000
next table: 1478
cur table: 1497
epoch: 1000
next table: 1786
cur table: 1807
epoch: 1000
next table: 1489
cur table: 1478
epoch: 1000
next table: 1789
cur table: 1786
epoch: 1000
next table: 1582
cur table: 1489
epoch: 1000
next table: 1796
cur table: 1789
epoch: 1000
next table: 1290
cur table: 1582
epoch: 1000
next table: 1832
cur table: 1796
epoch: 1000
next table: 1295
cur table: 1290
epoch: 1000
next table: 1842
cur table: 1832
epoch: 1000
next table: 1236
cur table: 1295
epoch: 1000
next table: 1848
cur table: 1842
epoch: 1000
next table: 1213
cur table: 1236
epoch: 1000
next table: 1873
cur table: 1848
epoch: 1000
next table: 1825
cur table: 1873
epoch: 1000
next table: 1226
cur table: 1213
epoch: 1000
next table: 1824
cur table: 1825
epoch: 1000
next table: 1235
cur table: 1226
epoch: 1000
next table: 1857
cur table: 1824
epoch: 1000
next table: 1272
cur table: 1235
epoch: 1000
next table: 1816
cur table: 1857
epoch: 1000
next table: 1248
cur table: 1272
epoch: 1000
next table: 1843
cur table: 1816
epoch: 1000
next table: 1258
cur table: 1248
epoch: 1000
next table: 1823
cur table: 1843
epoch: 1000
next table: 1268
cur table: 1258
epoch: 1000
next table: 1899
cur table: 1823
epoch: 1000
next table: 1270
cur table: 1268
epoch: 1000
next table: 1856
cur table: 1899
epoch: 1000
next table: 1277
cur table: 1270
epoch: 1000
next table: 1839
cur table: 1856
epoch: 1000
next table: 1272
cur table: 1277
epoch: 1000
next table: 1836
cur table: 1839
epoch: 1000
next table: 1272
cur table: 1272
epoch: 1000
next table: 1843
cur table: 1836
epoch: 1000
next table: 1288
cur table: 1272
epoch: 1000
next table: 1873
cur table: 1843
epoch: 1000
next table: 1269
cur table: 1288
epoch: 1000
next table: 1829
cur table: 1873
epoch: 1000
next table: 1263
cur table: 1269
epoch: 1000
next table: 1877
cur table: 1829
epoch: 1000
next table: 1257
cur table: 1263
epoch: 1000
next table: 1820
cur table: 1877
epoch: 1000
next table: 1247
cur table: 1257
epoch: 1000
next table: 1843
cur table: 1820
epoch: 1000
next table: 1257
cur table: 1247
epoch: 1000
next table: 1854
cur table: 1843
epoch: 1000
next table: 1255
cur table: 1257
epoch: 1000
next table: 1843
cur table: 1854
epoch: 1000
next table: 1249
cur table: 1255
epoch: 1000
next table: 1845
cur table: 1843
epoch: 1000
next table: 1255
cur table: 1249
epoch: 1000
next table: 1892
cur table: 1845
epoch: 1000
next table: 1243
cur table: 1255
epoch: 1000
next table: 1860
cur table: 1892
epoch: 1000
next table: 1266
cur table: 1243
epoch: 1000
next table: 1883
cur table: 1860
epoch: 1000
next table: 1856
cur table: 1883
epoch: 1000
next table: 1257
cur table: 1266
epoch: 1000
next table: 1851
cur table: 1856
epoch: 1000
next table: 1256
cur table: 1257
epoch: 1000
next table: 1850
cur table: 1851
epoch: 1000
next table: 1265
cur table: 1256
epoch: 1000
next table: 1848
cur table: 1850
epoch: 1000
next table: 1286
cur table: 1265
epoch: 1000
next table: 1812
cur table: 1848
epoch: 1000
next table: 1268
cur table: 1286
epoch: 1000
next table: 1836
cur table: 1812
epoch: 1000
next table: 1241
cur table: 1268
epoch: 1000
next table: 1860
cur table: 1836
epoch: 1000
next table: 1277
cur table: 1241
epoch: 1000
next table: 1848
cur table: 1860
epoch: 1000
next table: 1257
cur table: 1277
epoch: 1000
next table: 1857
cur table: 1848
epoch: 1000
next table: 1268
cur table: 1257
epoch: 1000
next table: 1853
cur table: 1857
epoch: 1000
next table: 1251
cur table: 1268
epoch: 1000
next table: 1890
cur table: 1853
epoch: 1000
next table: 1268
cur table: 1251
epoch: 1000
next table: 1805
cur table: 1890
epoch: 1000
next table: 1284
cur table: 1268
epoch: 1000
next table: 1848
cur table: 1805
epoch: 1000
next table: 1272
cur table: 1284
epoch: 1000
next table: 1861
cur table: 1848
epoch: 1000
next table: 1266
cur table: 1272
epoch: 1000
next table: 1846
cur table: 1861
epoch: 1000
next table: 1283
cur table: 1266
epoch: 1000
next table: 1827
cur table: 1846
epoch: 1000
next table: 1268
cur table: 1283
epoch: 1000
next table: 1833
cur table: 1827
epoch: 1000
next table: 1260
cur table: 1268
epoch: 1000
next table: 1833
cur table: 1833
epoch: 1000
next table: 1232
cur table: 1260
epoch: 1000
next table: 1818
cur table: 1833
epoch: 1000
next table: 1267
cur table: 1232
epoch: 1000
next table: 1829
cur table: 1818
epoch: 1000
next table: 1825
cur table: 1829
epoch: 1000
next table: 1237
cur table: 1267
epoch: 1000
next table: 1848
cur table: 1825
epoch: 1000
next table: 1244
cur table: 1237
epoch: 1000
next table: 1831
cur table: 1848
epoch: 1000
next table: 1296
cur table: 1244
epoch: 1000
next table: 1787
cur table: 1831
epoch: 1000
next table: 1827
cur table: 1787
epoch: 1000
next table: 1423
cur table: 1296
epoch: 1000
next table: 1817
cur table: 1827
epoch: 1000
next table: 1545
cur table: 1423
epoch: 1000
next table: 1812
cur table: 1817
epoch: 1000
next table: 1832
cur table: 1812
epoch: 1000
next table: 1765
cur table: 1545
epoch: 1000
next table: 1795
cur table: 1832
epoch: 1000
next table: 1705
cur table: 1765
epoch: 1000
next table: 1796
cur table: 1795
epoch: 1000
next table: 1795
cur table: 1796
epoch: 1000
next table: 1790
cur table: 1705
epoch: 1000
next table: 1773
cur table: 1795
epoch: 1000
next table: 1800
cur table: 1773
epoch: 1000
next table: 1650
cur table: 1790
epoch: 1000
next table: 1783
cur table: 1800
epoch: 1000
next table: 1772
cur table: 1650
epoch: 1000
next table: 1795
cur table: 1783
epoch: 1000
next table: 1789
cur table: 1795
epoch: 1000
next table: 1812
cur table: 1772
epoch: 1000
next table: 1796
cur table: 1789
epoch: 1000
next table: 1783
cur table: 1796
epoch: 1000
next table: 1951
cur table: 1812
epoch: 1000
next table: 1783
cur table: 1783
epoch: 1000
next table: 1776
cur table: 1783
epoch: 1000
next table: 1943
cur table: 1951
epoch: 1000
next table: 1786
cur table: 1776
epoch: 1000
next table: 1805
cur table: 1786
epoch: 1000
next table: 2019
cur table: 1943
epoch: 1000
next table: 1782
cur table: 1805
epoch: 1000
next table: 1796
cur table: 1782
epoch: 1000
next table: 1937
cur table: 2019
epoch: 1000
next table: 1789
cur table: 1796
epoch: 1000
next table: 1731
cur table: 1937
epoch: 1000
next table: 1807
cur table: 1789
epoch: 1000
next table: 1779
cur table: 1807
epoch: 1000
next table: 1825
cur table: 1731
epoch: 1000
next table: 1780
cur table: 1779
epoch: 1000
next table: 1789
cur table: 1780
epoch: 1000
next table: 1882
cur table: 1825
epoch: 1000
next table: 1796
cur table: 1789
epoch: 1000
next table: 1795
cur table: 1796
epoch: 1000
next table: 1848
cur table: 1882
epoch: 1000
next table: 1799
cur table: 1795
epoch: 1000
next table: 1860
cur table: 1848
epoch: 1000
next table: 1809
cur table: 1799
epoch: 1000
next table: 1791
cur table: 1809
epoch: 1000
next table: 1838
cur table: 1860
epoch: 1000
next table: 1797
cur table: 1791
epoch: 1000
next table: 1796
cur table: 1797
epoch: 1000
next table: 1978
cur table: 1838
epoch: 1000
next table: 1786
cur table: 1796
epoch: 1000
next table: 1779
cur table: 1786
epoch: 1000
next table: 1774
cur table: 1978
epoch: 1000
next table: 1788
cur table: 1779
epoch: 1000
next table: 1801
cur table: 1774
epoch: 1000
next table: 1804
cur table: 1788
epoch: 1000
next table: 1805
cur table: 1804
epoch: 1000
next table: 1776
cur table: 1801
epoch: 1000
next table: 1787
cur table: 1805
epoch: 1000
next table: 1794
cur table: 1787
epoch: 1000
next table: 1787
cur table: 1776
epoch: 1000
next table: 1794
cur table: 1794
epoch: 1000
next table: 1592
cur table: 1787
epoch: 1000
next table: 1797
cur table: 1794
epoch: 1000
next table: 1591
cur table: 1592
epoch: 1000
next table: 1791
cur table: 1797
epoch: 1000
next table: 1777
cur table: 1791
epoch: 1000
next table: 1647
cur table: 1591
epoch: 1000
next table: 1783
cur table: 1777
epoch: 1000
next table: 1620
cur table: 1647
epoch: 1000
next table: 1803
cur table: 1783
epoch: 1000
next table: 1678
cur table: 1620
epoch: 1000
next table: 1800
cur table: 1803
epoch: 1000
next table: 1788
cur table: 1800
epoch: 1000
next table: 1666
cur table: 1678
epoch: 1000
next table: 1798
cur table: 1788
epoch: 1000
next table: 1693
cur table: 1666
epoch: 1000
next table: 1819
cur table: 1798
epoch: 1000
next table: 1691
cur table: 1693
epoch: 1000
next table: 1798
cur table: 1819
epoch: 1000
next table: 1801
cur table: 1798
epoch: 1000
next table: 1697
cur table: 1691
epoch: 1000
next table: 1812
cur table: 1801
epoch: 1000
next table: 1614
cur table: 1697
epoch: 1000
next table: 1796
cur table: 1812
epoch: 1000
next table: 1608
cur table: 1614
epoch: 1000
next table: 1806
cur table: 1796
epoch: 1000
next table: 1801
cur table: 1806
epoch: 1000
next table: 1671
cur table: 1608
epoch: 1000
next table: 1788
cur table: 1801
epoch: 1000
next table: 1629
cur table: 1671
epoch: 1000
next table: 1787
cur table: 1788
epoch: 1000
next table: 1690
cur table: 1629
epoch: 1000
next table: 1792
cur table: 1787
epoch: 1000
next table: 1797
cur table: 1792
epoch: 1000
next table: 1648
cur table: 1690
epoch: 1000
next table: 1802
cur table: 1797
epoch: 1000
next table: 1590
cur table: 1648
epoch: 1000
next table: 1787
cur table: 1802
epoch: 1000
next table: 1600
cur table: 1590
epoch: 1000
next table: 1790
cur table: 1787
epoch: 1000
next table: 1642
cur table: 1600
epoch: 1000
next table: 1787
cur table: 1790
epoch: 1000
next table: 1794
cur table: 1787
epoch: 1000
next table: 1577
cur table: 1642
epoch: 1000
next table: 1796
cur table: 1794
epoch: 1000
next table: 1538
cur table: 1577
epoch: 1000
next table: 1810
cur table: 1796
epoch: 1000
next table: 1496
cur table: 1538
epoch: 1000
next table: 1796
cur table: 1810
epoch: 1000
next table: 1551
cur table: 1496
epoch: 1000
next table: 1810
cur table: 1796
epoch: 1000
next table: 1499
cur table: 1551
epoch: 1000
next table: 1749
cur table: 1810
epoch: 1000
next table: 1217
cur table: 1499
epoch: 1000
next table: 1794
cur table: 1749
epoch: 1000
next table: 1274
cur table: 1217
epoch: 1000
next table: 1821
cur table: 1794
epoch: 1000
next table: 1277
cur table: 1274
epoch: 1000
next table: 1822
cur table: 1821
epoch: 1000
next table: 1198
cur table: 1277
epoch: 1000
next table: 1841
cur table: 1822
epoch: 1000
next table: 1198
cur table: 1198
epoch: 1000
next table: 1803
cur table: 1841
epoch: 1000
next table: 1170
cur table: 1198
epoch: 1000
next table: 1821
cur table: 1803
epoch: 1000
next table: 1180
cur table: 1170
epoch: 1000
next table: 1754
cur table: 1821
epoch: 1000
next table: 1194
cur table: 1180
epoch: 1000
next table: 1825
cur table: 1754
epoch: 1000
next table: 1196
cur table: 1194
epoch: 1000
next table: 1815
cur table: 1825
epoch: 1000
next table: 1221
cur table: 1196
epoch: 1000
next table: 1807
cur table: 1815
epoch: 1000
next table: 1209
cur table: 1221
epoch: 1000
next table: 1841
cur table: 1807
epoch: 1000
next table: 1213
cur table: 1209
epoch: 1000
next table: 1822
cur table: 1841
epoch: 1000
next table: 1222
cur table: 1213
epoch: 1000
next table: 1857
cur table: 1822
epoch: 1000
next table: 1205
cur table: 1222
epoch: 1000
next table: 1817
cur table: 1857
epoch: 1000
next table: 1226
cur table: 1205
epoch: 1000
next table: 1847
cur table: 1817
epoch: 1000
next table: 1199
cur table: 1226
epoch: 1000
next table: 1817
cur table: 1847
epoch: 1000
next table: 1193
cur table: 1199
epoch: 1000
next table: 1755
cur table: 1817
epoch: 1000
next table: 1209
cur table: 1193
epoch: 1000
next table: 1891
cur table: 1755
epoch: 1000
next table: 1207
cur table: 1209
epoch: 1000
next table: 1858
cur table: 1891
epoch: 1000
next table: 1826
cur table: 1858
epoch: 1000
next table: 1214
cur table: 1207
epoch: 1000
next table: 1819
cur table: 1826
epoch: 1000
next table: 1208
cur table: 1214
epoch: 1000
next table: 1865
cur table: 1819
epoch: 1000
next table: 1204
cur table: 1208
epoch: 1000
next table: 1725
cur table: 1865
epoch: 1000
next table: 1182
cur table: 1204
epoch: 1000
next table: 1781
cur table: 1725
epoch: 1000
next table: 1173
cur table: 1182
epoch: 1000
next table: 1735
cur table: 1781
epoch: 1000
next table: 1177
cur table: 1173
epoch: 1000
next table: 1740
cur table: 1735
epoch: 1000
next table: 1176
cur table: 1177
epoch: 1000
next table: 1742
cur table: 1740
epoch: 1000
next table: 1193
cur table: 1176
epoch: 1000
next table: 1785
cur table: 1742
epoch: 1000
next table: 1189
cur table: 1193
epoch: 1000
next table: 1755
cur table: 1785
epoch: 1000
next table: 1174
cur table: 1189
epoch: 1000
next table: 1706
cur table: 1755
epoch: 1000
next table: 1180
cur table: 1174
epoch: 1000
next table: 1733
cur table: 1706
epoch: 1000
next table: 1187
cur table: 1180
epoch: 1000
next table: 1725
cur table: 1733
epoch: 1000
next table: 1186
cur table: 1187
epoch: 1000
next table: 1810
cur table: 1725
epoch: 1000
next table: 1183
cur table: 1186
epoch: 1000
next table: 1754
cur table: 1810
epoch: 1000
next table: 1187
cur table: 1183
epoch: 1000
next table: 1785
cur table: 1754
epoch: 1000
next table: 1209
cur table: 1187
epoch: 1000
next table: 1703
cur table: 1785
epoch: 1000
next table: 1185
cur table: 1209
epoch: 1000
next table: 1761
cur table: 1703
epoch: 1000
next table: 1200
cur table: 1185
epoch: 1000
next table: 1764
cur table: 1761
epoch: 1000
next table: 1186
cur table: 1200
epoch: 1000
next table: 1703
cur table: 1764
epoch: 1000
next table: 1196
cur table: 1186
epoch: 1000
next table: 1757
cur table: 1703
epoch: 1000
next table: 1186
cur table: 1196
epoch: 1000
next table: 1723
cur table: 1757
epoch: 1000
next table: 1198
cur table: 1186
epoch: 1000
next table: 1781
cur table: 1723
epoch: 1000
next table: 1189
cur table: 1198
epoch: 1000
next table: 1747
cur table: 1781
epoch: 1000
next table: 1199
cur table: 1189
epoch: 1000
next table: 1800
cur table: 1747
epoch: 1000
next table: 1198
cur table: 1199
epoch: 1000
next table: 1707
cur table: 1800
epoch: 1000
next table: 1198
cur table: 1198
epoch: 1000
next table: 1803
cur table: 1707
epoch: 1000
next table: 1234
cur table: 1198
epoch: 1000
next table: 1686
cur table: 1803
epoch: 1000
next table: 1209
cur table: 1234
epoch: 1000
next table: 1733
cur table: 1686
epoch: 1000
next table: 1193
cur table: 1209
epoch: 1000
next table: 1802
cur table: 1733
epoch: 1000
next table: 1218
cur table: 1193
epoch: 1000
next table: 1844
cur table: 1802
epoch: 1000
next table: 1235
cur table: 1218
epoch: 1000
next table: 1866
cur table: 1844
epoch: 1000
next table: 1245
cur table: 1235
epoch: 1000
next table: 1760
cur table: 1866
epoch: 1000
next table: 1217
cur table: 1245
epoch: 1000
next table: 1856
cur table: 1760
epoch: 1000
next table: 1217
cur table: 1217
epoch: 1000
next table: 1749
cur table: 1856
epoch: 1000
next table: 1208
cur table: 1217
epoch: 1000
next table: 1812
cur table: 1749
epoch: 1000
next table: 1207
cur table: 1208
epoch: 1000
next table: 1798
cur table: 1812
epoch: 1000
next table: 1201
cur table: 1207
epoch: 1000
next table: 1710
cur table: 1798
epoch: 1000
next table: 1213
cur table: 1201
epoch: 1000
next table: 1826
cur table: 1710
epoch: 1000
next table: 1209
cur table: 1213
epoch: 1000
next table: 1747
cur table: 1826
epoch: 1000
next table: 1794
cur table: 1747
epoch: 1000
next table: 1217
cur table: 1209
epoch: 1000
next table: 1786
cur table: 1794
epoch: 1000
next table: 1235
cur table: 1217
epoch: 1000
next table: 1736
cur table: 1786
epoch: 1000
next table: 1235
cur table: 1235
epoch: 1000
next table: 1765
cur table: 1736
epoch: 1000
next table: 1214
cur table: 1235
epoch: 1000
next table: 1756
cur table: 1765
epoch: 1000
next table: 1204
cur table: 1214
epoch: 1000
next table: 1739
cur table: 1756
epoch: 1000
next table: 1224
cur table: 1204
epoch: 1000
next table: 1778
cur table: 1739
epoch: 1000
next table: 1227
cur table: 1224
epoch: 1000
next table: 1807
cur table: 1778
epoch: 1000
next table: 1237
cur table: 1227
epoch: 1000
next table: 1816
cur table: 1807
epoch: 1000
next table: 1228
cur table: 1237
epoch: 1000
next table: 1796
cur table: 1816
epoch: 1000
next table: 1232
cur table: 1228
epoch: 1000
next table: 1809
cur table: 1796
epoch: 1000
next table: 1807
cur table: 1809
epoch: 1000
next table: 1240
cur table: 1232
epoch: 1000
next table: 1816
cur table: 1807
epoch: 1000
next table: 1419
cur table: 1240
epoch: 1000
next table: 1825
cur table: 1816
epoch: 1000
next table: 1400
cur table: 1419
epoch: 1000
next table: 1758
cur table: 1825
epoch: 1000
next table: 1778
cur table: 1758
epoch: 1000
next table: 1620
cur table: 1400
epoch: 1000
next table: 1799
cur table: 1778
epoch: 1000
next table: 1768
cur table: 1799
epoch: 1000
next table: 1565
cur table: 1620
epoch: 1000
next table: 1794
cur table: 1768
epoch: 1000
next table: 1566
cur table: 1565
epoch: 1000
next table: 1783
cur table: 1794
epoch: 1000
next table: 1772
cur table: 1783
epoch: 1000
next table: 1641
cur table: 1566
epoch: 1000
next table: 1797
cur table: 1772
epoch: 1000
next table: 1789
cur table: 1797
epoch: 1000
next table: 1637
cur table: 1641
epoch: 1000
next table: 1785
cur table: 1789
epoch: 1000
next table: 1729
cur table: 1637
epoch: 1000
next table: 1786
cur table: 1785
epoch: 1000
next table: 1805
cur table: 1786
epoch: 1000
next table: 1833
cur table: 1729
epoch: 1000
next table: 1801
cur table: 1805
epoch: 1000
next table: 1806
cur table: 1801
epoch: 1000
next table: 1868
cur table: 1833
epoch: 1000
next table: 1813
cur table: 1806
epoch: 1000
next table: 1797
cur table: 1813
epoch: 1000
next table: 1817
cur table: 1868
epoch: 1000
next table: 1807
cur table: 1797
epoch: 1000
next table: 1774
cur table: 1807
epoch: 1000
next table: 1802
cur table: 1817
epoch: 1000
next table: 1799
cur table: 1774
epoch: 1000
next table: 1786
cur table: 1799
epoch: 1000
next table: 1792
cur table: 1802
epoch: 1000
next table: 1814
cur table: 1786
epoch: 1000
next table: 1795
cur table: 1814
epoch: 1000
next table: 1872
cur table: 1792
epoch: 1000
next table: 1810
cur table: 1795
epoch: 1000
next table: 1795
cur table: 1810
epoch: 1000
next table: 1799
cur table: 1872
epoch: 1000
next table: 1791
cur table: 1795
epoch: 1000
next table: 1812
cur table: 1799
epoch: 1000
next table: 1810
cur table: 1791
epoch: 1000
next table: 1833
cur table: 1810
epoch: 1000
next table: 1800
cur table: 1812
epoch: 1000
next table: 1824
cur table: 1833
epoch: 1000
next table: 1810
cur table: 1824
epoch: 1000
next table: 1854
cur table: 1800
epoch: 1000
next table: 1781
cur table: 1810
epoch: 1000
next table: 1798
cur table: 1781
epoch: 1000
next table: 1776
cur table: 1854
epoch: 1000
next table: 1802
cur table: 1798
epoch: 1000
next table: 1673
cur table: 1776
epoch: 1000
next table: 1798
cur table: 1802
epoch: 1000
next table: 1825
cur table: 1798
epoch: 1000
next table: 1783
cur table: 1673
epoch: 1000
next table: 1840
cur table: 1825
epoch: 1000
next table: 1797
cur table: 1840
epoch: 1000
next table: 1691
cur table: 1783
epoch: 1000
next table: 1831
cur table: 1797
epoch: 1000
next table: 1784
cur table: 1831
epoch: 1000
next table: 1755
cur table: 1691
epoch: 1000
next table: 1763
cur table: 1784
epoch: 1000
next table: 1710
cur table: 1755
epoch: 1000
next table: 1792
cur table: 1763
epoch: 1000
next table: 1802
cur table: 1792
epoch: 1000
next table: 1634
cur table: 1710
epoch: 1000
next table: 1798
cur table: 1802
epoch: 1000
next table: 1655
cur table: 1634
epoch: 1000
next table: 1808
cur table: 1798
epoch: 1000
next table: 1792
cur table: 1808
epoch: 1000
next table: 1542
cur table: 1655
epoch: 1000
next table: 1804
cur table: 1792
epoch: 1000
next table: 1711
cur table: 1542
epoch: 1000
next table: 1818
cur table: 1804
epoch: 1000
next table: 1578
cur table: 1711
epoch: 1000
next table: 1809
cur table: 1818
epoch: 1000
next table: 1805
cur table: 1809
epoch: 1000
next table: 1572
cur table: 1578
epoch: 1000
next table: 1802
cur table: 1805
epoch: 1000
next table: 1709
cur table: 1572
epoch: 1000
next table: 1836
cur table: 1802
epoch: 1000
next table: 1663
[...]
epoch: 1000
next table: 1788
cur table: 1889
epoch: 1000
next table: 1194
cur table: 1156
epoch: 1000
next table: 1833
cur table: 1788
epoch: 1000
next table: 1196
cur table: 1194
epoch: 1000
next table: 1821
cur table: 1833
epoch: 1000
next table: 1194
cur table: 1196
epoch: 1000
next table: 1850
cur table: 1821
epoch: 1000
next table: 1171
cur table: 1194
epoch: 1000
next table: 1902
cur table: 1850
epoch: 1000
next table: 1161
cur table: 1171
epoch: 1000
next table: 1799
cur table: 1902
epoch: 1000
next table: 1180
cur table: 1161
epoch: 1000
next table: 1820
cur table: 1799
epoch: 1000
next table: 1153
cur table: 1180
epoch: 1000
next table: 1882
cur table: 1820
epoch: 1000
next table: 1163
cur table: 1153
epoch: 1000
next table: 1880
cur table: 1882
epoch: 1000
next table: 1162
cur table: 1163
epoch: 1000
next table: 1902
cur table: 1880
epoch: 1000
next table: 1158
cur table: 1162
epoch: 1000
next table: 1783
cur table: 1902
epoch: 1000
next table: 1166
cur table: 1158
epoch: 1000
next table: 1887
cur table: 1783
epoch: 1000
next table: 1161
cur table: 1166
epoch: 1000
next table: 1856
cur table: 1887
epoch: 1000
next table: 1172
cur table: 1161
epoch: 1000
next table: 1827
cur table: 1856
epoch: 1000
next table: 1179
cur table: 1172
epoch: 1000
next table: 1888
cur table: 1827
epoch: 1000
next table: 1179
cur table: 1179
epoch: 1000
next table: 1897
cur table: 1888
epoch: 1000
next table: 1167
cur table: 1179
epoch: 1000
next table: 1787
cur table: 1897
epoch: 1000
next table: 1207
cur table: 1167
epoch: 1000
next table: 1913
cur table: 1787
epoch: 1000
next table: 1189
cur table: 1207
epoch: 1000
next table: 1889
cur table: 1913
epoch: 1000
next table: 1200
cur table: 1189
epoch: 1000
next table: 1851
cur table: 1889
epoch: 1000
next table: 1183
cur table: 1200
epoch: 1000
next table: 1823
cur table: 1851
epoch: 1000
next table: 1194
cur table: 1183
epoch: 1000
next table: 1888
cur table: 1823
epoch: 1000
next table: 1190
cur table: 1194
epoch: 1000
next table: 1844
cur table: 1888
epoch: 1000
next table: 1873
cur table: 1844
epoch: 1000
next table: 1215
cur table: 1190
epoch: 1000
next table: 1850
cur table: 1873
epoch: 1000
next table: 1186
cur table: 1215
epoch: 1000
next table: 1908
cur table: 1850
epoch: 1000
next table: 1203
cur table: 1186
epoch: 1000
next table: 1898
cur table: 1908
epoch: 1000
next table: 1203
cur table: 1203
epoch: 1000
next table: 1834
cur table: 1898
epoch: 1000
next table: 1201
cur table: 1203
epoch: 1000
next table: 1855
cur table: 1834
epoch: 1000
next table: 1200
cur table: 1201
epoch: 1000
next table: 1856
cur table: 1855
epoch: 1000
next table: 1192
cur table: 1200
epoch: 1000
next table: 1733
cur table: 1856
epoch: 1000
next table: 1207
cur table: 1192
epoch: 1000
next table: 1842
cur table: 1733
epoch: 1000
next table: 1210
cur table: 1207
epoch: 1000
next table: 1901
cur table: 1842
epoch: 1000
next table: 1225
cur table: 1210
epoch: 1000
next table: 1888
cur table: 1901
epoch: 1000
next table: 1195
cur table: 1225
epoch: 1000
next table: 1836
cur table: 1888
epoch: 1000
next table: 1217
cur table: 1195
epoch: 1000
next table: 1850
cur table: 1836
epoch: 1000
next table: 1198
cur table: 1217
epoch: 1000
next table: 1871
cur table: 1850
epoch: 1000
next table: 1202
cur table: 1198
epoch: 1000
next table: 1887
cur table: 1871
Heartbeat CPU 0 instructions: 100000000 cycles: 119519007 heartbeat IPC: 0.534257 cumulative IPC: 0.482392 (Simulation time: 1 hr 9 min 3 sec) 
Finished CPU 0 instructions: 50000000 cycles: 103650120 cumulative IPC: 0.482392 (Simulation time: 1 hr 9 min 3 sec) 

ChampSim completed all CPUs

Region of Interest Statistics

CPU 0 cumulative IPC: 0.482392 instructions: 50000000 cycles: 103650120
ITLB TOTAL     ACCESS:    7683364  HIT:    7683364  MISS:          0  HIT %:        100  MISS %:          0   MPKI: 0
ITLB LOAD TRANSLATION ACCESS:    7683364  HIT:    7683364  MISS:          0  HIT %:        100  MISS %:          0   MPKI: 0
ITLB PREFETCH  REQUESTED:          0  ISSUED:          0  USEFUL:          0  USELESS:          0
ITLB USEFUL LOAD PREFETCHES:          0 PREFETCH ISSUED TO LOWER LEVEL:          0  ACCURACY: -nan
ITLB TIMELY PREFETCHES:          0 LATE PREFETCHES: 0 DROPPED PREFETCHES: 0
ITLB PREFETCHES SAME FILL-ORIGIN LEVEL: 0 DIFFERENT FILL-ORIGIN LEVEL: 0
ITLB AVERAGE MISS LATENCY: -nan cycles
ITLB RQ	ACCESS:   10444070	FORWARD:          0	MERGED:    2760706	TO_CACHE:    7683364

Revised Interactions: positive negative neutral
ITLB_interactions 0 0 0 -nan -nan -nan
DTLB TOTAL     ACCESS:   13391983  HIT:   13269086  MISS:     122897  HIT %:    99.0823  MISS %:   0.917691   MPKI: 2.45794
DTLB LOAD TRANSLATION ACCESS:   13391983  HIT:   13269086  MISS:     122897  HIT %:    99.0823  MISS %:   0.917691   MPKI: 2.45794
DTLB PREFETCH  REQUESTED:          0  ISSUED:          0  USEFUL:          0  USELESS:          0
DTLB USEFUL LOAD PREFETCHES:          0 PREFETCH ISSUED TO LOWER LEVEL:          0  ACCURACY: -nan
DTLB TIMELY PREFETCHES:          0 LATE PREFETCHES: 0 DROPPED PREFETCHES: 0
DTLB PREFETCHES SAME FILL-ORIGIN LEVEL: 0 DIFFERENT FILL-ORIGIN LEVEL: 0
DTLB AVERAGE MISS LATENCY: 34.0021 cycles
DTLB RQ	ACCESS:   23394902	FORWARD:          0	MERGED:    9987958	TO_CACHE:   13406944

Revised Interactions: positive negative neutral
DTLB_interactions 0 0 0 -nan -nan -nan
STLB TOTAL     ACCESS:     122897  HIT:      79565  MISS:      43332  HIT %:    64.7412  MISS %:    35.2588   MPKI: 0.86664
STLB LOAD TRANSLATION ACCESS:     122897  HIT:      79565  MISS:      43332  HIT %:    64.7412  MISS %:    35.2588   MPKI: 0.86664
STLB PREFETCH  REQUESTED:          0  ISSUED:          0  USEFUL:          0  USELESS:          0
STLB USEFUL LOAD PREFETCHES:          0 PREFETCH ISSUED TO LOWER LEVEL:          0  ACCURACY: -nan
STLB TIMELY PREFETCHES:          0 LATE PREFETCHES: 0 DROPPED PREFETCHES: 0
STLB PREFETCHES SAME FILL-ORIGIN LEVEL: 0 DIFFERENT FILL-ORIGIN LEVEL: 0
STLB AVERAGE MISS LATENCY: 70.882 cycles
STLB RQ	ACCESS:     122897	FORWARD:          0	MERGED:          0	TO_CACHE:     122897

Revised Interactions: positive negative neutral
STLB_interactions 0 0 0 -nan -nan -nan
STLB Hit, L1D data hit: 0
STLB Hit, L2C data hit: 0
STLB Hit, LLC data hit: 0
STLB Hit, LLC data miss: 0
STLB STLB hints to L2: 0
L1D TOTAL     ACCESS:   22894383  HIT:   21378644  MISS:    1515739  HIT %:    93.3794  MISS %:    6.62057   MPKI: 30.3148
L1D LOAD      ACCESS:    9291254  HIT:    7912861  MISS:    1378393  HIT %:    85.1646  MISS %:    14.8354   MPKI: 27.5679
L1D RFO       ACCESS:   13603129  HIT:   13465783  MISS:     137346  HIT %:    98.9903  MISS %:    1.00966   MPKI: 2.74692
L1D PREFETCH  REQUESTED:          0  ISSUED:          0  USEFUL:          0  USELESS:          0
L1D USEFUL LOAD PREFETCHES:          0 PREFETCH ISSUED TO LOWER LEVEL:          0  ACCURACY: -nan
L1D TIMELY PREFETCHES:          0 LATE PREFETCHES: 0 DROPPED PREFETCHES: 0
L1D PREFETCHES SAME FILL-ORIGIN LEVEL: 0 DIFFERENT FILL-ORIGIN LEVEL: 0
L1D AVERAGE MISS LATENCY: 55.8 cycles
L1D RQ	ACCESS:   15839657	FORWARD:          0	MERGED:    6513153	TO_CACHE:    9319904
L1D WQ	ACCESS:   14166007	FORWARD:       6600	MERGED:      91009	TO_CACHE:   14074998

Revised Interactions: positive negative neutral
L1D_interactions 0 0 0 -nan -nan -nan
L1D UNIQUE REGIONS ACCESSED: 0
L1D REGIONS CONFLICTS: 0
L1D Cross Page Prefetch Requests: 0
L1D Same Page Prefetch Requests: 0
L1D ROI Sum of L1D PQ occupancy: 0
L1D PREFETCHES PUSHED FROM L2C: 0
L1I TOTAL     ACCESS:   10444069  HIT:   10444069  MISS:          0  HIT %:        100  MISS %:          0   MPKI: 0
L1I LOAD      ACCESS:   10444069  HIT:   10444069  MISS:          0  HIT %:        100  MISS %:          0   MPKI: 0
L1I PREFETCH  REQUESTED:          0  ISSUED:          0  USEFUL:          0  USELESS:          0
L1I USEFUL LOAD PREFETCHES:          0 PREFETCH ISSUED TO LOWER LEVEL:          0  ACCURACY: -nan
L1I TIMELY PREFETCHES:          0 LATE PREFETCHES: 0 DROPPED PREFETCHES: 0
L1I PREFETCHES SAME FILL-ORIGIN LEVEL: 0 DIFFERENT FILL-ORIGIN LEVEL: 0
L1I AVERAGE MISS LATENCY: -nan cycles
L1I RQ	ACCESS:   13815365	FORWARD:          0	MERGED:    3371295	TO_CACHE:   10444070

Revised Interactions: positive negative neutral
L1I_interactions 0 0 0 -nan -nan -nan
BTB TOTAL     ACCESS:    4939322  HIT:    4939288  MISS:         34  HIT %:    99.9993  MISS %: 0.000688354   MPKI: 0.00068
BTB BRANCH_DIRECT_JUMP	ACCESS:     263981  HIT:     263975  MISS:          6
BTB BRANCH_INDIRECT	ACCESS:          0  HIT:          0  MISS:          0
BTB BRANCH_CONDITIONAL	ACCESS:    4675289  HIT:    4675265  MISS:         24
BTB BRANCH_DIRECT_CALL	ACCESS:         26  HIT:         24  MISS:          2
BTB BRANCH_INDIRECT_CALL	ACCESS:          0  HIT:          0  MISS:          0
BTB BRANCH_RETURN	ACCESS:         26  HIT:         24  MISS:          2
BTB BRANCH_OTHER ACCESS:          0  HIT:          0  MISS:          0

L2C TOTAL     ACCESS:    3591154  HIT:    1571738  MISS:    2019416  HIT %:    43.7669  MISS %:    56.2331   MPKI: 40.3883
L2C LOAD      ACCESS:    1378388  HIT:    1098765  MISS:     279623  HIT %:    79.7138  MISS %:    20.2862   MPKI: 5.59246
L2C DATA LOAD MPKI: 5.59246
L2C INSTRUCTION LOAD MPKI: 0
L2C RFO       ACCESS:     137345  HIT:      11269  MISS:     126076  HIT %:    8.20489  MISS %:    91.7951   MPKI: 2.52152
L2C PREFETCH  ACCESS:    1679653  HIT:      80212  MISS:    1599441  HIT %:    4.77551  MISS %:    95.2245   MPKI: 31.9888
L2C DATA PREFETCH MPKI: 31.9888
L2C INSTRUCTION PREFETCH MPKI: 0
L2C WRITEBACK ACCESS:     352348  HIT:     344567  MISS:       7781  HIT %:    97.7917  MISS %:    2.20833   MPKI: 0.15562
L2C LOAD TRANSLATION ACCESS:      43420  HIT:      36925  MISS:       6495  HIT %:    85.0415  MISS %:    14.9585   MPKI: 0.1299
L2C PREFETCH  REQUESTED:    1791413  ISSUED:    1791413  USEFUL:    1087146  USELESS:     512722
L2C USEFUL LOAD PREFETCHES:    1087146 PREFETCH ISSUED TO LOWER LEVEL:    1691493  ACCURACY: 64.2714
L2C TIMELY PREFETCHES:    1087146 LATE PREFETCHES: 92052 DROPPED PREFETCHES: 0
L2C PREFETCHES SAME FILL-ORIGIN LEVEL: 1691493 DIFFERENT FILL-ORIGIN LEVEL: 0
L2C AVERAGE MISS LATENCY: 160.193 cycles
L2C RQ	ACCESS:    1559160	FORWARD:          0	MERGED:          0	TO_CACHE:    1559154
L2C WQ	ACCESS:     352348	FORWARD:          9	MERGED:          0	TO_CACHE:     352348
L2C PQ	ACCESS:    1791413	FORWARD:          0	MERGED:          0	TO_CACHE:    1791410

Revised Interactions: positive negative neutral
L2C_interactions 1075967 521947 103201 63.2507 30.6826 6.06667
L2C Instructions Evicting Data 0
L2C Translations Evicting Data 6485
L2C Data Evicting Data 1998681
L2C Instructions Evicting Instructions 0
L2C Translations Evicting Instructions 0
L2C Data Evicting Instructions 0
L2C Instructions Evicting Translations 0
L2C Translations Evicting Translations 10
L2C Data Evicting Translations 6459
L2C Dense regions hint from L2: 0
PSCL5 TOTAL     ACCESS:      43332  HIT:      43332  MISS:          0  HIT %:        100  MISS %:          0   MPKI: 0
PSCL5 LOAD TRANSLATION ACCESS:      43332  HIT:      43332  MISS:          0  HIT %:        100  MISS %:          0   MPKI: 0
PSCL5 PREFETCH  REQUESTED:          0  ISSUED:          0  USEFUL:          0  USELESS:          0
PSCL5 USEFUL LOAD PREFETCHES:          0 PREFETCH ISSUED TO LOWER LEVEL:          0  ACCURACY: -nan
PSCL5 TIMELY PREFETCHES:          0 LATE PREFETCHES: 0 DROPPED PREFETCHES: 0
PSCL5 PREFETCHES SAME FILL-ORIGIN LEVEL: 0 DIFFERENT FILL-ORIGIN LEVEL: 0

Revised Interactions: positive negative neutral
PSCL5_interactions 0 0 0 -nan -nan -nan
PSCL4 TOTAL     ACCESS:      43332  HIT:      43332  MISS:          0  HIT %:        100  MISS %:          0   MPKI: 0
PSCL4 LOAD TRANSLATION ACCESS:      43332  HIT:      43332  MISS:          0  HIT %:        100  MISS %:          0   MPKI: 0
PSCL4 PREFETCH  REQUESTED:          0  ISSUED:          0  USEFUL:          0  USELESS:          0
PSCL4 USEFUL LOAD PREFETCHES:          0 PREFETCH ISSUED TO LOWER LEVEL:          0  ACCURACY: -nan
PSCL4 TIMELY PREFETCHES:          0 LATE PREFETCHES: 0 DROPPED PREFETCHES: 0
PSCL4 PREFETCHES SAME FILL-ORIGIN LEVEL: 0 DIFFERENT FILL-ORIGIN LEVEL: 0

Revised Interactions: positive negative neutral
PSCL4_interactions 0 0 0 -nan -nan -nan
PSCL3 TOTAL     ACCESS:      43332  HIT:      43332  MISS:          0  HIT %:        100  MISS %:          0   MPKI: 0
PSCL3 LOAD TRANSLATION ACCESS:      43332  HIT:      43332  MISS:          0  HIT %:        100  MISS %:          0   MPKI: 0
PSCL3 PREFETCH  REQUESTED:          0  ISSUED:          0  USEFUL:          0  USELESS:          0
PSCL3 USEFUL LOAD PREFETCHES:          0 PREFETCH ISSUED TO LOWER LEVEL:          0  ACCURACY: -nan
PSCL3 TIMELY PREFETCHES:          0 LATE PREFETCHES: 0 DROPPED PREFETCHES: 0
PSCL3 PREFETCHES SAME FILL-ORIGIN LEVEL: 0 DIFFERENT FILL-ORIGIN LEVEL: 0

Revised Interactions: positive negative neutral
PSCL3_interactions 0 0 0 -nan -nan -nan
PSCL2 TOTAL     ACCESS:      43332  HIT:      43209  MISS:        123  HIT %:    99.7161  MISS %:   0.283855   MPKI: 0.00246
PSCL2 LOAD TRANSLATION ACCESS:      43332  HIT:      43209  MISS:        123  HIT %:    99.7161  MISS %:   0.283855   MPKI: 0.00246
PSCL2 PREFETCH  REQUESTED:          0  ISSUED:          0  USEFUL:          0  USELESS:          0
PSCL2 USEFUL LOAD PREFETCHES:          0 PREFETCH ISSUED TO LOWER LEVEL:          0  ACCURACY: -nan
PSCL2 TIMELY PREFETCHES:          0 LATE PREFETCHES: 0 DROPPED PREFETCHES: 0
PSCL2 PREFETCHES SAME FILL-ORIGIN LEVEL: 0 DIFFERENT FILL-ORIGIN LEVEL: 0

Revised Interactions: positive negative neutral
PSCL2_interactions 0 0 0 -nan -nan -nan
LLC TOTAL     ACCESS:    2346855  HIT:     397433  MISS:    1949422  HIT %:    16.9347  MISS %:    83.0653   MPKI: 38.9884
LLC LOAD      ACCESS:     187627  HIT:      55998  MISS:     131629  HIT %:    29.8454  MISS %:    70.1546   MPKI: 2.63258
LLC RFO       ACCESS:     126020  HIT:        127  MISS:     125893  HIT %:   0.100778  MISS %:    99.8992   MPKI: 2.51786
LLC PREFETCH  ACCESS:    1691490  HIT:     327609  MISS:    1363881  HIT %:    19.3681  MISS %:    80.6319   MPKI: 27.2776
LLC WRITEBACK ACCESS:     335223  HIT:      10738  MISS:     324485  HIT %:    3.20324  MISS %:    96.7968   MPKI: 6.4897
LLC LOAD TRANSLATION ACCESS:       6495  HIT:       2961  MISS:       3534  HIT %:    45.5889  MISS %:    54.4111   MPKI: 0.07068
LLC PREFETCH  REQUESTED:          0  ISSUED:          0  USEFUL:        580  USELESS:    1363495
LLC USEFUL LOAD PREFETCHES:        580 PREFETCH ISSUED TO LOWER LEVEL:    1363881  ACCURACY: 0.0425257
LLC TIMELY PREFETCHES:        580 LATE PREFETCHES: 0 DROPPED PREFETCHES: 0
LLC PREFETCHES SAME FILL-ORIGIN LEVEL: 0 DIFFERENT FILL-ORIGIN LEVEL: 0
LLC AVERAGE MISS LATENCY: 137.442 cycles
LLC RQ	ACCESS:     320143	FORWARD:          0	MERGED:          0	TO_CACHE:     320143
LLC WQ	ACCESS:     335223	FORWARD:          3	MERGED:          0	TO_CACHE:     335223
LLC PQ	ACCESS:    1691493	FORWARD:          0	MERGED:          0	TO_CACHE:    1691490

Revised Interactions: positive negative neutral
LLC_interactions 1041 1361350 163600 0.068218 89.2109 10.7209
LLC Dense regions hint to LLC: 0

RAW hits: 375856
Loads Generated: 16215513
Loads sent to L1D: 15839657
Stores Generated: 14166002
Stores sent to L1D: 14166007
Major fault: 0 Minor fault: 31203
Allocated PAGES: 31203
[Bingo] PHT Access: 93995
[Bingo] PHT Hit PC+Addr: 3552
[Bingo] PHT Hit PC+Offs: 90256
[Bingo] PHT Miss: 187
[Bingo] Prefetch PC+Addr: 0
[Bingo] Prefetch PC+Offs: 0
[Bingo] Useful PC+Addr: 0
[Bingo] Useful PC+Offs: 0
[Bingo] Useless PC+Addr: 0
[Bingo] Useless PC+Offs: 0
[Bingo] L1 Prefetch per Region: 0
[Bingo] L2 Prefetch per Region: 20.2533
[Bingo] L3 Prefetch per Region: 0
[Bingo] No Prefetch per Region: 11.7467
[Bingo] Number of Voters Mean: 15.8523
[Bingo] Number of Voters SD: 14.0194
PHT read accesses: 1466492
PHT write accesses: 91442
AT read accesses: 1364882
AT write accesses: 1375426
FT read accesses: 277703
FT write accesses: 93995
PS read accesses: 309601
PS write accesses: 93808
PHT tag read accesses: 4344089
PHT tag write accesses: 94994
AT tag read accesses: 58046831
AT tag write accesses: 1456325
FT tag read accesses: 38404891
FT tag write accesses: 279845
PS tag read accesses: 25732375
PS tag write accesses: 402973

DRAM Statistics
 CHANNEL 0
 RQ ROW_BUFFER_HIT:    1066743  ROW_BUFFER_MISS:     558187
 DBUS_CONGESTED:        808
 WQ ROW_BUFFER_HIT:      81605  ROW_BUFFER_MISS:     251060  FULL:          0

 AVG_CONGESTED_CYCLE: 3
 All warmup complete: 2
Channel 0 Bank busy for read cycles: 0
Channel 0 Bank busy for write cycles: 0
Channel 0
Rank 0
0banks busy for read cycles: 47385310
0banks busy for write cycles: 50138
1banks busy for read cycles: 17885146
1banks busy for write cycles: 6136756
2banks busy for read cycles: 3192322
2banks busy for write cycles: 2561368
3banks busy for read cycles: 2381121
3banks busy for write cycles: 1637881
4banks busy for read cycles: 1956824
4banks busy for write cycles: 1314680
5banks busy for read cycles: 1904489
5banks busy for write cycles: 1156717
6banks busy for read cycles: 2023090
6banks busy for write cycles: 1054533
7banks busy for read cycles: 2882763
7banks busy for write cycles: 1097345
8banks busy for read cycles: 7060224
8banks busy for write cycles: 1969414

CPU 0 Branch Prediction Accuracy: 98.167% MPKI: 1.85038 Average ROB Occupancy at Mispredict: 182.443
Branch types
NOT_BRANCH: 44952417 89.9048%
BRANCH_DIRECT_JUMP: 263981 0.527962%
BRANCH_INDIRECT: 0 0%
BRANCH_CONDITIONAL: 4783414 9.56683%
BRANCH_DIRECT_CALL: 26 5.2e-05%
BRANCH_INDIRECT_CALL: 0 0%
BRANCH_RETURN: 26 5.2e-05%
BRANCH_OTHER: 0 0%

@sumon_overall_L1D         0         0         0         0         0         0         0
@Sumon_Early_by_class_L1D         0         0         0         0
@Sumon_Late_by_class_L1D         0         0         0         0

@Sumon_Early_by_cycle_L1D         0         0         0         0         0         0         0         0         0         0         0         0
@Sumon_Late_by_cycle_L1D         0         0         0         0         0         0
@Sumon_Early_stream_L1D         0         0         0         0         0         0         0         0         0         0         0         0
@Sumon_Early_CS_L1D         0         0         0         0         0         0         0         0         0         0         0         0
@Sumon_Early_CPLX_L1D         0         0         0         0         0         0         0         0         0         0         0         0
@Sumon_Late_stream_L1D         0         0         0         0         0         0
@Sumon_Late_CS_L1D         0         0         0         0         0         0
@Sumon_Late_CPLX_L1D         0         0         0         0         0         0
@sumon_overall_L2C   1087146     92052         0    512722   1599441   1791413   1791413
@Sumon_Early_by_class_L2C         0         0         0         0
@Sumon_Late_by_class_L2C         0         0         0         0

@Sumon_Early_by_cycle_L2C    146217    171483    191273     78487     34030    118729     73044     82851     78461     66678     28110     17783
@Sumon_Late_by_cycle_L2C      9034     17150     13072     21976     30309       511
@Sumon_Early_stream_L2C         0         0         0         0         0         0         0         0         0         0         0         0
@Sumon_Early_CS_L2C         0         0         0         0         0         0         0         0         0         0         0         0
@Sumon_Early_CPLX_L2C         0         0         0         0         0         0         0         0         0         0         0         0
@Sumon_Late_stream_L2C         0         0         0         0         0         0
@Sumon_Late_CS_L2C         0         0         0         0         0         0
@Sumon_Late_CPLX_L2C         0         0         0         0         0         0
DRAM PAGES: 1048576
Allocated PAGES: 31203
