
*** ChampSim Multicore Out-of-Order Simulator ***

Warmup Instructions: 50000000
Simulation Instructions: 50000000
Number of CPUs: 1
LLC sets: 2048
LLC ways: 16
Off-chip DRAM Size: 4096 MB Channels: 1 Width: 64-bit Data Rate: 6400 MT/s
CPU 0 runs ../../biswa/SPEC2017Traces/605.mcf_s-1152B.champsimtrace.xz
.xz
CPU 0 Bimodal branch predictor
BTB has LRU replacement policy
ITLB has LRU replacement policy
DTLB has LRU replacement policy
STLB has LRU replacement policy
L1I has LRU replacement policy
L1D has LRU replacement policy
Bingo PHT WAYS: 16 and PHT_SIZE: 16384
Initialize DRRIP state for L2C
Initialize SRRIP state
epoch: 1000
next table: 2418
cur table: 9955
epoch: 1000
next table: 2226
cur table: 2418
epoch: 1000
next table: 2074
cur table: 2226
epoch: 1000
next table: 1859
cur table: 2074
epoch: 1000
next table: 1881
cur table: 1859
epoch: 1000
next table: 1737
cur table: 1881
epoch: 1000
next table: 1822
cur table: 1737
epoch: 1000
next table: 1794
cur table: 1822
epoch: 1000
next table: 1705
cur table: 1794
epoch: 1000
next table: 1428
cur table: 1705
epoch: 1000
next table: 2286
cur table: 1428
epoch: 1000
next table: 2821
cur table: 2286
epoch: 1000
next table: 1781
cur table: 2821
epoch: 1000
next table: 1840
cur table: 1781
epoch: 1000
next table: 1859
cur table: 1840
epoch: 1000
next table: 1871
cur table: 1859
epoch: 1000
next table: 1897
cur table: 1871
epoch: 1000
next table: 1878
cur table: 1897
epoch: 1000
next table: 1872
cur table: 1878
epoch: 1000
next table: 1860
cur table: 1872
epoch: 1000
next table: 1849
cur table: 1860
epoch: 1000
next table: 1856
cur table: 1849
epoch: 1000
next table: 1865
cur table: 1856
epoch: 1000
next table: 1912
cur table: 1865
epoch: 1000
next table: 1785
cur table: 1912
epoch: 1000
next table: 1919
cur table: 1785
epoch: 1000
next table: 1847
cur table: 1919
epoch: 1000
next table: 1673
cur table: 1847
epoch: 1000
next table: 2219
cur table: 1673
epoch: 1000
next table: 2980
cur table: 2219
epoch: 1000
next table: 1895
cur table: 2980
epoch: 1000
next table: 1976
cur table: 1895
epoch: 1000
next table: 1934
cur table: 1976
epoch: 1000
next table: 1952
cur table: 1934
epoch: 1000
next table: 4777
cur table: 20586
epoch: 1000
next table: 1908
cur table: 1952
epoch: 1000
next table: 1982
cur table: 1908
epoch: 1000
next table: 1898
cur table: 1982
epoch: 1000
next table: 1892
cur table: 1898
epoch: 1000
next table: 3316
cur table: 4777
epoch: 1000
next table: 1883
cur table: 1892
epoch: 1000
next table: 1889
cur table: 1883
epoch: 1000
next table: 1929
cur table: 1889
epoch: 1000
next table: 1860
cur table: 1929
epoch: 1000
next table: 3066
cur table: 3316
epoch: 1000
next table: 1938
cur table: 1860
epoch: 1000
next table: 1903
cur table: 1938
epoch: 1000
next table: 1706
cur table: 1903
epoch: 1000
next table: 2865
cur table: 3066
epoch: 1000
next table: 2542
cur table: 1706
epoch: 1000
next table: 2769
cur table: 2542
epoch: 1000
next table: 1919
cur table: 2769
epoch: 1000
next table: 2013
cur table: 1919
epoch: 1000
next table: 2761
cur table: 2865
epoch: 1000
next table: 1972
cur table: 2013
epoch: 1000
next table: 2051
cur table: 1972
epoch: 1000
next table: 2214
cur table: 2761
epoch: 1000
next table: 1998
cur table: 2051
epoch: 1000
next table: 1993
cur table: 1998
epoch: 1000
next table: 1949
cur table: 1993
epoch: 1000
next table: 2322
cur table: 2214
epoch: 1000
next table: 1922
cur table: 1949
epoch: 1000
next table: 1928
cur table: 1922
epoch: 1000
next table: 2271
cur table: 2322
epoch: 1000
next table: 1949
cur table: 1928
epoch: 1000
next table: 1940
cur table: 1949
epoch: 1000
next table: 2452
cur table: 2271
epoch: 1000
next table: 1945
cur table: 1940
epoch: 1000
next table: 1926
cur table: 1945
epoch: 1000
next table: 1749
cur table: 1926
epoch: 1000
next table: 2496
cur table: 2452
epoch: 1000
next table: 2774
cur table: 1749
epoch: 1000
next table: 2699
cur table: 2774
epoch: 1000
next table: 1974
cur table: 2699
epoch: 1000
next table: 2349
cur table: 2496
epoch: 1000
next table: 2020
cur table: 1974
epoch: 1000
next table: 2024
cur table: 2020
epoch: 1000
next table: 2150
cur table: 2349
epoch: 1000
next table: 2045
cur table: 2024
epoch: 1000
next table: 1999
cur table: 2045
epoch: 1000
next table: 2071
cur table: 2150
epoch: 1000
next table: 1966
cur table: 1999
epoch: 1000
next table: 1965
cur table: 1966
epoch: 1000
next table: 1890
cur table: 1965
epoch: 1000
next table: 2331
cur table: 2071
epoch: 1000
next table: 1961
cur table: 1890
epoch: 1000
next table: 1954
cur table: 1961
epoch: 1000
next table: 2337
cur table: 2331
epoch: 1000
next table: 1929
cur table: 1954
epoch: 1000
next table: 1970
cur table: 1929
epoch: 1000
next table: 2222
cur table: 2337
epoch: 1000
next table: 1905
cur table: 1970
epoch: 1000
next table: 1725
cur table: 1905
epoch: 1000
next table: 3119
cur table: 1725
epoch: 1000
next table: 2217
cur table: 2222
epoch: 1000
next table: 2225
cur table: 3119
epoch: 1000
next table: 1995
cur table: 2225
epoch: 1000
next table: 2428
cur table: 2217
epoch: 1000
next table: 2030
cur table: 1995
epoch: 1000
next table: 2014
cur table: 2030
epoch: 1000
next table: 2038
cur table: 2014
epoch: 1000
next table: 2140
cur table: 2428
epoch: 1000
next table: 1980
cur table: 2038
epoch: 1000
next table: 1957
cur table: 1980
epoch: 1000
next table: 2086
cur table: 2140
epoch: 1000
next table: 1906
cur table: 1957
epoch: 1000
next table: 1896
cur table: 1906
epoch: 1000
next table: 2261
cur table: 2086
epoch: 1000
next table: 1897
cur table: 1896
epoch: 1000
next table: 1933
cur table: 1897
epoch: 1000
next table: 2341
cur table: 2261
epoch: 1000
next table: 1905
cur table: 1933
epoch: 1000
next table: 1900
cur table: 1905
epoch: 1000
next table: 2352
cur table: 2341
epoch: 1000
next table: 1898
cur table: 1900
epoch: 1000
next table: 1774
cur table: 1898
epoch: 1000
next table: 2223
cur table: 1774
epoch: 1000
next table: 2403
cur table: 2352
epoch: 1000
next table: 3002
cur table: 2223
epoch: 1000
next table: 1881
cur table: 3002
epoch: 1000
next table: 1961
cur table: 1881
epoch: 1000
next table: 2031
cur table: 2403
epoch: 1000
next table: 1952
cur table: 1961
epoch: 1000
next table: 1972
cur table: 1952
epoch: 1000
next table: 2028
cur table: 2031
epoch: 1000
next table: 1965
cur table: 1972
epoch: 1000
next table: 1902
cur table: 1965
epoch: 1000
next table: 2020
cur table: 2028
epoch: 1000
next table: 1942
cur table: 1902
epoch: 1000
next table: 1879
cur table: 1942
epoch: 1000
next table: 2264
cur table: 2020
epoch: 1000
next table: 1927
cur table: 1879
epoch: 1000
next table: 1912
cur table: 1927
epoch: 1000
next table: 2380
cur table: 2264
epoch: 1000
next table: 1960
cur table: 1912
epoch: 1000
next table: 1852
cur table: 1960
epoch: 1000
next table: 2332
cur table: 2380
epoch: 1000
next table: 1965
cur table: 1852
epoch: 1000
next table: 1841
cur table: 1965
epoch: 1000
next table: 1577
cur table: 1841
epoch: 1000
next table: 2139
cur table: 2332
epoch: 1000
next table: 3612
cur table: 1577
epoch: 1000
next table: 1994
cur table: 3612
epoch: 1000
next table: 1958
cur table: 1994
epoch: 1000
next table: 2327
cur table: 2139
epoch: 1000
next table: 2006
cur table: 1958
epoch: 1000
next table: 1975
cur table: 2006
epoch: 1000
next table: 2047
cur table: 2327
epoch: 1000
next table: 2031
cur table: 1975
epoch: 1000
next table: 1998
cur table: 2031
epoch: 1000
next table: 2110
cur table: 2047
epoch: 1000
next table: 1988
cur table: 1998
epoch: 1000
next table: 1916
cur table: 1988
epoch: 1000
next table: 2337
cur table: 2110
epoch: 1000
next table: 1941
cur table: 1916
epoch: 1000
next table: 1951
cur table: 1941
epoch: 1000
next table: 2446
cur table: 2337
epoch: 1000
next table: 1958
cur table: 1951
epoch: 1000
next table: 1915
cur table: 1958
epoch: 1000
next table: 1977
cur table: 1915
epoch: 1000
next table: 2264
cur table: 2446
epoch: 1000
next table: 1924
cur table: 1977
epoch: 1000
next table: 1627
cur table: 1924
epoch: 1000
next table: 3566
cur table: 1627
epoch: 1000
next table: 2459
cur table: 2264
epoch: 1000
next table: 2008
cur table: 3566
epoch: 1000
next table: 2009
cur table: 2008
epoch: 1000
next table: 2038
cur table: 2459
epoch: 1000
next table: 2015
cur table: 2009
epoch: 1000
next table: 2009
cur table: 2015
epoch: 1000
next table: 2114
cur table: 2038
epoch: 1000
next table: 2080
cur table: 2009
epoch: 1000
next table: 2001
cur table: 2080
epoch: 1000
next table: 2171
cur table: 2114
epoch: 1000
next table: 2029
cur table: 2001
epoch: 1000
next table: 1942
cur table: 2029
epoch: 1000
next table: 1952
cur table: 1942
epoch: 1000
next table: 2383
cur table: 2171
epoch: 1000
next table: 1961
cur table: 1952
epoch: 1000
next table: 1937
cur table: 1961
epoch: 1000
next table: 2371
cur table: 2383
epoch: 1000
next table: 1953
cur table: 1937
epoch: 1000
next table: 1957
cur table: 1953
epoch: 1000
next table: 2412
cur table: 2371
epoch: 1000
next table: 1874
cur table: 1957
epoch: 1000
next table: 2345
cur table: 1874
epoch: 1000
next table: 2965
cur table: 2345
epoch: 1000
next table: 2330
cur table: 2412
epoch: 1000
next table: 2002
cur table: 2965
epoch: 1000
next table: 2065
cur table: 2002
epoch: 1000
next table: 2127
cur table: 2330
epoch: 1000
next table: 2012
cur table: 2065
epoch: 1000
next table: 2032
cur table: 2012
epoch: 1000
next table: 2110
cur table: 2127
epoch: 1000
next table: 2044
cur table: 2032
epoch: 1000
next table: 2009
cur table: 2044
epoch: 1000
next table: 1965
cur table: 2009
epoch: 1000
next table: 2280
cur table: 2110
epoch: 1000
next table: 1935
cur table: 1965
epoch: 1000
next table: 1987
cur table: 1935
epoch: 1000
next table: 2406
cur table: 2280
epoch: 1000
next table: 1965
cur table: 1987
epoch: 1000
next table: 1936
cur table: 1965
epoch: 1000
next table: 2524
cur table: 2406
epoch: 1000
next table: 1965
cur table: 1936
epoch: 1000
next table: 1925
cur table: 1965
epoch: 1000
next table: 1619
cur table: 1925
epoch: 1000
next table: 2300
cur table: 2524
epoch: 1000
next table: 3611
cur table: 1619
epoch: 1000
next table: 2104
cur table: 3611
epoch: 1000
next table: 2013
cur table: 2104
epoch: 1000
next table: 2274
cur table: 2300
epoch: 1000
next table: 2054
cur table: 2013
epoch: 1000
next table: 2010
cur table: 2054
epoch: 1000
next table: 2169
cur table: 2274
epoch: 1000
next table: 2070
cur table: 2010
epoch: 1000
next table: 2018
cur table: 2070
epoch: 1000
next table: 2115
cur table: 2169
epoch: 1000
next table: 2004
cur table: 2018
epoch: 1000
next table: 1947
cur table: 2004
epoch: 1000
next table: 1981
cur table: 1947
epoch: 1000
next table: 2471
cur table: 2115
epoch: 1000
next table: 1982
cur table: 1981
epoch: 1000
next table: 1961
cur table: 1982
epoch: 1000
next table: 2443
cur table: 2471
epoch: 1000
next table: 1926
cur table: 1961
epoch: 1000
next table: 1987
cur table: 1926
epoch: 1000
next table: 2386
cur table: 2443
epoch: 1000
next table: 1930
cur table: 1987
epoch: 1000
next table: 2054
cur table: 1930
epoch: 1000
next table: 3407
cur table: 2054
epoch: 1000
next table: 2377
cur table: 2386
epoch: 1000
next table: 1999
cur table: 3407
epoch: 1000
next table: 2074
cur table: 1999
epoch: 1000
next table: 2092
cur table: 2377
epoch: 1000
next table: 2024
cur table: 2074
epoch: 1000
next table: 2060
cur table: 2024
epoch: 1000
next table: 2176
cur table: 2092
epoch: 1000
next table: 2070
cur table: 2060
epoch: 1000
next table: 1995
cur table: 2070
epoch: 1000
next table: 1975
cur table: 1995
epoch: 1000
next table: 2279
cur table: 2176
epoch: 1000
next table: 1953
cur table: 1975
epoch: 1000
next table: 1974
cur table: 1953
epoch: 1000
next table: 2388
cur table: 2279
epoch: 1000
next table: 1984
cur table: 1974
epoch: 1000
next table: 1946
cur table: 1984
epoch: 1000
next table: 2521
cur table: 2388
epoch: 1000
next table: 1957
cur table: 1946
epoch: 1000
next table: 1986
cur table: 1957
epoch: 1000
next table: 1732
cur table: 1986
epoch: 1000
next table: 2324
cur table: 2521
epoch: 1000
next table: 3658
cur table: 1732
epoch: 1000
next table: 2109
cur table: 3658
epoch: 1000
next table: 2090
cur table: 2109
epoch: 1000
next table: 2409
cur table: 2324
epoch: 1000
next table: 2046
cur table: 2090
epoch: 1000
next table: 2134
cur table: 2046
epoch: 1000
next table: 2238
cur table: 2409
epoch: 1000
next table: 2050
cur table: 2134
epoch: 1000
next table: 2011
cur table: 2050
epoch: 1000
next table: 2197
cur table: 2238
epoch: 1000
next table: 1957
cur table: 2011
epoch: 1000
next table: 1962
cur table: 1957
epoch: 1000
next table: 1962
cur table: 1962
epoch: 1000
next table: 2475
cur table: 2197
epoch: 1000
next table: 1969
cur table: 1962
epoch: 1000
next table: 1929
cur table: 1969
epoch: 1000
next table: 2521
cur table: 2475
epoch: 1000
next table: 1928
cur table: 1929
epoch: 1000
next table: 1912
cur table: 1928
epoch: 1000
next table: 1726
cur table: 1912
epoch: 1000
next table: 2361
cur table: 2521
epoch: 1000
next table: 3349
cur table: 1726
epoch: 1000
next table: 2215
cur table: 3349
epoch: 1000
next table: 2234
cur table: 2361
epoch: 1000
next table: 1989
cur table: 2215
epoch: 1000
next table: 2037
cur table: 1989
epoch: 1000
next table: 2011
cur table: 2037
epoch: 1000
next table: 2052
cur table: 2234
epoch: 1000
next table: 2065
cur table: 2011
epoch: 1000
next table: 2013
cur table: 2065
epoch: 1000
next table: 2143
cur table: 2052
epoch: 1000
next table: 1969
cur table: 2013
epoch: 1000
next table: 1964
cur table: 1969
epoch: 1000
next table: 2370
cur table: 2143
epoch: 1000
next table: 1976
cur table: 1964
epoch: 1000
next table: 1976
cur table: 1976
epoch: 1000
next table: 2587
cur table: 2370
epoch: 1000
next table: 1931
cur table: 1976
epoch: 1000
next table: 1930
cur table: 1931
epoch: 1000
next table: 1976
cur table: 1930
epoch: 1000
next table: 2494
cur table: 2587
epoch: 1000
next table: 1919
cur table: 1976
epoch: 1000
next table: 1890
cur table: 1919
epoch: 1000
next table: 3549
cur table: 1890
epoch: 1000
next table: 2511
cur table: 2494
epoch: 1000
next table: 2071
cur table: 3549
epoch: 1000
next table: 2051
cur table: 2071
epoch: 1000
next table: 2137
cur table: 2511
epoch: 1000
next table: 2036
cur table: 2051
epoch: 1000
next table: 2043
cur table: 2036
epoch: 1000
next table: 2237
cur table: 2137
epoch: 1000
next table: 2043
cur table: 2043
epoch: 1000
next table: 2066
cur table: 2043
epoch: 1000
next table: 1977
cur table: 2066
epoch: 1000
next table: 2346
cur table: 2237
epoch: 1000
next table: 2023
cur table: 1977
epoch: 1000
next table: 2023
cur table: 2023
epoch: 1000
next table: 2584
cur table: 2346
epoch: 1000
next table: 2008
cur table: 2023
epoch: 1000
next table: 2023
cur table: 2008
epoch: 1000
next table: 2034
cur table: 2023
epoch: 1000
next table: 2527
cur table: 2584
epoch: 1000
next table: 2068
cur table: 2034
epoch: 1000
next table: 1717
cur table: 2068
epoch: 1000
next table: 3854
cur table: 1717
epoch: 1000
next table: 2289
cur table: 2527
epoch: 1000
next table: 2058
cur table: 3854
epoch: 1000
next table: 2128
cur table: 2058
epoch: 1000
next table: 2225
cur table: 2289
epoch: 1000
next table: 2072
cur table: 2128
epoch: 1000
next table: 2070
cur table: 2072
epoch: 1000
next table: 2330
cur table: 2225
epoch: 1000
next table: 2081
cur table: 2070
epoch: 1000
next table: 2053
cur table: 2081
epoch: 1000
next table: 2013
cur table: 2053
epoch: 1000
next table: 2398
cur table: 2330
epoch: 1000
next table: 2038
cur table: 2013
epoch: 1000
next table: 2026
cur table: 2038
epoch: 1000
next table: 2622
cur table: 2398
epoch: 1000
next table: 2050
cur table: 2026
epoch: 1000
next table: 2017
cur table: 2050
epoch: 1000
next table: 2507
cur table: 2622
epoch: 1000
next table: 2054
cur table: 2017
epoch: 1000
next table: 1906
cur table: 2054
epoch: 1000
next table: 3592
cur table: 1906
epoch: 1000
next table: 2337
cur table: 2507
epoch: 1000
next table: 2219
cur table: 3592
epoch: 1000
next table: 2082
cur table: 2219
epoch: 1000
next table: 2184
cur table: 2337
epoch: 1000
next table: 2057
cur table: 2082
epoch: 1000
next table: 2055
cur table: 2057
epoch: 1000
next table: 2049
cur table: 2055
epoch: 1000
next table: 2311
cur table: 2184
epoch: 1000
next table: 2061
cur table: 2049
epoch: 1000
next table: 1994
cur table: 2061
epoch: 1000
next table: 2388
cur table: 2311
epoch: 1000
next table: 1974
cur table: 1994
epoch: 1000
next table: 2004
cur table: 1974
epoch: 1000
next table: 2000
cur table: 2004
epoch: 1000
next table: 2591
cur table: 2388
epoch: 1000
next table: 1996
cur table: 2000
epoch: 1000
next table: 1988
cur table: 1996
epoch: 1000
next table: 2552
cur table: 2591
epoch: 1000
next table: 2051
cur table: 1988
epoch: 1000
next table: 2138
cur table: 2051
epoch: 1000
next table: 3751
cur table: 2138
epoch: 1000
next table: 2444
cur table: 2552
epoch: 1000
next table: 2090
cur table: 3751
epoch: 1000
next table: 2129
cur table: 2090
epoch: 1000
next table: 2209
cur table: 2444
epoch: 1000
next table: 2055
cur table: 2129
epoch: 1000
next table: 2081
cur table: 2055
epoch: 1000
next table: 2046
cur table: 2081
epoch: 1000
next table: 2351
cur table: 2209
epoch: 1000
next table: 2061
cur table: 2046
epoch: 1000
next table: 2007
cur table: 2061
epoch: 1000
next table: 2416
cur table: 2351
epoch: 1000
next table: 1988
cur table: 2007
epoch: 1000
next table: 2011
cur table: 1988
epoch: 1000
next table: 2041
cur table: 2011
epoch: 1000
next table: 2681
cur table: 2416
epoch: 1000
next table: 1994
cur table: 2041
epoch: 1000
next table: 2059
cur table: 1994
epoch: 1000
next table: 2539
cur table: 2681
epoch: 1000
next table: 1886
cur table: 2059
epoch: 1000
next table: 3639
cur table: 1886
epoch: 1000
next table: 2237
cur table: 3639
epoch: 1000
next table: 2249
cur table: 2539
epoch: 1000
next table: 2130
cur table: 2237
epoch: 1000
next table: 2122
cur table: 2130
epoch: 1000
next table: 2368
cur table: 2249
epoch: 1000
next table: 2070
cur table: 2122
epoch: 1000
next table: 2109
cur table: 2070
epoch: 1000
next table: 2045
cur table: 2109
epoch: 1000
next table: 2346
cur table: 2368
epoch: 1000
next table: 2025
cur table: 2045
epoch: 1000
next table: 2022
cur table: 2025
epoch: 1000
next table: 2584
cur table: 2346
epoch: 1000
next table: 1998
cur table: 2022
epoch: 1000
next table: 2005
cur table: 1998
epoch: 1000
next table: 2568
cur table: 2584
epoch: 1000
next table: 2022
cur table: 2005
epoch: 1000
next table: 2056
cur table: 2022
epoch: 1000
next table: 2046
cur table: 2056
epoch: 1000
next table: 2574
cur table: 2568
epoch: 1000
next table: 2615
cur table: 2046
epoch: 1000
next table: 2949
cur table: 2615
epoch: 1000
next table: 2147
cur table: 2574
epoch: 1000
next table: 1549
cur table: 2949
epoch: 1000
next table: 1921
cur table: 1549
epoch: 1000
next table: 2109
cur table: 2147
epoch: 1000
next table: 2143
cur table: 1921
epoch: 1000
next table: 2103
cur table: 2143
epoch: 1000
next table: 2081
cur table: 2103
epoch: 1000
next table: 2336
cur table: 2109
epoch: 1000
next table: 2107
cur table: 2081
epoch: 1000
next table: 2092
cur table: 2107
epoch: 1000
next table: 2401
cur table: 2336
epoch: 1000
next table: 2054
cur table: 2092
epoch: 1000
next table: 2020
cur table: 2054
epoch: 1000
next table: 2050
cur table: 2020
epoch: 1000
next table: 2602
cur table: 2401
epoch: 1000
next table: 2021
cur table: 2050
epoch: 1000
next table: 1996
cur table: 2021
epoch: 1000
next table: 2545
cur table: 2602
epoch: 1000
next table: 1992
cur table: 1996
epoch: 1000
next table: 2033
cur table: 1992
epoch: 1000
next table: 1958
cur table: 2033
epoch: 1000
next table: 2597
cur table: 2545
epoch: 1000
next table: 3568
cur table: 1958
epoch: 1000
next table: 2032
cur table: 3568
epoch: 1000
next table: 2411
cur table: 2597
epoch: 1000
next table: 2103
cur table: 2032
epoch: 1000
next table: 2074
cur table: 2103
epoch: 1000
next table: 2013
cur table: 2074
epoch: 1000
next table: 2327
cur table: 2411
epoch: 1000
next table: 2079
cur table: 2013
epoch: 1000
next table: 2039
cur table: 2079
epoch: 1000
next table: 2354
cur table: 2327
epoch: 1000
next table: 2026
cur table: 2039
epoch: 1000
next table: 2024
cur table: 2026
epoch: 1000
next table: 2021
cur table: 2024
epoch: 1000
next table: 2598
cur table: 2354
epoch: 1000
next table: 2003
cur table: 2021
epoch: 1000
next table: 2021
cur table: 2003
epoch: 1000
next table: 2626
cur table: 2598
epoch: 1000
next table: 1985
cur table: 2021
epoch: 1000
next table: 1979
cur table: 1985
epoch: 1000
next table: 2118
cur table: 1979
epoch: 1000
next table: 2344
cur table: 2626
epoch: 1000
next table: 3372
cur table: 2118
epoch: 1000
next table: 2006
cur table: 3372
epoch: 1000
next table: 2332
cur table: 2344
epoch: 1000
next table: 2098
cur table: 2006
epoch: 1000
next table: 2089
cur table: 2098
epoch: 1000
next table: 2084
cur table: 2089
epoch: 1000
next table: 2407
cur table: 2332
epoch: 1000
next table: 2061
cur table: 2084
epoch: 1000
next table: 2029
cur table: 2061
epoch: 1000
next table: 2422
cur table: 2407
epoch: 1000
next table: 2022
cur table: 2029
epoch: 1000
next table: 2013
cur table: 2022
epoch: 1000
next table: 2014
cur table: 2013
epoch: 1000
next table: 2540
cur table: 2422
epoch: 1000
next table: 2016
cur table: 2014
epoch: 1000
next table: 2007
cur table: 2016
epoch: 1000
next table: 2687
cur table: 2540
epoch: 1000
next table: 2037
cur table: 2007
epoch: 1000
next table: 2022
cur table: 2037
epoch: 1000
next table: 2708
cur table: 2022
epoch: 1000
next table: 2471
cur table: 2687
epoch: 1000
next table: 2958
cur table: 2708
epoch: 1000
next table: 2050
cur table: 2958
epoch: 1000
next table: 2115
cur table: 2471
epoch: 1000
next table: 2077
cur table: 2050
epoch: 1000
next table: 2055
cur table: 2077
epoch: 1000
next table: 2049
cur table: 2055
epoch: 1000
next table: 2350
cur table: 2115
epoch: 1000
next table: 2004
cur table: 2049
epoch: 1000
next table: 1993
cur table: 2004
epoch: 1000
next table: 2438
cur table: 2350
epoch: 1000
next table: 1959
cur table: 1993
epoch: 1000
next table: 1979
cur table: 1959
epoch: 1000
next table: 1983
cur table: 1979
epoch: 1000
next table: 2536
cur table: 2438
epoch: 1000
next table: 1996
cur table: 1983
epoch: 1000
next table: 1970
cur table: 1996
epoch: 1000
next table: 2565
cur table: 2536
epoch: 1000
next table: 2001
cur table: 1970
epoch: 1000
next table: 1987
cur table: 2001
epoch: 1000
next table: 2827
cur table: 1987
epoch: 1000
next table: 2478
cur table: 2565
epoch: 1000
next table: 2777
cur table: 2827
epoch: 1000
next table: 2033
cur table: 2777
epoch: 1000
next table: 2165
cur table: 2478
epoch: 1000
next table: 2080
cur table: 2033
epoch: 1000
next table: 2025
cur table: 2080
epoch: 1000
next table: 2078
cur table: 2025
epoch: 1000
next table: 2301
cur table: 2165
epoch: 1000
next table: 2041
cur table: 2078
epoch: 1000
next table: 2017
cur table: 2041
epoch: 1000
next table: 2406
cur table: 2301
epoch: 1000
next table: 2022
cur table: 2017
epoch: 1000
next table: 1966
cur table: 2022
epoch: 1000
next table: 2003
cur table: 1966
epoch: 1000
next table: 2564
cur table: 2406
epoch: 1000
next table: 2005
cur table: 2003
epoch: 1000
next table: 1995
cur table: 2005
epoch: 1000
next table: 2610
cur table: 2564
epoch: 1000
next table: 2018
cur table: 1995
epoch: 1000
next table: 1876
cur table: 2018
epoch: 1000
next table: 3534
cur table: 1876
epoch: 1000
next table: 2413
cur table: 2610
epoch: 1000
next table: 2108
cur table: 3534
epoch: 1000
next table: 2050
cur table: 2108
epoch: 1000
next table: 2129
cur table: 2413
epoch: 1000
next table: 2059
cur table: 2050
epoch: 1000
next table: 2002
cur table: 2059
epoch: 1000
next table: 2042
cur table: 2002
epoch: 1000
next table: 2297
cur table: 2129
epoch: 1000
next table: 2015
cur table: 2042
epoch: 1000
next table: 2028
cur table: 2015
epoch: 1000
next table: 2434
cur table: 2297
epoch: 1000
next table: 2008
cur table: 2028
epoch: 1000
next table: 2000
cur table: 2008
epoch: 1000
next table: 2561
cur table: 2434
epoch: 1000
next table: 2001
cur table: 2000
epoch: 1000
next table: 1988
cur table: 2001
epoch: 1000
next table: 1968
cur table: 1988
epoch: 1000
next table: 2568
cur table: 2561
epoch: 1000
next table: 2018
cur table: 1968
epoch: 1000
next table: 1853
cur table: 2018
epoch: 1000
next table: 3524
cur table: 1853
epoch: 1000
next table: 2453
cur table: 2568
epoch: 1000
next table: 2065
cur table: 3524
epoch: 1000
next table: 2068
cur table: 2065
epoch: 1000
next table: 2173
cur table: 2453
epoch: 1000
next table: 2054
cur table: 2068
epoch: 1000
next table: 1980
cur table: 2054
epoch: 1000
next table: 2285
cur table: 2173
epoch: 1000
next table: 2022
cur table: 1980
epoch: 1000
next table: 2001
cur table: 2022
epoch: 1000
next table: 2007
cur table: 2001
epoch: 1000
next table: 2328
cur table: 2285
epoch: 1000
next table: 1939
cur table: 2007
epoch: 1000
next table: 1967
cur table: 1939
epoch: 1000
next table: 2529
cur table: 2328
epoch: 1000
next table: 1973
cur table: 1967
epoch: 1000
next table: 1977
cur table: 1973
epoch: 1000
next table: 1966
cur table: 1977
epoch: 1000
next table: 2651
cur table: 2529
epoch: 1000
next table: 2022
cur table: 1966
epoch: 1000
next table: 1939
cur table: 2022
epoch: 1000
next table: 2335
cur table: 2651
epoch: 1000
next table: 3505
cur table: 1939
epoch: 1000
next table: 2142
cur table: 3505
epoch: 1000
next table: 2018
cur table: 2142
epoch: 1000
next table: 2343
cur table: 2335
epoch: 1000
next table: 2086
cur table: 2018
epoch: 1000
next table: 2005
cur table: 2086
epoch: 1000
next table: 2234
cur table: 2343
epoch: 1000
next table: 2005
cur table: 2005
epoch: 1000
next table: 2006
cur table: 2005
epoch: 1000
next table: 1968
cur table: 2006
epoch: 1000
next table: 2306
cur table: 2234
epoch: 1000
next table: 1997
cur table: 1968
epoch: 1000
next table: 1973
cur table: 1997
epoch: 1000
next table: 2592
cur table: 2306
epoch: 1000
next table: 1958
cur table: 1973
epoch: 1000
next table: 2001
cur table: 1958
epoch: 1000
next table: 1983
cur table: 2001
epoch: 1000
next table: 2636
cur table: 2592
epoch: 1000
next table: 2047
cur table: 1983
epoch: 1000
next table: 1944
cur table: 2047
epoch: 1000
next table: 2355
cur table: 2636
epoch: 1000
next table: 3413
cur table: 1944
epoch: 1000
next table: 2198
cur table: 3413
epoch: 1000
next table: 2058
cur table: 2198
epoch: 1000
next table: 2336
cur table: 2355
epoch: 1000
next table: 2099
cur table: 2058
epoch: 1000
next table: 2106
cur table: 2099
epoch: 1000
next table: 2355
cur table: 2336
epoch: 1000
next table: 2022
cur table: 2106
epoch: 1000
next table: 2023
cur table: 2022
epoch: 1000
next table: 2011
cur table: 2023
epoch: 1000
next table: 2385
cur table: 2355
epoch: 1000
next table: 2021
cur table: 2011
epoch: 1000
next table: 1959
cur table: 2021
epoch: 1000
next table: 2485
cur table: 2385
epoch: 1000
next table: 1988
cur table: 1959
epoch: 1000
next table: 1970
cur table: 1988
epoch: 1000
next table: 1961
cur table: 1970
epoch: 1000
next table: 2656
cur table: 2485
epoch: 1000
next table: 2004
cur table: 1961
epoch: 1000
next table: 1861
cur table: 2004
epoch: 1000
next table: 2183
cur table: 2656
epoch: 1000
next table: 3293
cur table: 1861
epoch: 1000
next table: 2060
cur table: 3293
epoch: 1000
next table: 2066
cur table: 2060
epoch: 1000
next table: 2298
cur table: 2183
epoch: 1000
next table: 2050
cur table: 2066
epoch: 1000
next table: 2043
cur table: 2050
epoch: 1000
next table: 2242
cur table: 2298
epoch: 1000
next table: 2036
cur table: 2043
epoch: 1000
next table: 2005
cur table: 2036
epoch: 1000
next table: 2319
cur table: 2242
epoch: 1000
next table: 2017
cur table: 2005
epoch: 1000
next table: 1973
cur table: 2017
epoch: 1000
next table: 2000
cur table: 1973
epoch: 1000
next table: 2541
cur table: 2319
epoch: 1000
next table: 1972
cur table: 2000
epoch: 1000
next table: 2004
cur table: 1972
epoch: 1000
next table: 2660
cur table: 2541
epoch: 1000
next table: 1973
cur table: 2004
epoch: 1000
next table: 2049
cur table: 1973
epoch: 1000
next table: 1866
cur table: 2049
epoch: 1000
next table: 2271
cur table: 2660
epoch: 1000
next table: 3435
cur table: 1866
epoch: 1000
next table: 2037
cur table: 3435
epoch: 1000
next table: 2063
cur table: 2037
epoch: 1000
next table: 2267
cur table: 2271
epoch: 1000
next table: 2068
cur table: 2063
epoch: 1000
next table: 2046
cur table: 2068
epoch: 1000
next table: 2305
cur table: 2267
epoch: 1000
next table: 2025
cur table: 2046
epoch: 1000
next table: 2003
cur table: 2025
epoch: 1000
next table: 2328
cur table: 2305
epoch: 1000
next table: 2009
cur table: 2003
epoch: 1000
next table: 2019
cur table: 2009
epoch: 1000
next table: 1981
cur table: 2019
epoch: 1000
next table: 2534
cur table: 2328
epoch: 1000
next table: 1983
cur table: 1981
epoch: 1000
next table: 2025
cur table: 1983
epoch: 1000
next table: 2705
cur table: 2534
epoch: 1000
next table: 2012
cur table: 2025
epoch: 1000
next table: 2056
cur table: 2012
epoch: 1000
next table: 2168
cur table: 2056
epoch: 1000
next table: 2343
cur table: 2705
Heartbeat CPU 0 instructions: 10000001 cycles: 3320928 heartbeat IPC: 3.01121 cumulative IPC: 3.01121 (Simulation time: 0 hr 6 min 51 sec) 
epoch: 1000
next table: 3223
cur table: 2168
epoch: 1000
next table: 2041
cur table: 3223
epoch: 1000
next table: 2141
cur table: 2041
epoch: 1000
next table: 2363
cur table: 2343
epoch: 1000
next table: 2070
cur table: 2141
epoch: 1000
next table: 2023
cur table: 2070
epoch: 1000
next table: 2330
cur table: 2363
epoch: 1000
next table: 2059
cur table: 2023
epoch: 1000
next table: 2046
cur table: 2059
epoch: 1000
next table: 2398
cur table: 2330
epoch: 1000
next table: 2003
cur table: 2046
epoch: 1000
next table: 2022
cur table: 2003
epoch: 1000
next table: 1987
cur table: 2022
epoch: 1000
next table: 2499
cur table: 2398
epoch: 1000
next table: 1977
cur table: 1987
epoch: 1000
next table: 1976
cur table: 1977
epoch: 1000
next table: 2704
cur table: 2499
epoch: 1000
next table: 1955
cur table: 1976
epoch: 1000
next table: 2043
cur table: 1955
epoch: 1000
next table: 2288
cur table: 2043
epoch: 1000
next table: 2219
cur table: 2704
epoch: 1000
next table: 3198
cur table: 2288
epoch: 1000
next table: 2010
cur table: 3198
epoch: 1000
next table: 2318
cur table: 2219
epoch: 1000
next table: 2118
cur table: 2010
epoch: 1000
next table: 2060
cur table: 2118
epoch: 1000
next table: 2047
cur table: 2060
epoch: 1000
next table: 2369
cur table: 2318
epoch: 1000
next table: 2025
cur table: 2047
epoch: 1000
next table: 2009
cur table: 2025
epoch: 1000
next table: 2361
cur table: 2369
epoch: 1000
next table: 2004
cur table: 2009
epoch: 1000
next table: 2014
cur table: 2004
epoch: 1000
next table: 1987
cur table: 2014
epoch: 1000
next table: 2677
cur table: 2361
epoch: 1000
next table: 1996
cur table: 1987
epoch: 1000
next table: 1993
cur table: 1996
epoch: 1000
next table: 2658
cur table: 2677
epoch: 1000
next table: 2047
cur table: 1993
epoch: 1000
next table: 2000
cur table: 2047
epoch: 1000
next table: 3162
cur table: 2000
epoch: 1000
next table: 2440
cur table: 2658
epoch: 1000
next table: 2299
cur table: 3162
epoch: 1000
next table: 2070
cur table: 2299
epoch: 1000
next table: 2092
cur table: 2070
epoch: 1000
next table: 2256
cur table: 2440
epoch: 1000
next table: 2055
cur table: 2092
epoch: 1000
next table: 2045
cur table: 2055
epoch: 1000
next table: 2313
cur table: 2256
epoch: 1000
next table: 2028
cur table: 2045
epoch: 1000
next table: 2017
cur table: 2028
epoch: 1000
next table: 2017
cur table: 2017
epoch: 1000
next table: 2470
cur table: 2313
epoch: 1000
next table: 2013
cur table: 2017
epoch: 1000
next table: 1962
cur table: 2013
epoch: 1000
next table: 2703
cur table: 2470
epoch: 1000
next table: 1996
cur table: 1962
epoch: 1000
next table: 2007
cur table: 1996
epoch: 1000
next table: 2048
cur table: 2007
epoch: 1000
next table: 2564
cur table: 2703
epoch: 1000
next table: 2013
cur table: 2048
epoch: 1000
next table: 3566
cur table: 2013
epoch: 1000
next table: 2324
cur table: 2564
epoch: 1000
next table: 2000
cur table: 3566
epoch: 1000
next table: 2116
cur table: 2000
epoch: 1000
next table: 2070
cur table: 2116
epoch: 1000
next table: 2283
cur table: 2324
epoch: 1000
next table: 2062
cur table: 2070
epoch: 1000
next table: 2083
cur table: 2062
epoch: 1000
next table: 2333
cur table: 2283
epoch: 1000
next table: 2041
cur table: 2083
epoch: 1000
next table: 2032
cur table: 2041
epoch: 1000
next table: 2015
cur table: 2032
epoch: 1000
next table: 2547
cur table: 2333
epoch: 1000
next table: 1984
cur table: 2015
epoch: 1000
next table: 1993
cur table: 1984
epoch: 1000
next table: 2632
cur table: 2547
epoch: 1000
next table: 1987
cur table: 1993
epoch: 1000
next table: 2019
cur table: 1987
epoch: 1000
next table: 2008
cur table: 2019
epoch: 1000
next table: 2525
cur table: 2632
epoch: 1000
next table: 2123
cur table: 2008
epoch: 1000
next table: 3401
cur table: 2123
epoch: 1000
next table: 2011
cur table: 3401
epoch: 1000
next table: 2380
cur table: 2525
epoch: 1000
next table: 2106
cur table: 2011
epoch: 1000
next table: 2008
cur table: 2106
epoch: 1000
next table: 2258
cur table: 2380
epoch: 1000
next table: 2060
cur table: 2008
epoch: 1000
next table: 2012
cur table: 2060
epoch: 1000
next table: 2317
cur table: 2258
epoch: 1000
next table: 1995
cur table: 2012
epoch: 1000
next table: 1968
cur table: 1995
epoch: 1000
next table: 1993
cur table: 1968
epoch: 1000
next table: 2563
cur table: 2317
epoch: 1000
next table: 1975
cur table: 1993
epoch: 1000
next table: 1994
cur table: 1975
epoch: 1000
next table: 2533
cur table: 2563
epoch: 1000
next table: 2018
cur table: 1994
epoch: 1000
next table: 2038
cur table: 2018
epoch: 1000
next table: 2028
cur table: 2038
epoch: 1000
next table: 2710
cur table: 2533
epoch: 1000
next table: 2188
cur table: 2028
epoch: 1000
next table: 3579
cur table: 2188
epoch: 1000
next table: 2074
cur table: 3579
epoch: 1000
next table: 2189
cur table: 2710
epoch: 1000
next table: 2162
cur table: 2074
epoch: 1000
next table: 2060
cur table: 2162
epoch: 1000
next table: 2379
cur table: 2189
epoch: 1000
next table: 2078
cur table: 2060
epoch: 1000
next table: 2060
cur table: 2078
epoch: 1000
next table: 2087
cur table: 2060
epoch: 1000
next table: 2364
cur table: 2379
epoch: 1000
next table: 2025
cur table: 2087
epoch: 1000
next table: 1997
cur table: 2025
epoch: 1000
next table: 2685
cur table: 2364
epoch: 1000
next table: 2010
cur table: 1997
epoch: 1000
next table: 2012
cur table: 2010
epoch: 1000
next table: 1988
cur table: 2012
epoch: 1000
next table: 2679
cur table: 2685
epoch: 1000
next table: 2032
cur table: 1988
epoch: 1000
next table: 1919
cur table: 2032
epoch: 1000
next table: 2325
cur table: 2679
epoch: 1000
next table: 3649
cur table: 1919
epoch: 1000
next table: 2111
cur table: 3649
epoch: 1000
next table: 2124
cur table: 2111
epoch: 1000
next table: 2455
cur table: 2325
epoch: 1000
next table: 2071
cur table: 2124
epoch: 1000
next table: 2072
cur table: 2071
epoch: 1000
next table: 2326
cur table: 2455
epoch: 1000
next table: 2082
cur table: 2072
epoch: 1000
next table: 2039
cur table: 2082
epoch: 1000
next table: 2016
cur table: 2039
epoch: 1000
next table: 2468
cur table: 2326
epoch: 1000
next table: 1991
cur table: 2016
epoch: 1000
next table: 1994
cur table: 1991
epoch: 1000
next table: 2543
cur table: 2468
epoch: 1000
next table: 1990
cur table: 1994
epoch: 1000
next table: 1976
cur table: 1990
epoch: 1000
next table: 1974
cur table: 1976
epoch: 1000
next table: 2615
cur table: 2543
epoch: 1000
next table: 2036
cur table: 1974
epoch: 1000
next table: 2077
cur table: 2036
epoch: 1000
next table: 3360
cur table: 2077
epoch: 1000
next table: 2441
cur table: 2615
epoch: 1000
next table: 2033
cur table: 3360
epoch: 1000
next table: 2124
cur table: 2033
epoch: 1000
next table: 2179
cur table: 2441
epoch: 1000
next table: 2056
cur table: 2124
epoch: 1000
next table: 2056
cur table: 2056
epoch: 1000
next table: 2373
cur table: 2179
epoch: 1000
next table: 2079
cur table: 2056
epoch: 1000
next table: 2059
cur table: 2079
epoch: 1000
next table: 2036
cur table: 2059
epoch: 1000
next table: 2519
cur table: 2373
epoch: 1000
next table: 2045
cur table: 2036
epoch: 1000
next table: 1998
cur table: 2045
epoch: 1000
next table: 2684
cur table: 2519
epoch: 1000
next table: 2047
cur table: 1998
epoch: 1000
next table: 1994
cur table: 2047
epoch: 1000
next table: 2055
cur table: 1994
epoch: 1000
next table: 2579
cur table: 2684
epoch: 1000
next table: 2031
cur table: 2055
epoch: 1000
next table: 2564
cur table: 2031
epoch: 1000
next table: 3001
cur table: 2564
epoch: 1000
next table: 2417
cur table: 2579
epoch: 1000
next table: 2048
cur table: 3001
epoch: 1000
next table: 2127
cur table: 2048
epoch: 1000
next table: 2356
cur table: 2417
epoch: 1000
next table: 2088
cur table: 2127
epoch: 1000
next table: 2103
cur table: 2088
epoch: 1000
next table: 2070
cur table: 2103
epoch: 1000
next table: 2393
cur table: 2356
epoch: 1000
next table: 2031
cur table: 2070
epoch: 1000
next table: 2025
cur table: 2031
epoch: 1000
next table: 2639
cur table: 2393
epoch: 1000
next table: 2002
cur table: 2025
epoch: 1000
next table: 1973
cur table: 2002
epoch: 1000
next table: 1993
cur table: 1973
epoch: 1000
next table: 2578
cur table: 2639
epoch: 1000
next table: 1974
cur table: 1993
epoch: 1000
next table: 2035
cur table: 1974
epoch: 1000
next table: 1998
cur table: 2035
epoch: 1000
next table: 2685
cur table: 2578
epoch: 1000
next table: 3515
cur table: 1998
epoch: 1000
next table: 2029
cur table: 3515
epoch: 1000
next table: 2264
cur table: 2685
epoch: 1000
next table: 2112
cur table: 2029
epoch: 1000
next table: 2095
cur table: 2112
epoch: 1000
next table: 2078
cur table: 2095
epoch: 1000
next table: 2341
cur table: 2264
epoch: 1000
next table: 2040
cur table: 2078
epoch: 1000
next table: 2061
cur table: 2040
epoch: 1000
next table: 2423
cur table: 2341
epoch: 1000
next table: 2010
cur table: 2061
epoch: 1000
next table: 2030
cur table: 2010
epoch: 1000
next table: 2029
cur table: 2030
epoch: 1000
next table: 2729
cur table: 2423
epoch: 1000
next table: 2038
cur table: 2029
epoch: 1000
next table: 2013
cur table: 2038
epoch: 1000
next table: 2699
cur table: 2729
epoch: 1000
next table: 2040
cur table: 2013
epoch: 1000
next table: 2035
cur table: 2040
epoch: 1000
next table: 2146
cur table: 2035
epoch: 1000
next table: 2312
cur table: 2699
epoch: 1000
next table: 3163
cur table: 2146
epoch: 1000
next table: 2060
cur table: 3163
epoch: 1000
next table: 2389
cur table: 2312
epoch: 1000
next table: 2106
cur table: 2060
epoch: 1000
next table: 2074
cur table: 2106
epoch: 1000
next table: 2066
cur table: 2074
epoch: 1000
next table: 2440
cur table: 2389
epoch: 1000
next table: 2059
cur table: 2066
epoch: 1000
next table: 2048
cur table: 2059
epoch: 1000
next table: 2505
cur table: 2440
epoch: 1000
next table: 2013
cur table: 2048
epoch: 1000
next table: 2033
cur table: 2013
epoch: 1000
next table: 2008
cur table: 2033
epoch: 1000
next table: 2673
cur table: 2505
epoch: 1000
next table: 2028
cur table: 2008
epoch: 1000
next table: 2017
cur table: 2028
epoch: 1000
next table: 2032
cur table: 2017
epoch: 1000
next table: 2645
cur table: 2673
epoch: 1000
next table: 1932
cur table: 2032
epoch: 1000
next table: 2706
cur table: 1932
epoch: 1000
next table: 2420
cur table: 2645
epoch: 1000
next table: 2781
cur table: 2706
epoch: 1000
next table: 2075
cur table: 2781
epoch: 1000
next table: 2102
cur table: 2075
epoch: 1000
next table: 2253
cur table: 2420
epoch: 1000
next table: 2111
cur table: 2102
epoch: 1000
next table: 2052
cur table: 2111
epoch: 1000
next table: 2446
cur table: 2253
epoch: 1000
next table: 2065
cur table: 2052
epoch: 1000
next table: 2065
cur table: 2065
epoch: 1000
next table: 2026
cur table: 2065
epoch: 1000
next table: 2522
cur table: 2446
epoch: 1000
next table: 2049
cur table: 2026
epoch: 1000
next table: 2010
cur table: 2049
epoch: 1000
next table: 2732
cur table: 2522
epoch: 1000
next table: 2023
cur table: 2010
epoch: 1000
next table: 2000
cur table: 2023
epoch: 1000
next table: 2052
cur table: 2000
epoch: 1000
next table: 2609
cur table: 2732
epoch: 1000
next table: 2272
cur table: 2052
epoch: 1000
next table: 3439
cur table: 2272
epoch: 1000
next table: 2009
cur table: 3439
epoch: 1000
next table: 2403
cur table: 2609
epoch: 1000
next table: 2109
cur table: 2009
epoch: 1000
next table: 2088
cur table: 2109
epoch: 1000
next table: 2358
cur table: 2403
epoch: 1000
next table: 2074
cur table: 2088
epoch: 1000
next table: 2071
cur table: 2074
epoch: 1000
next table: 2060
cur table: 2071
epoch: 1000
next table: 2356
cur table: 2358
epoch: 1000
next table: 2030
cur table: 2060
epoch: 1000
next table: 2057
cur table: 2030
epoch: 1000
next table: 2619
cur table: 2356
epoch: 1000
next table: 2006
cur table: 2057
epoch: 1000
next table: 1999
cur table: 2006
epoch: 1000
next table: 2023
cur table: 1999
epoch: 1000
next table: 2636
cur table: 2619
epoch: 1000
next table: 2043
cur table: 2023
epoch: 1000
next table: 1998
cur table: 2043
epoch: 1000
next table: 2504
cur table: 2636
epoch: 1000
next table: 3522
cur table: 1998
epoch: 1000
next table: 2105
cur table: 3522
epoch: 1000
next table: 2083
cur table: 2105
epoch: 1000
next table: 2416
cur table: 2504
epoch: 1000
next table: 2116
cur table: 2083
epoch: 1000
next table: 2048
cur table: 2116
epoch: 1000
next table: 2368
cur table: 2416
epoch: 1000
next table: 2052
cur table: 2048
epoch: 1000
next table: 2047
cur table: 2052
epoch: 1000
next table: 2022
cur table: 2047
epoch: 1000
next table: 2493
cur table: 2368
epoch: 1000
next table: 2048
cur table: 2022
epoch: 1000
next table: 2011
cur table: 2048
epoch: 1000
next table: 2640
cur table: 2493
epoch: 1000
next table: 2001
cur table: 2011
epoch: 1000
next table: 2012
cur table: 2001
epoch: 1000
next table: 2025
cur table: 2012
epoch: 1000
next table: 2659
cur table: 2640
epoch: 1000
next table: 2074
cur table: 2025
epoch: 1000
next table: 2257
cur table: 2074
epoch: 1000
next table: 3102
cur table: 2257
epoch: 1000
next table: 2386
cur table: 2659
epoch: 1000
next table: 2016
cur table: 3102
epoch: 1000
next table: 2133
cur table: 2016
epoch: 1000
next table: 2320
cur table: 2386
epoch: 1000
next table: 2097
cur table: 2133
epoch: 1000
next table: 2066
cur table: 2097
epoch: 1000
next table: 2059
cur table: 2066
epoch: 1000
next table: 2404
cur table: 2320
epoch: 1000
next table: 2034
cur table: 2059
epoch: 1000
next table: 2023
cur table: 2034
epoch: 1000
next table: 2527
cur table: 2404
epoch: 1000
next table: 2057
cur table: 2023
epoch: 1000
next table: 1987
cur table: 2057
epoch: 1000
next table: 1963
cur table: 1987
epoch: 1000
next table: 2705
cur table: 2527
epoch: 1000
next table: 1962
cur table: 1963
epoch: 1000
next table: 2018
cur table: 1962
epoch: 1000
next table: 2609
cur table: 2705
epoch: 1000
next table: 2015
cur table: 2018
epoch: 1000
next table: 2400
cur table: 2015
epoch: 1000
next table: 3061
cur table: 2400
epoch: 1000
next table: 2299
cur table: 2609
epoch: 1000
next table: 1978
cur table: 3061
epoch: 1000
next table: 2090
cur table: 1978
epoch: 1000
next table: 2051
cur table: 2090
epoch: 1000
next table: 2285
cur table: 2299
epoch: 1000
next table: 2069
cur table: 2051
epoch: 1000
next table: 2051
cur table: 2069
epoch: 1000
next table: 2431
cur table: 2285
epoch: 1000
next table: 2029
cur table: 2051
epoch: 1000
next table: 2014
cur table: 2029
epoch: 1000
next table: 2046
cur table: 2014
epoch: 1000
next table: 2628
cur table: 2431
epoch: 1000
next table: 1996
cur table: 2046
epoch: 1000
next table: 2005
cur table: 1996
epoch: 1000
next table: 2600
cur table: 2628
epoch: 1000
next table: 1978
cur table: 2005
epoch: 1000
next table: 2066
cur table: 1978
epoch: 1000
next table: 1878
cur table: 2066
epoch: 1000
next table: 2488
cur table: 2600
epoch: 1000
next table: 2631
cur table: 1878
epoch: 1000
next table: 2767
cur table: 2631
epoch: 1000
next table: 2152
cur table: 2488
epoch: 1000
next table: 2019
cur table: 2767
epoch: 1000
next table: 2100
cur table: 2019
epoch: 1000
next table: 2034
cur table: 2100
epoch: 1000
next table: 2294
cur table: 2152
epoch: 1000
next table: 2087
cur table: 2034
epoch: 1000
next table: 2014
cur table: 2087
epoch: 1000
next table: 2365
cur table: 2294
epoch: 1000
next table: 2031
cur table: 2014
epoch: 1000
next table: 2010
cur table: 2031
epoch: 1000
next table: 1990
cur table: 2010
epoch: 1000
next table: 2578
cur table: 2365
epoch: 1000
next table: 1965
cur table: 1990
epoch: 1000
next table: 2001
cur table: 1965
epoch: 1000
next table: 2600
cur table: 2578
epoch: 1000
next table: 1990
cur table: 2001
epoch: 1000
next table: 2029
cur table: 1990
epoch: 1000
next table: 1898
cur table: 2029
epoch: 1000
next table: 2474
cur table: 2600
epoch: 1000
next table: 3601
cur table: 1898
epoch: 1000
next table: 2112
cur table: 3601
epoch: 1000
next table: 2060
cur table: 2112
epoch: 1000
next table: 2325
cur table: 2474
epoch: 1000
next table: 2126
cur table: 2060
epoch: 1000
next table: 2045
cur table: 2126
epoch: 1000
next table: 2345
cur table: 2325
epoch: 1000
next table: 2047
cur table: 2045
epoch: 1000
next table: 2031
cur table: 2047
epoch: 1000
next table: 2040
cur table: 2031
epoch: 1000
next table: 2435
cur table: 2345
epoch: 1000
next table: 2029
cur table: 2040
epoch: 1000
next table: 1998
cur table: 2029
epoch: 1000
next table: 2629
cur table: 2435
epoch: 1000
next table: 1980
cur table: 1998
epoch: 1000
next table: 1995
cur table: 1980
epoch: 1000
next table: 1996
cur table: 1995
epoch: 1000
next table: 2643
cur table: 2629
epoch: 1000
next table: 2047
cur table: 1996
epoch: 1000
next table: 2308
cur table: 2047
epoch: 1000
next table: 3271
cur table: 2308
epoch: 1000
next table: 2501
cur table: 2643
epoch: 1000
next table: 1934
cur table: 3271
epoch: 1000
next table: 2029
cur table: 1934
epoch: 1000
next table: 2182
cur table: 2501
epoch: 1000
next table: 2022
cur table: 2029
epoch: 1000
next table: 1988
cur table: 2022
epoch: 1000
next table: 2295
cur table: 2182
epoch: 1000
next table: 2033
cur table: 1988
epoch: 1000
next table: 1959
cur table: 2033
epoch: 1000
next table: 2018
cur table: 1959
epoch: 1000
next table: 2457
cur table: 2295
epoch: 1000
next table: 1952
cur table: 2018
epoch: 1000
next table: 1986
cur table: 1952
epoch: 1000
next table: 2559
cur table: 2457
epoch: 1000
next table: 1980
cur table: 1986
epoch: 1000
next table: 2023
cur table: 1980
epoch: 1000
next table: 2008
cur table: 2023
epoch: 1000
next table: 2616
cur table: 2559
epoch: 1000
next table: 2041
cur table: 2008
epoch: 1000
next table: 2081
cur table: 2041
epoch: 1000
next table: 3343
cur table: 2081
epoch: 1000
next table: 2473
cur table: 2616
epoch: 1000
next table: 1984
cur table: 3343
epoch: 1000
next table: 2123
cur table: 1984
epoch: 1000
next table: 2267
cur table: 2473
epoch: 1000
next table: 2116
cur table: 2123
epoch: 1000
next table: 2089
cur table: 2116
epoch: 1000
next table: 2080
cur table: 2089
epoch: 1000
next table: 2451
cur table: 2267
epoch: 1000
next table: 2060
cur table: 2080
epoch: 1000
next table: 2018
cur table: 2060
epoch: 1000
next table: 2522
cur table: 2451
epoch: 1000
next table: 2052
cur table: 2018
epoch: 1000
next table: 2014
cur table: 2052
epoch: 1000
next table: 2026
cur table: 2014
epoch: 1000
next table: 2667
cur table: 2522
epoch: 1000
next table: 2022
cur table: 2026
epoch: 1000
next table: 2017
cur table: 2022
epoch: 1000
next table: 2612
cur table: 2667
epoch: 1000
next table: 1953
cur table: 2017
epoch: 1000
next table: 3465
cur table: 1953
epoch: 1000
next table: 2105
cur table: 3465
epoch: 1000
next table: 2354
cur table: 2612
epoch: 1000
next table: 2102
cur table: 2105
epoch: 1000
next table: 2084
cur table: 2102
epoch: 1000
next table: 2050
cur table: 2084
epoch: 1000
next table: 2349
cur table: 2354
epoch: 1000
next table: 2033
cur table: 2050
epoch: 1000
next table: 2020
cur table: 2033
epoch: 1000
next table: 2403
cur table: 2349
epoch: 1000
next table: 2053
cur table: 2020
epoch: 1000
next table: 2000
cur table: 2053
epoch: 1000
next table: 2013
cur table: 2000
epoch: 1000
next table: 2572
cur table: 2403
epoch: 1000
next table: 2019
cur table: 2013
epoch: 1000
next table: 2030
cur table: 2019
epoch: 1000
next table: 2633
cur table: 2572
epoch: 1000
next table: 2012
cur table: 2030
epoch: 1000
next table: 2009
cur table: 2012
epoch: 1000
next table: 2287
cur table: 2009
epoch: 1000
next table: 2422
cur table: 2633
epoch: 1000
next table: 3194
cur table: 2287
epoch: 1000
next table: 2028
cur table: 3194
epoch: 1000
next table: 2368
cur table: 2422
epoch: 1000
next table: 2095
cur table: 2028
epoch: 1000
next table: 2078
cur table: 2095
epoch: 1000
next table: 2090
cur table: 2078
epoch: 1000
next table: 2376
cur table: 2368
epoch: 1000
next table: 2046
cur table: 2090
epoch: 1000
next table: 2033
cur table: 2046
epoch: 1000
next table: 2434
cur table: 2376
epoch: 1000
next table: 2025
cur table: 2033
epoch: 1000
next table: 1984
cur table: 2025
epoch: 1000
next table: 1982
cur table: 1984
epoch: 1000
next table: 2556
cur table: 2434
epoch: 1000
next table: 2032
cur table: 1982
epoch: 1000
next table: 1975
cur table: 2032
epoch: 1000
next table: 2592
cur table: 2556
epoch: 1000
next table: 2049
cur table: 1975
epoch: 1000
next table: 1981
cur table: 2049
epoch: 1000
next table: 2105
cur table: 1981
epoch: 1000
next table: 2468
cur table: 2592
epoch: 1000
next table: 3293
cur table: 2105
epoch: 1000
next table: 1994
cur table: 3293
epoch: 1000
next table: 2114
cur table: 2468
epoch: 1000
next table: 2106
cur table: 1994
epoch: 1000
next table: 2003
cur table: 2106
epoch: 1000
next table: 2017
cur table: 2003
epoch: 1000
next table: 2279
cur table: 2114
epoch: 1000
next table: 2024
cur table: 2017
epoch: 1000
next table: 2002
cur table: 2024
epoch: 1000
next table: 2402
cur table: 2279
epoch: 1000
next table: 2021
cur table: 2002
epoch: 1000
next table: 1962
cur table: 2021
epoch: 1000
next table: 1980
cur table: 1962
epoch: 1000
next table: 2482
cur table: 2402
epoch: 1000
next table: 1979
cur table: 1980
epoch: 1000
next table: 1950
cur table: 1979
epoch: 1000
next table: 2573
cur table: 2482
epoch: 1000
next table: 2042
cur table: 1950
epoch: 1000
next table: 1982
cur table: 2042
epoch: 1000
next table: 2224
cur table: 1982
epoch: 1000
next table: 2599
cur table: 2573
epoch: 1000
next table: 3138
cur table: 2224
epoch: 1000
next table: 1997
cur table: 3138
epoch: 1000
next table: 2179
cur table: 2599
epoch: 1000
next table: 2095
cur table: 1997
epoch: 1000
next table: 2039
cur table: 2095
epoch: 1000
next table: 2067
cur table: 2039
epoch: 1000
next table: 2343
cur table: 2179
epoch: 1000
next table: 2036
cur table: 2067
epoch: 1000
next table: 2040
cur table: 2036
epoch: 1000
next table: 2461
cur table: 2343
epoch: 1000
next table: 1994
cur table: 2040
epoch: 1000
next table: 1974
cur table: 1994
epoch: 1000
next table: 2003
cur table: 1974
epoch: 1000
next table: 2554
cur table: 2461
epoch: 1000
next table: 1995
cur table: 2003
epoch: 1000
next table: 1957
cur table: 1995
epoch: 1000
next table: 2605
cur table: 2554
epoch: 1000
next table: 2045
cur table: 1957
epoch: 1000
next table: 1983
cur table: 2045
epoch: 1000
next table: 3120
cur table: 1983
epoch: 1000
next table: 2471
cur table: 2605
epoch: 1000
next table: 2373
cur table: 3120
epoch: 1000
next table: 2012
cur table: 2373
epoch: 1000
next table: 2140
cur table: 2471
epoch: 1000
next table: 2075
cur table: 2012
epoch: 1000
next table: 2023
cur table: 2075
epoch: 1000
next table: 2044
cur table: 2023
epoch: 1000
next table: 2381
cur table: 2140
epoch: 1000
next table: 2025
cur table: 2044
epoch: 1000
next table: 2009
cur table: 2025
epoch: 1000
next table: 2424
cur table: 2381
epoch: 1000
next table: 1979
cur table: 2009
epoch: 1000
next table: 1986
cur table: 1979
epoch: 1000
next table: 1983
cur table: 1986
epoch: 1000
next table: 2544
cur table: 2424
epoch: 1000
next table: 1984
cur table: 1983
epoch: 1000
next table: 1991
cur table: 1984
epoch: 1000
next table: 2628
cur table: 2544
epoch: 1000
next table: 2024
cur table: 1991
epoch: 1000
next table: 1953
cur table: 2024
epoch: 1000
next table: 3348
cur table: 1953
epoch: 1000
next table: 2470
cur table: 2628
epoch: 1000
next table: 2040
cur table: 3348
epoch: 1000
next table: 2084
cur table: 2040
epoch: 1000
next table: 2113
cur table: 2084
epoch: 1000
next table: 2210
cur table: 2470
epoch: 1000
next table: 2090
cur table: 2113
epoch: 1000
next table: 2075
cur table: 2090
epoch: 1000
next table: 2403
cur table: 2210
epoch: 1000
next table: 2025
cur table: 2075
epoch: 1000
next table: 2080
cur table: 2025
epoch: 1000
next table: 1997
cur table: 2080
epoch: 1000
next table: 2486
cur table: 2403
epoch: 1000
next table: 2029
cur table: 1997
epoch: 1000
next table: 1979
cur table: 2029
epoch: 1000
next table: 2638
cur table: 2486
epoch: 1000
next table: 1985
cur table: 1979
epoch: 1000
next table: 2011
cur table: 1985
epoch: 1000
next table: 2037
cur table: 2011
epoch: 1000
next table: 2626
cur table: 2638
epoch: 1000
next table: 2397
cur table: 2037
epoch: 1000
next table: 3085
cur table: 2397
epoch: 1000
next table: 2331
cur table: 2626
epoch: 1000
next table: 1963
cur table: 3085
epoch: 1000
next table: 2114
cur table: 1963
epoch: 1000
next table: 2072
cur table: 2114
epoch: 1000
next table: 2238
cur table: 2331
epoch: 1000
next table: 2087
cur table: 2072
epoch: 1000
next table: 2066
cur table: 2087
epoch: 1000
next table: 2407
cur table: 2238
epoch: 1000
next table: 2012
cur table: 2066
epoch: 1000
next table: 2012
cur table: 2012
epoch: 1000
next table: 1986
cur table: 2012
epoch: 1000
next table: 2541
cur table: 2407
epoch: 1000
next table: 2023
cur table: 1986
epoch: 1000
next table: 1970
cur table: 2023
epoch: 1000
next table: 2577
cur table: 2541
epoch: 1000
next table: 1954
cur table: 1970
epoch: 1000
next table: 2030
cur table: 1954
epoch: 1000
next table: 2003
cur table: 2030
epoch: 1000
next table: 2520
cur table: 2577
epoch: 1000
next table: 2203
cur table: 2003
epoch: 1000
next table: 3119
cur table: 2203
epoch: 1000
next table: 2420
cur table: 2520
epoch: 1000
next table: 2002
cur table: 3119
epoch: 1000
next table: 1976
cur table: 2002
epoch: 1000
next table: 2135
cur table: 1976
epoch: 1000
next table: 2168
cur table: 2420
epoch: 1000
next table: 2052
cur table: 2135
epoch: 1000
next table: 2094
cur table: 2052
epoch: 1000
next table: 2367
cur table: 2168
epoch: 1000
next table: 2090
cur table: 2094
epoch: 1000
next table: 2043
cur table: 2090
epoch: 1000
next table: 2438
cur table: 2367
epoch: 1000
next table: 2026
cur table: 2043
epoch: 1000
next table: 1970
cur table: 2026
epoch: 1000
next table: 1963
cur table: 1970
epoch: 1000
next table: 2577
cur table: 2438
epoch: 1000
next table: 2008
cur table: 1963
epoch: 1000
next table: 1982
cur table: 2008
epoch: 1000
next table: 2016
cur table: 1982
epoch: 1000
next table: 2650
cur table: 2577
epoch: 1000
next table: 1976
cur table: 2016
epoch: 1000
next table: 2935
cur table: 1976
epoch: 1000
next table: 2302
cur table: 2650
epoch: 1000
next table: 2257
cur table: 2935
epoch: 1000
next table: 2033
cur table: 2257
epoch: 1000
next table: 2108
cur table: 2302
epoch: 1000
next table: 2091
cur table: 2033
epoch: 1000
next table: 2055
cur table: 2091
epoch: 1000
next table: 2084
cur table: 2055
epoch: 1000
next table: 2323
cur table: 2108
epoch: 1000
next table: 2020
cur table: 2084
epoch: 1000
next table: 2007
cur table: 2020
epoch: 1000
next table: 2448
cur table: 2323
epoch: 1000
next table: 1994
cur table: 2007
epoch: 1000
next table: 1995
cur table: 1994
epoch: 1000
next table: 2006
cur table: 1995
epoch: 1000
next table: 2566
cur table: 2448
epoch: 1000
next table: 2024
cur table: 2006
epoch: 1000
next table: 2000
cur table: 2024
epoch: 1000
next table: 2601
cur table: 2566
epoch: 1000
next table: 2018
cur table: 2000
epoch: 1000
next table: 1861
cur table: 2018
epoch: 1000
next table: 3562
cur table: 1861
epoch: 1000
next table: 2327
cur table: 2601
epoch: 1000
next table: 1891
cur table: 3562
epoch: 1000
next table: 2084
cur table: 1891
epoch: 1000
next table: 2177
cur table: 2327
epoch: 1000
next table: 2105
cur table: 2084
epoch: 1000
next table: 2076
cur table: 2105
epoch: 1000
next table: 2097
cur table: 2076
epoch: 1000
next table: 2364
cur table: 2177
epoch: 1000
next table: 2022
cur table: 2097
epoch: 1000
next table: 2039
cur table: 2022
epoch: 1000
next table: 2478
cur table: 2364
epoch: 1000
next table: 1985
cur table: 2039
epoch: 1000
next table: 1997
cur table: 1985
epoch: 1000
next table: 1972
cur table: 1997
epoch: 1000
next table: 2679
cur table: 2478
epoch: 1000
next table: 1988
cur table: 1972
epoch: 1000
next table: 1961
cur table: 1988
epoch: 1000
next table: 2024
cur table: 1961
epoch: 1000
next table: 2610
cur table: 2679
epoch: 1000
next table: 1872
cur table: 2024
epoch: 1000
next table: 3481
cur table: 1872
epoch: 1000
next table: 2312
cur table: 2610
epoch: 1000
next table: 1979
cur table: 3481
epoch: 1000
next table: 2065
cur table: 1979
epoch: 1000
next table: 2065
cur table: 2065
epoch: 1000
next table: 2144
cur table: 2312
epoch: 1000
next table: 2038
cur table: 2065
epoch: 1000
next table: 2034
cur table: 2038
epoch: 1000
next table: 2343
cur table: 2144
epoch: 1000
next table: 2011
cur table: 2034
epoch: 1000
next table: 2020
cur table: 2011
epoch: 1000
next table: 2436
cur table: 2343
epoch: 1000
next table: 1990
cur table: 2020
epoch: 1000
next table: 1954
cur table: 1990
epoch: 1000
next table: 1955
cur table: 1954
epoch: 1000
next table: 2598
cur table: 2436
epoch: 1000
next table: 1957
cur table: 1955
epoch: 1000
next table: 1943
cur table: 1957
epoch: 1000
next table: 2479
cur table: 2598
epoch: 1000
next table: 2005
cur table: 1943
epoch: 1000
next table: 1978
cur table: 2005
epoch: 1000
next table: 2622
cur table: 1978
epoch: 1000
next table: 2420
cur table: 2479
epoch: 1000
next table: 2882
cur table: 2622
epoch: 1000
next table: 2054
cur table: 2882
epoch: 1000
next table: 2123
cur table: 2054
epoch: 1000
next table: 2130
cur table: 2420
epoch: 1000
next table: 2042
cur table: 2123
epoch: 1000
next table: 2063
cur table: 2042
epoch: 1000
next table: 2311
cur table: 2130
epoch: 1000
next table: 2018
cur table: 2063
epoch: 1000
next table: 2009
cur table: 2018
epoch: 1000
next table: 2521
cur table: 2311
epoch: 1000
next table: 2026
cur table: 2009
epoch: 1000
next table: 2015
cur table: 2026
epoch: 1000
next table: 1973
cur table: 2015
epoch: 1000
next table: 2554
cur table: 2521
epoch: 1000
next table: 1989
cur table: 1973
epoch: 1000
next table: 2008
cur table: 1989
epoch: 1000
next table: 2575
cur table: 2554
epoch: 1000
next table: 1999
cur table: 2008
epoch: 1000
next table: 1897
cur table: 1999
Heartbeat CPU 0 instructions: 20000000 cycles: 6641803 heartbeat IPC: 3.01125 cumulative IPC: 3.01123 (Simulation time: 0 hr 13 min 21 sec) 
epoch: 1000
next table: 3442
cur table: 1897
epoch: 1000
next table: 2325
cur table: 2575
epoch: 1000
next table: 2046
cur table: 3442
epoch: 1000
next table: 2050
cur table: 2046
epoch: 1000
next table: 2107
cur table: 2325
epoch: 1000
next table: 2049
cur table: 2050
epoch: 1000
next table: 2056
cur table: 2049
epoch: 1000
next table: 2025
cur table: 2056
epoch: 1000
next table: 2337
cur table: 2107
epoch: 1000
next table: 2059
cur table: 2025
epoch: 1000
next table: 1984
cur table: 2059
epoch: 1000
next table: 2420
cur table: 2337
epoch: 1000
next table: 2004
cur table: 1984
epoch: 1000
next table: 1974
cur table: 2004
epoch: 1000
next table: 1998
cur table: 1974
epoch: 1000
next table: 2521
cur table: 2420
epoch: 1000
next table: 2000
cur table: 1998
epoch: 1000
next table: 1997
cur table: 2000
epoch: 1000
next table: 2579
cur table: 2521
epoch: 1000
next table: 2023
cur table: 1997
epoch: 1000
next table: 1934
cur table: 2023
epoch: 1000
next table: 3380
cur table: 1934
epoch: 1000
next table: 2345
cur table: 2579
epoch: 1000
next table: 1981
cur table: 3380
epoch: 1000
next table: 2082
cur table: 1981
epoch: 1000
next table: 2157
cur table: 2345
epoch: 1000
next table: 2067
cur table: 2082
epoch: 1000
next table: 2012
cur table: 2067
epoch: 1000
next table: 2031
cur table: 2012
epoch: 1000
next table: 2312
cur table: 2157
epoch: 1000
next table: 2000
cur table: 2031
epoch: 1000
next table: 1957
cur table: 2000
epoch: 1000
next table: 2406
cur table: 2312
epoch: 1000
next table: 1989
cur table: 1957
epoch: 1000
next table: 1963
cur table: 1989
epoch: 1000
next table: 1971
cur table: 1963
epoch: 1000
next table: 2442
cur table: 2406
epoch: 1000
next table: 1997
cur table: 1971
epoch: 1000
next table: 1968
cur table: 1997
epoch: 1000
next table: 2684
cur table: 2442
epoch: 1000
next table: 1984
cur table: 1968
epoch: 1000
next table: 2007
cur table: 1984
epoch: 1000
next table: 3257
cur table: 2007
epoch: 1000
next table: 2473
cur table: 2684
epoch: 1000
next table: 2043
cur table: 3257
epoch: 1000
next table: 2110
cur table: 2043
epoch: 1000
next table: 2104
cur table: 2473
epoch: 1000
next table: 2113
cur table: 2110
epoch: 1000
next table: 2058
cur table: 2113
epoch: 1000
next table: 2066
cur table: 2058
epoch: 1000
next table: 2369
cur table: 2104
epoch: 1000
next table: 2024
cur table: 2066
epoch: 1000
next table: 2045
cur table: 2024
epoch: 1000
next table: 2450
cur table: 2369
epoch: 1000
next table: 1992
cur table: 2045
epoch: 1000
next table: 1985
cur table: 1992
epoch: 1000
next table: 1991
cur table: 1985
epoch: 1000
next table: 2529
cur table: 2450
epoch: 1000
next table: 1979
cur table: 1991
epoch: 1000
next table: 2006
cur table: 1979
epoch: 1000
next table: 2562
cur table: 2529
epoch: 1000
next table: 2023
cur table: 2006
epoch: 1000
next table: 1844
cur table: 2023
epoch: 1000
next table: 3610
cur table: 1844
epoch: 1000
next table: 2375
cur table: 2562
epoch: 1000
next table: 1980
cur table: 3610
epoch: 1000
next table: 2041
cur table: 1980
epoch: 1000
next table: 2107
cur table: 2375
epoch: 1000
next table: 2121
cur table: 2041
epoch: 1000
next table: 2028
cur table: 2121
epoch: 1000
next table: 2349
cur table: 2107
epoch: 1000
next table: 2083
cur table: 2028
epoch: 1000
next table: 2018
cur table: 2083
epoch: 1000
next table: 2050
cur table: 2018
epoch: 1000
next table: 2398
cur table: 2349
epoch: 1000
next table: 1986
cur table: 2050
epoch: 1000
next table: 2008
cur table: 1986
epoch: 1000
next table: 2598
cur table: 2398
epoch: 1000
next table: 2020
cur table: 2008
epoch: 1000
next table: 2008
cur table: 2020
epoch: 1000
next table: 2038
cur table: 2008
epoch: 1000
next table: 2604
cur table: 2598
epoch: 1000
next table: 2043
cur table: 2038
epoch: 1000
next table: 2415
cur table: 2043
epoch: 1000
next table: 3089
cur table: 2415
epoch: 1000
next table: 2405
cur table: 2604
epoch: 1000
next table: 2018
cur table: 3089
epoch: 1000
next table: 2098
cur table: 2018
epoch: 1000
next table: 2144
cur table: 2405
epoch: 1000
next table: 2085
cur table: 2098
epoch: 1000
next table: 2025
cur table: 2085
epoch: 1000
next table: 2331
cur table: 2144
epoch: 1000
next table: 2098
cur table: 2025
epoch: 1000
next table: 1961
cur table: 2098
epoch: 1000
next table: 2008
cur table: 1961
epoch: 1000
next table: 2481
cur table: 2331
epoch: 1000
next table: 1965
cur table: 2008
epoch: 1000
next table: 1989
cur table: 1965
epoch: 1000
next table: 2501
cur table: 2481
epoch: 1000
next table: 2010
cur table: 1989
epoch: 1000
next table: 1951
cur table: 2010
epoch: 1000
next table: 2005
cur table: 1951
epoch: 1000
next table: 2522
cur table: 2501
epoch: 1000
next table: 1996
cur table: 2005
epoch: 1000
next table: 2156
cur table: 1996
epoch: 1000
next table: 2270
cur table: 2522
epoch: 1000
next table: 3106
cur table: 2156
epoch: 1000
next table: 1996
cur table: 3106
epoch: 1000
next table: 2083
cur table: 1996
epoch: 1000
next table: 2087
cur table: 2270
epoch: 1000
next table: 2038
cur table: 2083
epoch: 1000
next table: 2039
cur table: 2038
epoch: 1000
next table: 2296
cur table: 2087
epoch: 1000
next table: 2034
cur table: 2039
epoch: 1000
next table: 1993
cur table: 2034
epoch: 1000
next table: 1973
cur table: 1993
epoch: 1000
next table: 2490
cur table: 2296
epoch: 1000
next table: 1982
cur table: 1973
epoch: 1000
next table: 2006
cur table: 1982
epoch: 1000
next table: 2569
cur table: 2490
epoch: 1000
next table: 1995
cur table: 2006
epoch: 1000
next table: 1997
cur table: 1995
epoch: 1000
next table: 2014
cur table: 1997
epoch: 1000
next table: 2649
cur table: 2569
epoch: 1000
next table: 2038
cur table: 2014
epoch: 1000
next table: 2069
cur table: 2038
epoch: 1000
next table: 2346
cur table: 2649
epoch: 1000
next table: 3255
cur table: 2069
epoch: 1000
next table: 2082
cur table: 3255
epoch: 1000
next table: 2142
cur table: 2082
epoch: 1000
next table: 2193
cur table: 2346
epoch: 1000
next table: 2098
cur table: 2142
epoch: 1000
next table: 2084
cur table: 2098
epoch: 1000
next table: 2342
cur table: 2193
epoch: 1000
next table: 2060
cur table: 2084
epoch: 1000
next table: 2021
cur table: 2060
epoch: 1000
next table: 2017
cur table: 2021
epoch: 1000
next table: 2473
cur table: 2342
epoch: 1000
next table: 2008
cur table: 2017
epoch: 1000
next table: 1968
cur table: 2008
epoch: 1000
next table: 2621
cur table: 2473
epoch: 1000
next table: 2001
cur table: 1968
epoch: 1000
next table: 2032
cur table: 2001
epoch: 1000
next table: 2579
cur table: 2621
epoch: 1000
next table: 2055
cur table: 2032
epoch: 1000
next table: 1898
cur table: 2055
epoch: 1000
next table: 3800
cur table: 1898
epoch: 1000
next table: 2337
cur table: 2579
epoch: 1000
next table: 1992
cur table: 3800
epoch: 1000
next table: 2152
cur table: 1992
epoch: 1000
next table: 2198
cur table: 2337
epoch: 1000
next table: 2089
cur table: 2152
epoch: 1000
next table: 2064
cur table: 2089
epoch: 1000
next table: 2105
cur table: 2064
epoch: 1000
next table: 2376
cur table: 2198
epoch: 1000
next table: 2024
cur table: 2105
epoch: 1000
next table: 2002
cur table: 2024
epoch: 1000
next table: 2514
cur table: 2376
epoch: 1000
next table: 2022
cur table: 2002
epoch: 1000
next table: 2021
cur table: 2022
epoch: 1000
next table: 2038
cur table: 2021
epoch: 1000
next table: 2630
cur table: 2514
epoch: 1000
next table: 2030
cur table: 2038
epoch: 1000
next table: 2056
cur table: 2030
epoch: 1000
next table: 2547
cur table: 2630
epoch: 1000
next table: 2021
cur table: 2056
epoch: 1000
next table: 2440
cur table: 2021
epoch: 1000
next table: 2940
cur table: 2440
epoch: 1000
next table: 2194
cur table: 2547
epoch: 1000
next table: 2109
cur table: 2940
epoch: 1000
next table: 2129
cur table: 2109
epoch: 1000
next table: 2294
cur table: 2194
epoch: 1000
next table: 2041
cur table: 2129
epoch: 1000
next table: 2089
cur table: 2041
epoch: 1000
next table: 2026
cur table: 2089
epoch: 1000
next table: 2327
cur table: 2294
epoch: 1000
next table: 2028
cur table: 2026
epoch: 1000
next table: 1984
cur table: 2028
epoch: 1000
next table: 2577
cur table: 2327
epoch: 1000
next table: 2005
cur table: 1984
epoch: 1000
next table: 2009
cur table: 2005
epoch: 1000
next table: 2010
cur table: 2009
epoch: 1000
next table: 2554
cur table: 2577
epoch: 1000
next table: 2002
cur table: 2010
epoch: 1000
next table: 1988
cur table: 2002
epoch: 1000
next table: 2528
cur table: 2554
epoch: 1000
next table: 1891
cur table: 1988
epoch: 1000
next table: 3550
cur table: 1891
epoch: 1000
next table: 1975
cur table: 3550
epoch: 1000
next table: 2122
cur table: 2528
epoch: 1000
next table: 2118
cur table: 1975
epoch: 1000
next table: 2093
cur table: 2118
epoch: 1000
next table: 2236
cur table: 2122
epoch: 1000
next table: 2077
cur table: 2093
epoch: 1000
next table: 2072
cur table: 2077
epoch: 1000
next table: 2028
cur table: 2072
epoch: 1000
next table: 2343
cur table: 2236
epoch: 1000
next table: 2003
cur table: 2028
epoch: 1000
next table: 1991
cur table: 2003
epoch: 1000
next table: 2571
cur table: 2343
epoch: 1000
next table: 2009
cur table: 1991
epoch: 1000
next table: 2009
cur table: 2009
epoch: 1000
next table: 2015
cur table: 2009
epoch: 1000
next table: 2650
cur table: 2571
epoch: 1000
next table: 2023
cur table: 2015
epoch: 1000
next table: 2021
cur table: 2023
epoch: 1000
next table: 2511
cur table: 2650
epoch: 1000
next table: 2192
cur table: 2021
epoch: 1000
next table: 3116
cur table: 2192
epoch: 1000
next table: 2069
cur table: 3116
epoch: 1000
next table: 2131
cur table: 2511
epoch: 1000
next table: 2101
cur table: 2069
epoch: 1000
next table: 2099
cur table: 2101
epoch: 1000
next table: 2298
cur table: 2131
epoch: 1000
next table: 2085
cur table: 2099
epoch: 1000
next table: 2117
cur table: 2085
epoch: 1000
next table: 2040
cur table: 2117
epoch: 1000
next table: 2393
cur table: 2298
epoch: 1000
next table: 1997
cur table: 2040
epoch: 1000
next table: 2023
cur table: 1997
epoch: 1000
next table: 2604
cur table: 2393
epoch: 1000
next table: 2028
cur table: 2023
epoch: 1000
next table: 2034
cur table: 2028
epoch: 1000
next table: 2010
cur table: 2034
epoch: 1000
next table: 2693
cur table: 2604
epoch: 1000
next table: 2063
cur table: 2010
epoch: 1000
next table: 2161
cur table: 2063
epoch: 1000
next table: 2278
cur table: 2693
epoch: 1000
next table: 3242
cur table: 2161
epoch: 1000
next table: 2000
cur table: 3242
epoch: 1000
next table: 2295
cur table: 2278
epoch: 1000
next table: 2149
cur table: 2000
epoch: 1000
next table: 2111
cur table: 2149
epoch: 1000
next table: 2077
cur table: 2111
epoch: 1000
next table: 2370
cur table: 2295
epoch: 1000
next table: 2144
cur table: 2077
epoch: 1000
next table: 2030
cur table: 2144
epoch: 1000
next table: 2526
cur table: 2370
epoch: 1000
next table: 2033
cur table: 2030
epoch: 1000
next table: 2049
cur table: 2033
epoch: 1000
next table: 2001
cur table: 2049
epoch: 1000
next table: 2574
cur table: 2526
epoch: 1000
next table: 2037
cur table: 2001
epoch: 1000
next table: 1997
cur table: 2037
epoch: 1000
next table: 2626
cur table: 2574
epoch: 1000
next table: 2013
cur table: 1997
epoch: 1000
next table: 2025
cur table: 2013
epoch: 1000
next table: 3013
cur table: 2025
epoch: 1000
next table: 2234
cur table: 2626
epoch: 1000
next table: 2387
cur table: 3013
epoch: 1000
next table: 2122
cur table: 2387
epoch: 1000
next table: 2215
cur table: 2234
epoch: 1000
next table: 2156
cur table: 2122
epoch: 1000
next table: 2070
cur table: 2156
epoch: 1000
next table: 2321
cur table: 2215
epoch: 1000
next table: 2106
cur table: 2070
epoch: 1000
next table: 2071
cur table: 2106
epoch: 1000
next table: 2049
cur table: 2071
epoch: 1000
next table: 2539
cur table: 2321
epoch: 1000
next table: 1965
cur table: 2049
epoch: 1000
next table: 2050
cur table: 1965
epoch: 1000
next table: 2574
cur table: 2539
epoch: 1000
next table: 2027
cur table: 2050
epoch: 1000
next table: 2019
cur table: 2027
epoch: 1000
next table: 2023
cur table: 2019
epoch: 1000
next table: 2662
cur table: 2574
epoch: 1000
next table: 2043
cur table: 2023
epoch: 1000
next table: 2348
cur table: 2043
epoch: 1000
next table: 3079
cur table: 2348
epoch: 1000
next table: 2472
cur table: 2662
epoch: 1000
next table: 2013
cur table: 3079
epoch: 1000
next table: 2128
cur table: 2013
epoch: 1000
next table: 2183
cur table: 2472
epoch: 1000
next table: 2079
cur table: 2128
epoch: 1000
next table: 2050
cur table: 2079
epoch: 1000
next table: 2068
cur table: 2050
epoch: 1000
next table: 2348
cur table: 2183
epoch: 1000
next table: 2008
cur table: 2068
epoch: 1000
next table: 2028
cur table: 2008
epoch: 1000
next table: 2480
cur table: 2348
epoch: 1000
next table: 2014
cur table: 2028
epoch: 1000
next table: 2016
cur table: 2014
epoch: 1000
next table: 1980
cur table: 2016
epoch: 1000
next table: 2605
cur table: 2480
epoch: 1000
next table: 1999
cur table: 1980
epoch: 1000
next table: 2018
cur table: 1999
epoch: 1000
next table: 2582
cur table: 2605
epoch: 1000
next table: 2020
cur table: 2018
epoch: 1000
next table: 2251
cur table: 2020
epoch: 1000
next table: 3239
cur table: 2251
epoch: 1000
next table: 2222
cur table: 2582
epoch: 1000
next table: 2124
cur table: 3239
epoch: 1000
next table: 2116
cur table: 2124
epoch: 1000
next table: 2267
cur table: 2222
epoch: 1000
next table: 2076
cur table: 2116
epoch: 1000
next table: 2064
cur table: 2076
epoch: 1000
next table: 2392
cur table: 2267
epoch: 1000
next table: 2080
cur table: 2064
epoch: 1000
next table: 2047
cur table: 2080
epoch: 1000
next table: 2004
cur table: 2047
epoch: 1000
next table: 2526
cur table: 2392
epoch: 1000
next table: 1997
cur table: 2004
epoch: 1000
next table: 1959
cur table: 1997
epoch: 1000
next table: 2696
cur table: 2526
epoch: 1000
next table: 2024
cur table: 1959
epoch: 1000
next table: 1973
cur table: 2024
epoch: 1000
next table: 2028
cur table: 1973
epoch: 1000
next table: 2516
cur table: 2696
epoch: 1000
next table: 1863
cur table: 2028
epoch: 1000
next table: 3633
cur table: 1863
epoch: 1000
next table: 2130
cur table: 2516
epoch: 1000
next table: 2024
cur table: 3633
epoch: 1000
next table: 2108
cur table: 2024
epoch: 1000
next table: 2118
cur table: 2108
epoch: 1000
next table: 2324
cur table: 2130
epoch: 1000
next table: 2042
cur table: 2118
epoch: 1000
next table: 2089
cur table: 2042
epoch: 1000
next table: 2385
cur table: 2324
epoch: 1000
next table: 2039
cur table: 2089
epoch: 1000
next table: 2028
cur table: 2039
epoch: 1000
next table: 2004
cur table: 2028
epoch: 1000
next table: 2567
cur table: 2385
epoch: 1000
next table: 2011
cur table: 2004
epoch: 1000
next table: 2002
cur table: 2011
epoch: 1000
next table: 2572
cur table: 2567
epoch: 1000
next table: 2021
cur table: 2002
epoch: 1000
next table: 2022
cur table: 2021
epoch: 1000
next table: 2016
cur table: 2022
epoch: 1000
next table: 2582
cur table: 2572
epoch: 1000
next table: 2161
cur table: 2016
epoch: 1000
next table: 3225
cur table: 2161
epoch: 1000
next table: 2135
cur table: 2582
epoch: 1000
next table: 2046
cur table: 3225
epoch: 1000
next table: 2116
cur table: 2046
epoch: 1000
next table: 2075
cur table: 2116
epoch: 1000
next table: 2322
cur table: 2135
epoch: 1000
next table: 2071
cur table: 2075
epoch: 1000
next table: 2118
cur table: 2071
epoch: 1000
next table: 2463
cur table: 2322
epoch: 1000
next table: 2040
cur table: 2118
epoch: 1000
next table: 2032
cur table: 2040
epoch: 1000
next table: 2017
cur table: 2032
epoch: 1000
next table: 2620
cur table: 2463
epoch: 1000
next table: 2016
cur table: 2017
epoch: 1000
next table: 2020
cur table: 2016
epoch: 1000
next table: 2668
cur table: 2620
epoch: 1000
next table: 1995
cur table: 2020
epoch: 1000
next table: 2049
cur table: 1995
epoch: 1000
next table: 2136
cur table: 2049
epoch: 1000
next table: 2408
cur table: 2668
epoch: 1000
next table: 3413
cur table: 2136
epoch: 1000
next table: 2022
cur table: 3413
epoch: 1000
next table: 2238
cur table: 2408
epoch: 1000
next table: 2126
cur table: 2022
epoch: 1000
next table: 2105
cur table: 2126
epoch: 1000
next table: 2074
cur table: 2105
epoch: 1000
next table: 2289
cur table: 2238
epoch: 1000
next table: 2043
cur table: 2074
epoch: 1000
next table: 2018
cur table: 2043
epoch: 1000
next table: 2392
cur table: 2289
epoch: 1000
next table: 2027
cur table: 2018
epoch: 1000
next table: 2020
cur table: 2027
epoch: 1000
next table: 2001
cur table: 2020
epoch: 1000
next table: 2518
cur table: 2392
epoch: 1000
next table: 1966
cur table: 2001
epoch: 1000
next table: 1999
cur table: 1966
epoch: 1000
next table: 2638
cur table: 2518
epoch: 1000
next table: 2003
cur table: 1999
epoch: 1000
next table: 2027
cur table: 2003
epoch: 1000
next table: 2329
cur table: 2027
epoch: 1000
next table: 2377
cur table: 2638
epoch: 1000
next table: 3218
cur table: 2329
epoch: 1000
next table: 2089
cur table: 3218
epoch: 1000
next table: 2188
cur table: 2377
epoch: 1000
next table: 2126
cur table: 2089
epoch: 1000
next table: 2089
cur table: 2126
epoch: 1000
next table: 2370
cur table: 2188
epoch: 1000
next table: 2070
cur table: 2089
epoch: 1000
next table: 2040
cur table: 2070
epoch: 1000
next table: 2058
cur table: 2040
epoch: 1000
next table: 2551
cur table: 2370
epoch: 1000
next table: 2000
cur table: 2058
epoch: 1000
next table: 1986
cur table: 2000
epoch: 1000
next table: 1964
cur table: 1986
epoch: 1000
next table: 2608
cur table: 2551
epoch: 1000
next table: 1984
cur table: 1964
epoch: 1000
next table: 1941
cur table: 1984
epoch: 1000
next table: 2563
cur table: 2608
epoch: 1000
next table: 1998
cur table: 1941
epoch: 1000
next table: 1819
cur table: 1998
epoch: 1000
next table: 3795
cur table: 1819
epoch: 1000
next table: 2297
cur table: 2563
epoch: 1000
next table: 1984
cur table: 3795
epoch: 1000
next table: 2078
cur table: 1984
epoch: 1000
next table: 2177
cur table: 2297
epoch: 1000
next table: 2053
cur table: 2078
epoch: 1000
next table: 2021
cur table: 2053
epoch: 1000
next table: 2048
cur table: 2021
epoch: 1000
next table: 2329
cur table: 2177
epoch: 1000
next table: 2010
cur table: 2048
epoch: 1000
next table: 1965
cur table: 2010
epoch: 1000
next table: 2475
cur table: 2329
epoch: 1000
next table: 1986
cur table: 1965
epoch: 1000
next table: 1965
cur table: 1986
epoch: 1000
next table: 1978
cur table: 1965
epoch: 1000
next table: 2562
cur table: 2475
epoch: 1000
next table: 2014
cur table: 1978
epoch: 1000
next table: 1975
cur table: 2014
epoch: 1000
next table: 2579
cur table: 2562
epoch: 1000
next table: 2067
cur table: 1975
epoch: 1000
next table: 2128
cur table: 2067
epoch: 1000
next table: 3444
cur table: 2128
epoch: 1000
next table: 2220
cur table: 2579
epoch: 1000
next table: 2047
cur table: 3444
epoch: 1000
next table: 2148
cur table: 2047
epoch: 1000
next table: 2187
cur table: 2220
epoch: 1000
next table: 2115
cur table: 2148
epoch: 1000
next table: 2057
cur table: 2115
epoch: 1000
next table: 2367
cur table: 2187
epoch: 1000
next table: 2104
cur table: 2057
epoch: 1000
next table: 2039
cur table: 2104
epoch: 1000
next table: 2001
cur table: 2039
epoch: 1000
next table: 2422
cur table: 2367
epoch: 1000
next table: 2029
cur table: 2001
epoch: 1000
next table: 2006
cur table: 2029
epoch: 1000
next table: 2722
cur table: 2422
epoch: 1000
next table: 1999
cur table: 2006
epoch: 1000
next table: 2000
cur table: 1999
epoch: 1000
next table: 2012
cur table: 2000
epoch: 1000
next table: 2515
cur table: 2722
epoch: 1000
next table: 2010
cur table: 2012
epoch: 1000
next table: 2253
cur table: 2010
epoch: 1000
next table: 2158
cur table: 2515
epoch: 1000
next table: 2973
cur table: 2253
epoch: 1000
next table: 2056
cur table: 2973
epoch: 1000
next table: 2110
cur table: 2056
epoch: 1000
next table: 2218
cur table: 2158
epoch: 1000
next table: 2062
cur table: 2110
epoch: 1000
next table: 2075
cur table: 2062
epoch: 1000
next table: 2366
cur table: 2218
epoch: 1000
next table: 2071
cur table: 2075
epoch: 1000
next table: 2012
cur table: 2071
epoch: 1000
next table: 2004
cur table: 2012
epoch: 1000
next table: 2476
cur table: 2366
epoch: 1000
next table: 1996
cur table: 2004
epoch: 1000
next table: 2016
cur table: 1996
epoch: 1000
next table: 2630
cur table: 2476
epoch: 1000
next table: 2023
cur table: 2016
epoch: 1000
next table: 1985
cur table: 2023
epoch: 1000
next table: 2022
cur table: 1985
epoch: 1000
next table: 2618
cur table: 2630
epoch: 1000
next table: 1861
cur table: 2022
epoch: 1000
next table: 3400
cur table: 1861
epoch: 1000
next table: 2184
cur table: 2618
epoch: 1000
next table: 2098
cur table: 3400
epoch: 1000
next table: 2073
cur table: 2098
epoch: 1000
next table: 2097
cur table: 2073
epoch: 1000
next table: 2238
cur table: 2184
epoch: 1000
next table: 2056
cur table: 2097
epoch: 1000
next table: 2048
cur table: 2056
epoch: 1000
next table: 2301
cur table: 2238
epoch: 1000
next table: 2015
cur table: 2048
epoch: 1000
next table: 2057
cur table: 2015
epoch: 1000
next table: 2531
cur table: 2301
epoch: 1000
next table: 1988
cur table: 2057
epoch: 1000
next table: 2024
cur table: 1988
epoch: 1000
next table: 1974
cur table: 2024
epoch: 1000
next table: 2661
cur table: 2531
epoch: 1000
next table: 1990
cur table: 1974
epoch: 1000
[...]
epoch: 1000
next table: 2038
cur table: 2080
epoch: 1000
next table: 2243
cur table: 2044
epoch: 1000
next table: 2051
cur table: 2038
epoch: 1000
next table: 2060
cur table: 2051
epoch: 1000
next table: 2363
cur table: 2243
epoch: 1000
next table: 1994
cur table: 2060
epoch: 1000
next table: 2019
cur table: 1994
epoch: 1000
next table: 1961
cur table: 2019
epoch: 1000
next table: 2303
cur table: 2363
epoch: 1000
next table: 2010
cur table: 1961
epoch: 1000
next table: 2009
cur table: 2010
epoch: 1000
next table: 2370
cur table: 2303
epoch: 1000
next table: 2040
cur table: 2009
epoch: 1000
next table: 2340
cur table: 2040
epoch: 1000
next table: 3037
cur table: 2340
epoch: 1000
next table: 2475
cur table: 2370
epoch: 1000
next table: 2029
cur table: 3037
epoch: 1000
next table: 2158
cur table: 2029
epoch: 1000
next table: 2113
cur table: 2475
epoch: 1000
next table: 2136
cur table: 2158
epoch: 1000
next table: 2076
cur table: 2136
epoch: 1000
next table: 2057
cur table: 2076
epoch: 1000
next table: 2283
cur table: 2113
epoch: 1000
next table: 2028
cur table: 2057
epoch: 1000
next table: 1991
cur table: 2028
epoch: 1000
next table: 2322
cur table: 2283
epoch: 1000
next table: 1994
cur table: 1991
epoch: 1000
next table: 2035
cur table: 1994
epoch: 1000
next table: 1992
cur table: 2035
epoch: 1000
next table: 2406
cur table: 2322
epoch: 1000
next table: 1987
cur table: 1992
epoch: 1000
next table: 2016
cur table: 1987
epoch: 1000
next table: 2355
cur table: 2406
epoch: 1000
next table: 1843
cur table: 2016
epoch: 1000
next table: 3328
cur table: 1843
epoch: 1000
next table: 2032
cur table: 3328
epoch: 1000
next table: 2236
cur table: 2355
epoch: 1000
next table: 2134
cur table: 2032
epoch: 1000
next table: 2134
cur table: 2134
epoch: 1000
next table: 2252
cur table: 2236
epoch: 1000
next table: 2068
cur table: 2134
epoch: 1000
next table: 2070
cur table: 2068
epoch: 1000
next table: 2050
cur table: 2070
epoch: 1000
next table: 2321
cur table: 2252
epoch: 1000
next table: 2013
cur table: 2050
epoch: 1000
next table: 2064
cur table: 2013
epoch: 1000
next table: 2389
cur table: 2321
epoch: 1000
next table: 1979
cur table: 2064
epoch: 1000
next table: 1977
cur table: 1979
epoch: 1000
next table: 2045
cur table: 1977
epoch: 1000
next table: 2387
cur table: 2389
epoch: 1000
next table: 2040
cur table: 2045
epoch: 1000
next table: 1948
cur table: 2040
epoch: 1000
next table: 2905
cur table: 1948
epoch: 1000
next table: 2293
cur table: 2387
epoch: 1000
next table: 2407
cur table: 2905
epoch: 1000
next table: 1981
cur table: 2407
epoch: 1000
next table: 2262
cur table: 2293
epoch: 1000
next table: 2083
cur table: 1981
epoch: 1000
next table: 2029
cur table: 2083
epoch: 1000
next table: 1983
cur table: 2029
epoch: 1000
next table: 2225
cur table: 2262
epoch: 1000
next table: 2025
cur table: 1983
epoch: 1000
next table: 1959
cur table: 2025
epoch: 1000
next table: 2283
cur table: 2225
epoch: 1000
next table: 1954
cur table: 1959
epoch: 1000
next table: 1972
cur table: 1954
epoch: 1000
next table: 2005
cur table: 1972
epoch: 1000
next table: 2331
cur table: 2283
epoch: 1000
next table: 1964
cur table: 2005
epoch: 1000
next table: 1969
cur table: 1964
epoch: 1000
next table: 2327
cur table: 2331
epoch: 1000
next table: 2000
cur table: 1969
epoch: 1000
next table: 1961
cur table: 2000
Heartbeat CPU 0 instructions: 100000001 cycles: 193413555 heartbeat IPC: 0.283502 cumulative IPC: 0.282792 (Simulation time: 1 hr 8 min 4 sec) 
Finished CPU 0 instructions: 50000000 cycles: 176808263 cumulative IPC: 0.282792 (Simulation time: 1 hr 8 min 4 sec) 

ChampSim completed all CPUs

Region of Interest Statistics

CPU 0 cumulative IPC: 0.282792 instructions: 50000000 cycles: 176808263
ITLB TOTAL     ACCESS:    8878964  HIT:    8878964  MISS:          0  HIT %:        100  MISS %:          0   MPKI: 0
ITLB LOAD TRANSLATION ACCESS:    8878964  HIT:    8878964  MISS:          0  HIT %:        100  MISS %:          0   MPKI: 0
ITLB PREFETCH  REQUESTED:          0  ISSUED:          0  USEFUL:          0  USELESS:          0
ITLB USEFUL LOAD PREFETCHES:          0 PREFETCH ISSUED TO LOWER LEVEL:          0  ACCURACY: -nan
ITLB TIMELY PREFETCHES:          0 LATE PREFETCHES: 0 DROPPED PREFETCHES: 0
ITLB PREFETCHES SAME FILL-ORIGIN LEVEL: 0 DIFFERENT FILL-ORIGIN LEVEL: 0
ITLB AVERAGE MISS LATENCY: -nan cycles
ITLB RQ	ACCESS:    9293549	FORWARD:          0	MERGED:     414585	TO_CACHE:    8878964

Revised Interactions: positive negative neutral
ITLB_interactions 0 0 0 -nan -nan -nan
DTLB TOTAL     ACCESS:   14774126  HIT:   13429821  MISS:    1344305  HIT %:     90.901  MISS %:    9.09905   MPKI: 26.8861
DTLB LOAD TRANSLATION ACCESS:   14774126  HIT:   13429821  MISS:    1344305  HIT %:     90.901  MISS %:    9.09905   MPKI: 26.8861
DTLB PREFETCH  REQUESTED:          0  ISSUED:          0  USEFUL:          0  USELESS:          0
DTLB USEFUL LOAD PREFETCHES:          0 PREFETCH ISSUED TO LOWER LEVEL:          0  ACCURACY: -nan
DTLB TIMELY PREFETCHES:          0 LATE PREFETCHES: 0 DROPPED PREFETCHES: 0
DTLB PREFETCHES SAME FILL-ORIGIN LEVEL: 0 DIFFERENT FILL-ORIGIN LEVEL: 0
DTLB AVERAGE MISS LATENCY: 10.7116 cycles
DTLB RQ	ACCESS:   18049284	FORWARD:          0	MERGED:    3166911	TO_CACHE:   14882373

Revised Interactions: positive negative neutral
DTLB_interactions 0 0 0 -nan -nan -nan
STLB TOTAL     ACCESS:    1344305  HIT:    1327598  MISS:      16707  HIT %:    98.7572  MISS %:     1.2428   MPKI: 0.33414
STLB LOAD TRANSLATION ACCESS:    1344305  HIT:    1327598  MISS:      16707  HIT %:    98.7572  MISS %:     1.2428   MPKI: 0.33414
STLB PREFETCH  REQUESTED:          0  ISSUED:          0  USEFUL:          0  USELESS:          0
STLB USEFUL LOAD PREFETCHES:          0 PREFETCH ISSUED TO LOWER LEVEL:          0  ACCURACY: -nan
STLB TIMELY PREFETCHES:          0 LATE PREFETCHES: 0 DROPPED PREFETCHES: 0
STLB PREFETCHES SAME FILL-ORIGIN LEVEL: 0 DIFFERENT FILL-ORIGIN LEVEL: 0
STLB AVERAGE MISS LATENCY: 118.163 cycles
STLB RQ	ACCESS:    1344305	FORWARD:          0	MERGED:          0	TO_CACHE:    1344305

Revised Interactions: positive negative neutral
STLB_interactions 0 0 0 -nan -nan -nan
STLB Hit, L1D data hit: 0
STLB Hit, L2C data hit: 0
STLB Hit, LLC data hit: 0
STLB Hit, LLC data miss: 0
STLB STLB hints to L2: 0
L1D TOTAL     ACCESS:   17727515  HIT:   15067992  MISS:    2659523  HIT %:    84.9978  MISS %:    15.0022   MPKI: 53.1905
L1D LOAD      ACCESS:   12933494  HIT:   10447957  MISS:    2485537  HIT %:    80.7822  MISS %:    19.2178   MPKI: 49.7107
L1D RFO       ACCESS:    4794021  HIT:    4620035  MISS:     173986  HIT %:    96.3708  MISS %:    3.62923   MPKI: 3.47972
L1D PREFETCH  REQUESTED:          0  ISSUED:          0  USEFUL:          0  USELESS:          0
L1D USEFUL LOAD PREFETCHES:          0 PREFETCH ISSUED TO LOWER LEVEL:          0  ACCURACY: -nan
L1D TIMELY PREFETCHES:          0 LATE PREFETCHES: 0 DROPPED PREFETCHES: 0
L1D PREFETCHES SAME FILL-ORIGIN LEVEL: 0 DIFFERENT FILL-ORIGIN LEVEL: 0
L1D AVERAGE MISS LATENCY: 35.3131 cycles
L1D RQ	ACCESS:   17092876	FORWARD:          0	MERGED:    3647577	TO_CACHE:   12958248
L1D WQ	ACCESS:    5115293	FORWARD:     487051	MERGED:      24257	TO_CACHE:    5091036

Revised Interactions: positive negative neutral
L1D_interactions 0 0 0 -nan -nan -nan
L1D UNIQUE REGIONS ACCESSED: 0
L1D REGIONS CONFLICTS: 0
L1D Cross Page Prefetch Requests: 0
L1D Same Page Prefetch Requests: 0
L1D ROI Sum of L1D PQ occupancy: 0
L1D PREFETCHES PUSHED FROM L2C: 0
L1I TOTAL     ACCESS:    9293549  HIT:    9293549  MISS:          0  HIT %:        100  MISS %:          0   MPKI: 0
L1I LOAD      ACCESS:    9293549  HIT:    9293549  MISS:          0  HIT %:        100  MISS %:          0   MPKI: 0
L1I PREFETCH  REQUESTED:          0  ISSUED:          0  USEFUL:          0  USELESS:          0
L1I USEFUL LOAD PREFETCHES:          0 PREFETCH ISSUED TO LOWER LEVEL:          0  ACCURACY: -nan
L1I TIMELY PREFETCHES:          0 LATE PREFETCHES: 0 DROPPED PREFETCHES: 0
L1I PREFETCHES SAME FILL-ORIGIN LEVEL: 0 DIFFERENT FILL-ORIGIN LEVEL: 0
L1I AVERAGE MISS LATENCY: -nan cycles
L1I RQ	ACCESS:   14374653	FORWARD:          0	MERGED:    5081104	TO_CACHE:    9293549

Revised Interactions: positive negative neutral
L1I_interactions 0 0 0 -nan -nan -nan
BTB TOTAL     ACCESS:   11925168  HIT:   11434425  MISS:     490743  HIT %:    95.8848  MISS %:    4.11519   MPKI: 9.81486
BTB BRANCH_DIRECT_JUMP	ACCESS:    1334802  HIT:    1334766  MISS:         36
BTB BRANCH_INDIRECT	ACCESS:          0  HIT:          0  MISS:          0
BTB BRANCH_CONDITIONAL	ACCESS:    8291483  HIT:    8291408  MISS:         75
BTB BRANCH_DIRECT_CALL	ACCESS:    1079832  HIT:    1079814  MISS:         18
BTB BRANCH_INDIRECT_CALL	ACCESS:      69608  HIT:      69600  MISS:          8
BTB BRANCH_RETURN	ACCESS:    1149443  HIT:     658837  MISS:     490606
BTB BRANCH_OTHER ACCESS:          0  HIT:          0  MISS:          0

L2C TOTAL     ACCESS:    4635177  HIT:    2208715  MISS:    2426462  HIT %:    47.6511  MISS %:    52.3489   MPKI: 48.5292
L2C LOAD      ACCESS:    2485531  HIT:    1236091  MISS:    1249440  HIT %:    49.7315  MISS %:    50.2685   MPKI: 24.9888
L2C DATA LOAD MPKI: 24.9888
L2C INSTRUCTION LOAD MPKI: 0
L2C RFO       ACCESS:     173984  HIT:     139813  MISS:      34171  HIT %:    80.3597  MISS %:    19.6403   MPKI: 0.68342
L2C PREFETCH  ACCESS:    1715303  HIT:     606535  MISS:    1108768  HIT %:    35.3602  MISS %:    64.6398   MPKI: 22.1754
L2C DATA PREFETCH MPKI: 22.1754
L2C INSTRUCTION PREFETCH MPKI: 0
L2C WRITEBACK ACCESS:     243574  HIT:     215829  MISS:      27745  HIT %:    88.6092  MISS %:    11.3908   MPKI: 0.5549
L2C LOAD TRANSLATION ACCESS:      16785  HIT:      10447  MISS:       6338  HIT %:    62.2401  MISS %:    37.7599   MPKI: 0.12676
L2C PREFETCH  REQUESTED:    1804942  ISSUED:    1804942  USEFUL:     721937  USELESS:     386779
L2C USEFUL LOAD PREFETCHES:     721937 PREFETCH ISSUED TO LOWER LEVEL:    1155956  ACCURACY: 62.4537
L2C TIMELY PREFETCHES:     721937 LATE PREFETCHES: 47188 DROPPED PREFETCHES: 0
L2C PREFETCHES SAME FILL-ORIGIN LEVEL: 1155956 DIFFERENT FILL-ORIGIN LEVEL: 0
L2C AVERAGE MISS LATENCY: 89.9868 cycles
L2C RQ	ACCESS:    2676308	FORWARD:          0	MERGED:          0	TO_CACHE:    2676300
L2C WQ	ACCESS:     243574	FORWARD:         11	MERGED:          0	TO_CACHE:     243574
L2C PQ	ACCESS:    1804942	FORWARD:          0	MERGED:        163	TO_CACHE:    1804776

Revised Interactions: positive negative neutral
L2C_interactions 728467 377749 171226 57.0254 29.5707 13.4038
L2C Instructions Evicting Data 0
L2C Translations Evicting Data 6317
L2C Data Evicting Data 2386149
L2C Instructions Evicting Instructions 0
L2C Translations Evicting Instructions 0
L2C Data Evicting Instructions 0
L2C Instructions Evicting Translations 0
L2C Translations Evicting Translations 21
L2C Data Evicting Translations 6230
L2C Dense regions hint from L2: 0
PSCL5 TOTAL     ACCESS:      16707  HIT:      16707  MISS:          0  HIT %:        100  MISS %:          0   MPKI: 0
PSCL5 LOAD TRANSLATION ACCESS:      16707  HIT:      16707  MISS:          0  HIT %:        100  MISS %:          0   MPKI: 0
PSCL5 PREFETCH  REQUESTED:          0  ISSUED:          0  USEFUL:          0  USELESS:          0
PSCL5 USEFUL LOAD PREFETCHES:          0 PREFETCH ISSUED TO LOWER LEVEL:          0  ACCURACY: -nan
PSCL5 TIMELY PREFETCHES:          0 LATE PREFETCHES: 0 DROPPED PREFETCHES: 0
PSCL5 PREFETCHES SAME FILL-ORIGIN LEVEL: 0 DIFFERENT FILL-ORIGIN LEVEL: 0

Revised Interactions: positive negative neutral
PSCL5_interactions 0 0 0 -nan -nan -nan
PSCL4 TOTAL     ACCESS:      16707  HIT:      16707  MISS:          0  HIT %:        100  MISS %:          0   MPKI: 0
PSCL4 LOAD TRANSLATION ACCESS:      16707  HIT:      16707  MISS:          0  HIT %:        100  MISS %:          0   MPKI: 0
PSCL4 PREFETCH  REQUESTED:          0  ISSUED:          0  USEFUL:          0  USELESS:          0
PSCL4 USEFUL LOAD PREFETCHES:          0 PREFETCH ISSUED TO LOWER LEVEL:          0  ACCURACY: -nan
PSCL4 TIMELY PREFETCHES:          0 LATE PREFETCHES: 0 DROPPED PREFETCHES: 0
PSCL4 PREFETCHES SAME FILL-ORIGIN LEVEL: 0 DIFFERENT FILL-ORIGIN LEVEL: 0

Revised Interactions: positive negative neutral
PSCL4_interactions 0 0 0 -nan -nan -nan
PSCL3 TOTAL     ACCESS:      16707  HIT:      16707  MISS:          0  HIT %:        100  MISS %:          0   MPKI: 0
PSCL3 LOAD TRANSLATION ACCESS:      16707  HIT:      16707  MISS:          0  HIT %:        100  MISS %:          0   MPKI: 0
PSCL3 PREFETCH  REQUESTED:          0  ISSUED:          0  USEFUL:          0  USELESS:          0
PSCL3 USEFUL LOAD PREFETCHES:          0 PREFETCH ISSUED TO LOWER LEVEL:          0  ACCURACY: -nan
PSCL3 TIMELY PREFETCHES:          0 LATE PREFETCHES: 0 DROPPED PREFETCHES: 0
PSCL3 PREFETCHES SAME FILL-ORIGIN LEVEL: 0 DIFFERENT FILL-ORIGIN LEVEL: 0

Revised Interactions: positive negative neutral
PSCL3_interactions 0 0 0 -nan -nan -nan
PSCL2 TOTAL     ACCESS:      16707  HIT:      16532  MISS:        175  HIT %:    98.9525  MISS %:    1.04747   MPKI: 0.0035
PSCL2 LOAD TRANSLATION ACCESS:      16707  HIT:      16532  MISS:        175  HIT %:    98.9525  MISS %:    1.04747   MPKI: 0.0035
PSCL2 PREFETCH  REQUESTED:          0  ISSUED:          0  USEFUL:          0  USELESS:          0
PSCL2 USEFUL LOAD PREFETCHES:          0 PREFETCH ISSUED TO LOWER LEVEL:          0  ACCURACY: -nan
PSCL2 TIMELY PREFETCHES:          0 LATE PREFETCHES: 0 DROPPED PREFETCHES: 0
PSCL2 PREFETCHES SAME FILL-ORIGIN LEVEL: 0 DIFFERENT FILL-ORIGIN LEVEL: 0

Revised Interactions: positive negative neutral
PSCL2_interactions 0 0 0 -nan -nan -nan
LLC TOTAL     ACCESS:    2514736  HIT:    1561640  MISS:     953096  HIT %:    62.0996  MISS %:    37.9004   MPKI: 19.0619
LLC LOAD      ACCESS:    1202251  HIT:    1122289  MISS:      79962  HIT %:     93.349  MISS %:    6.65102   MPKI: 1.59924
LLC RFO       ACCESS:      34171  HIT:      33785  MISS:        386  HIT %:    98.8704  MISS %:    1.12961   MPKI: 0.00772
LLC PREFETCH  ACCESS:    1155949  HIT:     286603  MISS:     869346  HIT %:    24.7937  MISS %:    75.2063   MPKI: 17.3869
LLC WRITEBACK ACCESS:     116027  HIT:     114714  MISS:       1313  HIT %:    98.8684  MISS %:    1.13163   MPKI: 0.02626
LLC LOAD TRANSLATION ACCESS:       6338  HIT:       4249  MISS:       2089  HIT %:    67.0401  MISS %:    32.9599   MPKI: 0.04178
LLC PREFETCH  REQUESTED:          0  ISSUED:          0  USEFUL:       2468  USELESS:     866406
LLC USEFUL LOAD PREFETCHES:       2468 PREFETCH ISSUED TO LOWER LEVEL:     869346  ACCURACY: 0.283892
LLC TIMELY PREFETCHES:       2468 LATE PREFETCHES: 0 DROPPED PREFETCHES: 0
LLC PREFETCHES SAME FILL-ORIGIN LEVEL: 0 DIFFERENT FILL-ORIGIN LEVEL: 0
LLC AVERAGE MISS LATENCY: 154.791 cycles
LLC RQ	ACCESS:    1242761	FORWARD:          0	MERGED:          0	TO_CACHE:    1242760
LLC WQ	ACCESS:     116027	FORWARD:          8	MERGED:          0	TO_CACHE:     116027
LLC PQ	ACCESS:    1155956	FORWARD:          0	MERGED:          0	TO_CACHE:    1155949

Revised Interactions: positive negative neutral
LLC_interactions 2918 865787 47657 0.318433 94.4809 5.20067
LLC Dense regions hint to LLC: 0

RAW hits: 639059
Loads Generated: 17731939
Loads sent to L1D: 17092876
Stores Generated: 5115295
Stores sent to L1D: 5115293
Major fault: 0 Minor fault: 24460
Allocated PAGES: 24460
[Bingo] PHT Access: 1273185
[Bingo] PHT Hit PC+Addr: 172194
[Bingo] PHT Hit PC+Offs: 1099663
[Bingo] PHT Miss: 1328
[Bingo] Prefetch PC+Addr: 0
[Bingo] Prefetch PC+Offs: 0
[Bingo] Useful PC+Addr: 0
[Bingo] Useful PC+Offs: 0
[Bingo] Useless PC+Addr: 0
[Bingo] Useless PC+Offs: 0
[Bingo] L1 Prefetch per Region: 0
[Bingo] L2 Prefetch per Region: 2.43605
[Bingo] L3 Prefetch per Region: 0
[Bingo] No Prefetch per Region: 29.564
[Bingo] Number of Voters Mean: 15.8169
[Bingo] Number of Voters SD: 15.3691
PHT read accesses: 18979231
PHT write accesses: 217385
AT read accesses: 1400189
AT write accesses: 1429436
FT read accesses: 842173
FT write accesses: 1273185
PS read accesses: 2630562
PS write accesses: 1271857
PHT tag read accesses: 24471755
PHT tag write accesses: 389579
AT tag read accesses: 87179933
AT tag write accesses: 1617596
FT tag read accesses: 103665545
FT tag write accesses: 1897634
PS tag read accesses: 83021624
PS tag write accesses: 3894611

DRAM Statistics
 CHANNEL 0
 RQ ROW_BUFFER_HIT:     659786  ROW_BUFFER_MISS:     291997
 DBUS_CONGESTED:         25
 WQ ROW_BUFFER_HIT:        294  ROW_BUFFER_MISS:       2427  FULL:          0

 AVG_CONGESTED_CYCLE: 4
 All warmup complete: 2
Channel 0 Bank busy for read cycles: 0
Channel 0 Bank busy for write cycles: 0
Channel 0
Rank 0
0banks busy for read cycles: 148067914
0banks busy for write cycles: 2493
1banks busy for read cycles: 15015844
1banks busy for write cycles: 447274
2banks busy for read cycles: 4360029
2banks busy for write cycles: 31398
3banks busy for read cycles: 1788876
3banks busy for write cycles: 2626
4banks busy for read cycles: 1103716
4banks busy for write cycles: 472
5banks busy for read cycles: 781129
5banks busy for write cycles: 146
6banks busy for read cycles: 554776
6banks busy for write cycles: 0
7banks busy for read cycles: 1146397
7banks busy for write cycles: 0
8banks busy for read cycles: 3505174
8banks busy for write cycles: 0

CPU 0 Branch Prediction Accuracy: 90.2682% MPKI: 24.3487 Average ROB Occupancy at Mispredict: 14.7246
Branch types
NOT_BRANCH: 37489794 74.9796%
BRANCH_DIRECT_JUMP: 1334802 2.6696%
BRANCH_INDIRECT: 0 0%
BRANCH_CONDITIONAL: 8876182 17.7524%
BRANCH_DIRECT_CALL: 1079832 2.15966%
BRANCH_INDIRECT_CALL: 69608 0.139216%
BRANCH_RETURN: 1149443 2.29889%
BRANCH_OTHER: 0 0%

@sumon_overall_L1D         0         0         0         0         0         0         0
@Sumon_Early_by_class_L1D         0         0         0         0
@Sumon_Late_by_class_L1D         0         0         0         0

@Sumon_Early_by_cycle_L1D         0         0         0         0         0         0         0         0         0         0         0         0
@Sumon_Late_by_cycle_L1D         0         0         0         0         0         0
@Sumon_Early_stream_L1D         0         0         0         0         0         0         0         0         0         0         0         0
@Sumon_Early_CS_L1D         0         0         0         0         0         0         0         0         0         0         0         0
@Sumon_Early_CPLX_L1D         0         0         0         0         0         0         0         0         0         0         0         0
@Sumon_Late_stream_L1D         0         0         0         0         0         0
@Sumon_Late_CS_L1D         0         0         0         0         0         0
@Sumon_Late_CPLX_L1D         0         0         0         0         0         0
@sumon_overall_L2C    721937     47188         0    386779   1108768   1804942   1804942
@Sumon_Early_by_class_L2C         0         0         0         0
@Sumon_Late_by_class_L2C         0         0         0         0

@Sumon_Early_by_cycle_L2C     16993     49872    100185     96245     91316    292475     27914      4411      6858     15642      6244     13782
@Sumon_Late_by_cycle_L2C      3546      6143      6064     16621     14811         3
@Sumon_Early_stream_L2C         0         0         0         0         0         0         0         0         0         0         0         0
@Sumon_Early_CS_L2C         0         0         0         0         0         0         0         0         0         0         0         0
@Sumon_Early_CPLX_L2C         0         0         0         0         0         0         0         0         0         0         0         0
@Sumon_Late_stream_L2C         0         0         0         0         0         0
@Sumon_Late_CS_L2C         0         0         0         0         0         0
@Sumon_Late_CPLX_L2C         0         0         0         0         0         0
DRAM PAGES: 1048576
Allocated PAGES: 24460
