
*** ChampSim Multicore Out-of-Order Simulator ***

Warmup Instructions: 50000000
Simulation Instructions: 50000000
Number of CPUs: 1
LLC sets: 2048
LLC ways: 16
Off-chip DRAM Size: 4096 MB Channels: 1 Width: 64-bit Data Rate: 6400 MT/s
CPU 0 runs ../../biswa/SPEC2017Traces/607.cactuBSSN_s-2421B.champsimtrace.xz
.xz
CPU 0 Bimodal branch predictor
BTB has LRU replacement policy
ITLB has LRU replacement policy
DTLB has LRU replacement policy
STLB has LRU replacement policy
L1I has LRU replacement policy
L1D has LRU replacement policy
Bingo PHT WAYS: 16 and PHT_SIZE: 16384
Initialize DRRIP state for L2C
Initialize SRRIP state
epoch: 1000
next table: 21949
cur table: 72211
epoch: 1000
next table: 24450
cur table: 21949
epoch: 1000
next table: 22829
cur table: 24450
epoch: 1000
next table: 24758
cur table: 22829
epoch: 1000
next table: 20076
cur table: 24758
epoch: 1000
next table: 23695
cur table: 20076
epoch: 1000
next table: 23220
cur table: 23695
epoch: 1000
next table: 23394
cur table: 23220
epoch: 1000
next table: 17972
cur table: 23394
epoch: 1000
next table: 19833
cur table: 17972
epoch: 1000
next table: 17129
cur table: 19833
epoch: 1000
next table: 20843
cur table: 17129
epoch: 1000
next table: 24936
cur table: 20843
epoch: 1000
next table: 17251
cur table: 24936
epoch: 1000
next table: 21544
cur table: 17251
epoch: 1000
next table: 22487
cur table: 21544
epoch: 1000
next table: 20207
cur table: 22487
epoch: 1000
next table: 16521
cur table: 20207
epoch: 1000
next table: 22347
cur table: 16521
epoch: 1000
next table: 24484
cur table: 22347
epoch: 1000
next table: 20855
cur table: 24484
epoch: 1000
next table: 22737
cur table: 20855
epoch: 1000
next table: 16347
cur table: 22737
epoch: 1000
next table: 18318
cur table: 16347
epoch: 1000
next table: 21657
cur table: 18318
epoch: 1000
next table: 18706
cur table: 21657
epoch: 1000
next table: 23156
cur table: 18706
epoch: 1000
next table: 15150
cur table: 23156
epoch: 1000
next table: 20377
cur table: 15150
epoch: 1000
next table: 21181
cur table: 20377
epoch: 1000
next table: 20863
cur table: 21181
epoch: 1000
next table: 16417
cur table: 20863
epoch: 1000
next table: 15390
cur table: 16417
epoch: 1000
next table: 26595
cur table: 15390
epoch: 1000
next table: 18857
cur table: 26595
epoch: 1000
next table: 18973
cur table: 18857
epoch: 1000
next table: 19158
cur table: 18973
epoch: 1000
next table: 18193
cur table: 19158
epoch: 1000
next table: 17952
cur table: 18193
epoch: 1000
next table: 17988
cur table: 17952
epoch: 1000
next table: 19614
cur table: 17988
epoch: 1000
next table: 20628
cur table: 19614
epoch: 1000
next table: 13674
cur table: 20628
epoch: 1000
next table: 22293
cur table: 13674
epoch: 1000
next table: 20696
cur table: 22293
epoch: 1000
next table: 20264
cur table: 20696
epoch: 1000
next table: 17986
cur table: 20264
epoch: 1000
next table: 16272
cur table: 17986
epoch: 1000
next table: 5851
cur table: 38468
Heartbeat CPU 0 instructions: 10000002 cycles: 3587566 heartbeat IPC: 2.78741 cumulative IPC: 2.78741 (Simulation time: 0 hr 6 min 33 sec) 
epoch: 1000
next table: 11408
cur table: 16272
epoch: 1000
next table: 19473
cur table: 11408
epoch: 1000
next table: 18891
cur table: 19473
epoch: 1000
next table: 3464
cur table: 5851
epoch: 1000
next table: 20575
cur table: 18891
epoch: 1000
next table: 17499
cur table: 20575
epoch: 1000
next table: 20219
cur table: 17499
epoch: 1000
next table: 3114
cur table: 3464
epoch: 1000
next table: 17241
cur table: 20219
epoch: 1000
next table: 20205
cur table: 17241
epoch: 1000
next table: 25962
cur table: 20205
epoch: 1000
next table: 2545
cur table: 3114
epoch: 1000
next table: 16441
cur table: 25962
epoch: 1000
next table: 23218
cur table: 16441
epoch: 1000
next table: 2353
cur table: 2545
epoch: 1000
next table: 25850
cur table: 23218
epoch: 1000
next table: 2222
cur table: 2353
epoch: 1000
next table: 23658
cur table: 25850
epoch: 1000
next table: 17800
cur table: 23658
epoch: 1000
next table: 2248
cur table: 2222
epoch: 1000
next table: 25362
cur table: 17800
epoch: 1000
next table: 22966
cur table: 25362
epoch: 1000
next table: 2227
cur table: 2248
epoch: 1000
next table: 22633
cur table: 22966
epoch: 1000
next table: 22575
cur table: 22633
epoch: 1000
next table: 2214
cur table: 2227
epoch: 1000
next table: 19738
cur table: 22575
epoch: 1000
next table: 18710
cur table: 19738
epoch: 1000
next table: 2312
cur table: 2214
epoch: 1000
next table: 22555
cur table: 18710
epoch: 1000
next table: 23080
cur table: 22555
epoch: 1000
next table: 2187
cur table: 2312
epoch: 1000
next table: 15338
cur table: 23080
epoch: 1000
next table: 2122
cur table: 2187
epoch: 1000
next table: 22712
cur table: 15338
epoch: 1000
next table: 23081
cur table: 22712
epoch: 1000
next table: 2224
cur table: 2122
epoch: 1000
next table: 19607
cur table: 23081
epoch: 1000
next table: 19354
cur table: 19607
epoch: 1000
next table: 2234
cur table: 2224
epoch: 1000
next table: 17989
cur table: 19354
epoch: 1000
next table: 24571
cur table: 17989
epoch: 1000
next table: 2062
cur table: 2234
epoch: 1000
next table: 16802
cur table: 24571
epoch: 1000
next table: 22474
cur table: 16802
epoch: 1000
next table: 2201
cur table: 2062
epoch: 1000
next table: 18543
cur table: 22474
epoch: 1000
next table: 19552
cur table: 18543
epoch: 1000
next table: 2368
cur table: 2201
epoch: 1000
next table: 17071
cur table: 19552
epoch: 1000
next table: 20169
cur table: 17071
epoch: 1000
next table: 2210
cur table: 2368
epoch: 1000
next table: 23585
cur table: 20169
epoch: 1000
next table: 16485
cur table: 23585
epoch: 1000
next table: 2258
cur table: 2210
epoch: 1000
next table: 18344
cur table: 16485
epoch: 1000
next table: 22958
cur table: 18344
epoch: 1000
next table: 2237
cur table: 2258
epoch: 1000
next table: 21212
cur table: 22958
epoch: 1000
next table: 18478
cur table: 21212
epoch: 1000
next table: 2186
cur table: 2237
epoch: 1000
next table: 15742
cur table: 18478
epoch: 1000
next table: 22814
cur table: 15742
epoch: 1000
next table: 2224
cur table: 2186
epoch: 1000
next table: 20159
cur table: 22814
epoch: 1000
next table: 20747
cur table: 20159
epoch: 1000
next table: 2208
cur table: 2224
epoch: 1000
next table: 18198
cur table: 20747
epoch: 1000
next table: 17615
cur table: 18198
epoch: 1000
next table: 2261
cur table: 2208
epoch: 1000
next table: 16604
cur table: 17615
epoch: 1000
next table: 18380
cur table: 16604
epoch: 1000
next table: 2249
cur table: 2261
epoch: 1000
next table: 22591
cur table: 18380
epoch: 1000
next table: 20693
cur table: 22591
epoch: 1000
next table: 2189
cur table: 2249
epoch: 1000
next table: 15272
cur table: 20693
Heartbeat CPU 0 instructions: 20000001 cycles: 7171045 heartbeat IPC: 2.79058 cumulative IPC: 2.78899 (Simulation time: 0 hr 12 min 42 sec) 
epoch: 1000
next table: 20505
cur table: 15272
epoch: 1000
next table: 2219
cur table: 2189
epoch: 1000
next table: 22985
cur table: 20505
epoch: 1000
next table: 2224
cur table: 2219
epoch: 1000
next table: 18840
cur table: 22985
epoch: 1000
next table: 18373
cur table: 18840
epoch: 1000
next table: 2280
cur table: 2224
epoch: 1000
next table: 15901
cur table: 18373
epoch: 1000
next table: 22790
cur table: 15901
epoch: 1000
next table: 2127
cur table: 2280
epoch: 1000
next table: 18714
cur table: 22790
epoch: 1000
next table: 19203
cur table: 18714
epoch: 1000
next table: 2187
cur table: 2127
epoch: 1000
next table: 21652
cur table: 19203
epoch: 1000
next table: 19221
cur table: 21652
epoch: 1000
next table: 2319
cur table: 2187
epoch: 1000
next table: 15569
cur table: 19221
epoch: 1000
next table: 19353
cur table: 15569
epoch: 1000
next table: 2267
cur table: 2319
epoch: 1000
next table: 21052
cur table: 19353
epoch: 1000
next table: 22222
cur table: 21052
epoch: 1000
next table: 2235
cur table: 2267
epoch: 1000
next table: 15467
cur table: 22222
epoch: 1000
next table: 18578
cur table: 15467
epoch: 1000
next table: 2233
cur table: 2235
epoch: 1000
next table: 20828
cur table: 18578
epoch: 1000
next table: 20658
cur table: 20828
epoch: 1000
next table: 2273
cur table: 2233
epoch: 1000
next table: 18771
cur table: 20658
epoch: 1000
next table: 15599
cur table: 18771
epoch: 1000
next table: 2259
cur table: 2273
epoch: 1000
next table: 22961
cur table: 15599
epoch: 1000
next table: 18380
cur table: 22961
epoch: 1000
next table: 2258
cur table: 2259
epoch: 1000
next table: 20353
cur table: 18380
epoch: 1000
next table: 21120
cur table: 20353
epoch: 1000
next table: 2297
cur table: 2258
epoch: 1000
next table: 18001
cur table: 21120
epoch: 1000
next table: 2167
cur table: 2297
epoch: 1000
next table: 17641
cur table: 18001
epoch: 1000
next table: 20575
cur table: 17641
epoch: 1000
next table: 2191
cur table: 2167
epoch: 1000
next table: 26965
cur table: 20575
epoch: 1000
next table: 18386
cur table: 26965
epoch: 1000
next table: 2228
cur table: 2191
epoch: 1000
next table: 20630
cur table: 18386
epoch: 1000
next table: 26608
cur table: 20630
epoch: 1000
next table: 2121
cur table: 2228
epoch: 1000
next table: 23347
cur table: 26608
epoch: 1000
next table: 2073
cur table: 2121
epoch: 1000
next table: 24146
cur table: 23347
epoch: 1000
next table: 26772
cur table: 24146
epoch: 1000
next table: 2097
cur table: 2073
epoch: 1000
next table: 23063
cur table: 26772
epoch: 1000
next table: 1984
cur table: 2097
epoch: 1000
next table: 24855
cur table: 23063
epoch: 1000
next table: 22296
cur table: 24855
epoch: 1000
next table: 2212
cur table: 1984
epoch: 1000
next table: 22586
cur table: 22296
epoch: 1000
next table: 22789
cur table: 22586
epoch: 1000
next table: 2186
cur table: 2212
epoch: 1000
next table: 27176
cur table: 22789
epoch: 1000
next table: 2071
cur table: 2186
epoch: 1000
next table: 18780
cur table: 27176
epoch: 1000
next table: 19340
cur table: 18780
epoch: 1000
next table: 2144
cur table: 2071
epoch: 1000
next table: 23159
cur table: 19340
epoch: 1000
next table: 20801
cur table: 23159
epoch: 1000
next table: 2258
cur table: 2144
epoch: 1000
next table: 20667
cur table: 20801
epoch: 1000
next table: 15902
cur table: 20667
epoch: 1000
next table: 2225
cur table: 2258
epoch: 1000
next table: 24945
cur table: 15902
epoch: 1000
next table: 20212
cur table: 24945
epoch: 1000
next table: 2211
cur table: 2225
epoch: 1000
next table: 20786
cur table: 20212
epoch: 1000
next table: 21268
cur table: 20786
epoch: 1000
next table: 2211
cur table: 2211
Heartbeat CPU 0 instructions: 30000002 cycles: 10758177 heartbeat IPC: 2.78774 cumulative IPC: 2.78858 (Simulation time: 0 hr 18 min 46 sec) 
epoch: 1000
next table: 15704
cur table: 21268
epoch: 1000
next table: 21315
cur table: 15704
epoch: 1000
next table: 2295
cur table: 2211
epoch: 1000
next table: 19616
cur table: 21315
epoch: 1000
next table: 2199
cur table: 2295
epoch: 1000
next table: 24441
cur table: 19616
epoch: 1000
next table: 16965
cur table: 24441
epoch: 1000
next table: 2129
cur table: 2199
epoch: 1000
next table: 18908
cur table: 16965
epoch: 1000
next table: 23159
cur table: 18908
epoch: 1000
next table: 2242
cur table: 2129
epoch: 1000
next table: 18936
cur table: 23159
epoch: 1000
next table: 20289
cur table: 18936
epoch: 1000
next table: 2145
cur table: 2242
epoch: 1000
next table: 18301
cur table: 20289
epoch: 1000
next table: 24289
cur table: 18301
epoch: 1000
next table: 2131
cur table: 2145
epoch: 1000
next table: 17023
cur table: 24289
epoch: 1000
next table: 24410
cur table: 17023
epoch: 1000
next table: 2140
cur table: 2131
epoch: 1000
next table: 21790
cur table: 24410
epoch: 1000
next table: 15200
cur table: 21790
epoch: 1000
next table: 2316
cur table: 2140
epoch: 1000
next table: 18125
cur table: 15200
epoch: 1000
next table: 21161
cur table: 18125
epoch: 1000
next table: 2261
cur table: 2316
epoch: 1000
next table: 23849
cur table: 21161
epoch: 1000
next table: 18587
cur table: 23849
epoch: 1000
next table: 2132
cur table: 2261
epoch: 1000
next table: 15929
cur table: 18587
epoch: 1000
next table: 2239
cur table: 2132
epoch: 1000
next table: 22503
cur table: 15929
epoch: 1000
next table: 21003
cur table: 22503
epoch: 1000
next table: 2268
cur table: 2239
epoch: 1000
next table: 18107
cur table: 21003
epoch: 1000
next table: 20170
cur table: 18107
epoch: 1000
next table: 2192
cur table: 2268
epoch: 1000
next table: 16569
cur table: 20170
epoch: 1000
next table: 22120
cur table: 16569
epoch: 1000
next table: 2233
cur table: 2192
epoch: 1000
next table: 19144
cur table: 22120
epoch: 1000
next table: 18103
cur table: 19144
epoch: 1000
next table: 2198
cur table: 2233
epoch: 1000
next table: 22909
cur table: 18103
epoch: 1000
next table: 14059
cur table: 22909
epoch: 1000
next table: 2278
cur table: 2198
epoch: 1000
next table: 19491
cur table: 14059
epoch: 1000
next table: 21581
cur table: 19491
epoch: 1000
next table: 2214
cur table: 2278
epoch: 1000
next table: 20164
cur table: 21581
epoch: 1000
next table: 20098
cur table: 20164
epoch: 1000
next table: 2255
cur table: 2214
epoch: 1000
next table: 17626
cur table: 20098
epoch: 1000
next table: 21311
cur table: 17626
epoch: 1000
next table: 2248
cur table: 2255
epoch: 1000
next table: 20535
cur table: 21311
epoch: 1000
next table: 19052
cur table: 20535
epoch: 1000
next table: 2211
cur table: 2248
epoch: 1000
next table: 19573
cur table: 19052
epoch: 1000
next table: 20607
cur table: 19573
epoch: 1000
next table: 2168
cur table: 2211
epoch: 1000
next table: 20216
cur table: 20607
epoch: 1000
next table: 18800
cur table: 20216
epoch: 1000
next table: 2282
cur table: 2168
epoch: 1000
next table: 22749
cur table: 18800
epoch: 1000
next table: 15395
cur table: 22749
epoch: 1000
next table: 2368
cur table: 2282
epoch: 1000
next table: 18079
cur table: 15395
epoch: 1000
next table: 18980
cur table: 18079
epoch: 1000
next table: 2188
cur table: 2368
epoch: 1000
next table: 22638
cur table: 18980
epoch: 1000
next table: 18745
cur table: 22638
epoch: 1000
next table: 2238
cur table: 2188
epoch: 1000
next table: 15942
cur table: 18745
epoch: 1000
next table: 21820
cur table: 15942
epoch: 1000
next table: 2298
cur table: 2238
epoch: 1000
next table: 21957
cur table: 21820
epoch: 1000
next table: 19694
cur table: 21957
epoch: 1000
next table: 2223
cur table: 2298
epoch: 1000
next table: 17958
cur table: 19694
Heartbeat CPU 0 instructions: 40000003 cycles: 14344849 heartbeat IPC: 2.7881 cumulative IPC: 2.78846 (Simulation time: 0 hr 25 min 28 sec) 
epoch: 1000
next table: 16557
cur table: 17958
epoch: 1000
next table: 2308
cur table: 2223
epoch: 1000
next table: 22252
cur table: 16557
epoch: 1000
next table: 18931
cur table: 22252
epoch: 1000
next table: 2137
cur table: 2308
epoch: 1000
next table: 18799
cur table: 18931
epoch: 1000
next table: 22060
cur table: 18799
epoch: 1000
next table: 2273
cur table: 2137
epoch: 1000
next table: 12875
cur table: 22060
epoch: 1000
next table: 16692
cur table: 12875
epoch: 1000
next table: 2309
cur table: 2273
epoch: 1000
next table: 21336
cur table: 16692
epoch: 1000
next table: 22773
cur table: 21336
epoch: 1000
next table: 2311
cur table: 2309
epoch: 1000
next table: 17751
cur table: 22773
epoch: 1000
next table: 16943
cur table: 17751
epoch: 1000
next table: 2215
cur table: 2311
epoch: 1000
next table: 20025
cur table: 16943
epoch: 1000
next table: 22250
cur table: 20025
epoch: 1000
next table: 2281
cur table: 2215
epoch: 1000
next table: 18750
cur table: 22250
epoch: 1000
next table: 19527
cur table: 18750
epoch: 1000
next table: 2250
cur table: 2281
epoch: 1000
next table: 18087
cur table: 19527
epoch: 1000
next table: 20623
cur table: 18087
epoch: 1000
next table: 2190
cur table: 2250
epoch: 1000
next table: 20742
cur table: 20623
epoch: 1000
next table: 18383
cur table: 20742
epoch: 1000
next table: 2225
cur table: 2190
epoch: 1000
next table: 19690
cur table: 18383
epoch: 1000
next table: 14428
cur table: 19690
epoch: 1000
next table: 2370
cur table: 2225
epoch: 1000
next table: 18612
cur table: 14428
epoch: 1000
next table: 22415
cur table: 18612
epoch: 1000
next table: 2152
cur table: 2370
epoch: 1000
next table: 20640
cur table: 22415
epoch: 1000
next table: 18736
cur table: 20640
epoch: 1000
next table: 2205
cur table: 2152
epoch: 1000
next table: 17016
cur table: 18736
epoch: 1000
next table: 23088
cur table: 17016
epoch: 1000
next table: 2248
cur table: 2205
epoch: 1000
next table: 19042
cur table: 23088
epoch: 1000
next table: 22487
cur table: 19042
epoch: 1000
next table: 2190
cur table: 2248
epoch: 1000
next table: 23009
cur table: 22487
epoch: 1000
next table: 2264
cur table: 2190
epoch: 1000
next table: 19296
cur table: 23009
epoch: 1000
next table: 22805
cur table: 19296
epoch: 1000
next table: 2081
cur table: 2264
epoch: 1000
next table: 18974
cur table: 22805
epoch: 1000
next table: 26769
cur table: 18974
epoch: 1000
next table: 2254
cur table: 2081
epoch: 1000
next table: 15782
cur table: 26769
epoch: 1000
next table: 22313
cur table: 15782
epoch: 1000
next table: 2235
cur table: 2254
epoch: 1000
next table: 22919
cur table: 22313
epoch: 1000
next table: 2220
cur table: 2235
epoch: 1000
next table: 21193
cur table: 22919
epoch: 1000
next table: 20437
cur table: 21193
epoch: 1000
next table: 2198
cur table: 2220
epoch: 1000
next table: 18170
cur table: 20437
epoch: 1000
next table: 24204
cur table: 18170
epoch: 1000
next table: 2279
cur table: 2198
epoch: 1000
next table: 20496
cur table: 24204
epoch: 1000
next table: 17384
cur table: 20496
epoch: 1000
next table: 2239
cur table: 2279
epoch: 1000
next table: 20997
cur table: 17384
epoch: 1000
next table: 20486
cur table: 20997
epoch: 1000
next table: 2279
cur table: 2239
epoch: 1000
next table: 19258
cur table: 20486
epoch: 1000
next table: 18306
cur table: 19258
epoch: 1000
next table: 2294
cur table: 2279
epoch: 1000
next table: 23492
cur table: 18306
epoch: 1000
next table: 16483
cur table: 23492
epoch: 1000
next table: 2288
cur table: 2294
epoch: 1000
next table: 18381
cur table: 16483
epoch: 1000
next table: 20892
cur table: 18381
epoch: 1000
next table: 2238
cur table: 2288
epoch: 1000
next table: 23169
cur table: 20892
epoch: 1000
next table: 22125
cur table: 23169
epoch: 1000
next table: 2095
cur table: 2238
Heartbeat CPU 0 instructions: 50000003 cycles: 17930479 heartbeat IPC: 2.78891 cumulative IPC: 2.78855 (Simulation time: 0 hr 31 min 17 sec) 

Warmup complete CPU 0 instructions: 50000003 cycles: 17930479 (Simulation time: 0 hr 31 min 17 sec) 

epoch: 1000
next table: 24559
cur table: 19340
epoch: 1000
next table: 20894
cur table: 24559
epoch: 1000
next table: 2177
cur table: 2351
epoch: 1000
next table: 22868
cur table: 20894
epoch: 1000
next table: 20842
cur table: 22868
epoch: 1000
next table: 2182
cur table: 2177
epoch: 1000
next table: 21836
cur table: 20842
epoch: 1000
next table: 22825
cur table: 21836
epoch: 1000
next table: 2194
cur table: 2182
epoch: 1000
next table: 23302
cur table: 22825
epoch: 1000
next table: 18698
cur table: 23302
epoch: 1000
next table: 2293
cur table: 2194
epoch: 1000
next table: 3090
cur table: 18698
epoch: 1000
next table: 2003
cur table: 2293
epoch: 1000
next table: 2492
cur table: 3090
epoch: 1000
next table: 2138
cur table: 2003
epoch: 1000
next table: 8049
cur table: 2492
epoch: 1000
next table: 2237
cur table: 2138
epoch: 1000
next table: 8230
cur table: 8049
epoch: 1000
next table: 2388
cur table: 2237
epoch: 1000
next table: 7115
cur table: 8230
epoch: 1000
next table: 7386
cur table: 7115
epoch: 1000
next table: 2367
cur table: 2388
epoch: 1000
next table: 7199
cur table: 7386
epoch: 1000
next table: 2346
cur table: 2367
epoch: 1000
next table: 7291
cur table: 7199
epoch: 1000
next table: 2337
cur table: 2346
epoch: 1000
next table: 7238
cur table: 7291
epoch: 1000
next table: 7192
cur table: 7238
epoch: 1000
next table: 2405
cur table: 2337
epoch: 1000
next table: 7232
cur table: 7192
epoch: 1000
next table: 2461
cur table: 2405
epoch: 1000
next table: 6803
cur table: 7232
epoch: 1000
next table: 8363
cur table: 6803
epoch: 1000
next table: 2731
cur table: 2461
epoch: 1000
next table: 10121
cur table: 8363
epoch: 1000
next table: 9192
cur table: 10121
epoch: 1000
next table: 2633
cur table: 2731
epoch: 1000
next table: 9021
cur table: 9192
epoch: 1000
next table: 9882
cur table: 9021
epoch: 1000
next table: 2614
cur table: 2633
epoch: 1000
next table: 10272
cur table: 9882
epoch: 1000
next table: 2718
cur table: 2614
epoch: 1000
next table: 9058
cur table: 10272
epoch: 1000
next table: 6688
cur table: 9058
epoch: 1000
next table: 2589
cur table: 2718
epoch: 1000
next table: 11755
cur table: 6688
epoch: 1000
next table: 11288
cur table: 11755
epoch: 1000
next table: 2440
cur table: 2589
epoch: 1000
next table: 9086
cur table: 11288
epoch: 1000
next table: 2478
cur table: 2440
epoch: 1000
next table: 10329
cur table: 9086
epoch: 1000
next table: 11561
cur table: 10329
epoch: 1000
next table: 2449
cur table: 2478
epoch: 1000
next table: 10015
cur table: 11561
epoch: 1000
next table: 2461
cur table: 2449
epoch: 1000
next table: 7738
cur table: 10015
epoch: 1000
next table: 10998
cur table: 7738
epoch: 1000
next table: 2526
cur table: 2461
epoch: 1000
next table: 9795
cur table: 10998
epoch: 1000
next table: 9569
cur table: 9795
epoch: 1000
next table: 2525
cur table: 2526
epoch: 1000
next table: 11643
cur table: 9569
epoch: 1000
next table: 2363
cur table: 2525
epoch: 1000
next table: 10496
cur table: 11643
epoch: 1000
next table: 10433
cur table: 10496
epoch: 1000
next table: 2408
cur table: 2363
epoch: 1000
next table: 8435
cur table: 10433
epoch: 1000
next table: 2445
cur table: 2408
epoch: 1000
next table: 11247
cur table: 8435
epoch: 1000
next table: 9094
cur table: 11247
epoch: 1000
next table: 2499
cur table: 2445
epoch: 1000
next table: 10054
cur table: 9094
epoch: 1000
next table: 2352
cur table: 2499
epoch: 1000
next table: 10469
cur table: 10054
epoch: 1000
next table: 11713
cur table: 10469
epoch: 1000
next table: 2459
cur table: 2352
epoch: 1000
next table: 11027
cur table: 11713
epoch: 1000
next table: 7753
cur table: 11027
epoch: 1000
next table: 2492
cur table: 2459
epoch: 1000
next table: 10959
cur table: 7753
epoch: 1000
next table: 2333
cur table: 2492
epoch: 1000
next table: 9612
cur table: 10959
epoch: 1000
next table: 9916
cur table: 9612
epoch: 1000
next table: 2455
cur table: 2333
epoch: 1000
next table: 10484
cur table: 9916
epoch: 1000
next table: 2472
cur table: 2455
epoch: 1000
next table: 10375
cur table: 10484
epoch: 1000
next table: 10108
cur table: 10375
epoch: 1000
next table: 2262
cur table: 2472
epoch: 1000
next table: 8845
cur table: 10108
epoch: 1000
next table: 2614
cur table: 2262
epoch: 1000
next table: 8230
cur table: 8845
epoch: 1000
next table: 10384
cur table: 8230
epoch: 1000
next table: 2681
cur table: 2614
epoch: 1000
next table: 10140
cur table: 10384
epoch: 1000
next table: 10254
cur table: 10140
epoch: 1000
next table: 2399
cur table: 2681
epoch: 1000
next table: 10354
cur table: 10254
epoch: 1000
next table: 2397
cur table: 2399
epoch: 1000
next table: 10518
cur table: 10354
epoch: 1000
next table: 10313
cur table: 10518
epoch: 1000
next table: 2423
cur table: 2397
epoch: 1000
next table: 9516
cur table: 10313
epoch: 1000
next table: 10345
cur table: 9516
epoch: 1000
next table: 2508
cur table: 2423
epoch: 1000
next table: 9002
cur table: 10345
epoch: 1000
next table: 2077
cur table: 2508
epoch: 1000
next table: 11999
cur table: 9002
epoch: 1000
next table: 11239
cur table: 11999
epoch: 1000
next table: 2572
cur table: 2077
epoch: 1000
next table: 10358
cur table: 11239
epoch: 1000
next table: 2570
cur table: 2572
epoch: 1000
next table: 10291
cur table: 10358
epoch: 1000
next table: 2179
cur table: 2570
epoch: 1000
next table: 11043
cur table: 10291
epoch: 1000
next table: 10687
cur table: 11043
epoch: 1000
next table: 2265
cur table: 2179
epoch: 1000
next table: 13036
cur table: 10687
epoch: 1000
next table: 2257
cur table: 2265
epoch: 1000
next table: 10568
cur table: 13036
epoch: 1000
next table: 13216
cur table: 10568
epoch: 1000
next table: 2229
cur table: 2257
epoch: 1000
next table: 8832
cur table: 13216
epoch: 1000
next table: 2112
cur table: 2229
epoch: 1000
next table: 10061
cur table: 8832
epoch: 1000
next table: 12246
cur table: 10061
epoch: 1000
next table: 2546
cur table: 2112
epoch: 1000
next table: 11216
cur table: 12246
epoch: 1000
next table: 2158
cur table: 2546
epoch: 1000
next table: 13199
cur table: 11216
epoch: 1000
next table: 2227
cur table: 2158
epoch: 1000
next table: 11910
cur table: 13199
epoch: 1000
next table: 11848
cur table: 11910
epoch: 1000
next table: 2295
cur table: 2227
epoch: 1000
next table: 8636
cur table: 11848
epoch: 1000
next table: 2244
cur table: 2295
epoch: 1000
next table: 12853
cur table: 8636
epoch: 1000
next table: 2087
cur table: 2244
epoch: 1000
next table: 10374
cur table: 12853
epoch: 1000
next table: 13242
cur table: 10374
epoch: 1000
next table: 2313
cur table: 2087
epoch: 1000
next table: 11960
cur table: 13242
epoch: 1000
next table: 2431
cur table: 2313
epoch: 1000
next table: 10487
cur table: 11960
epoch: 1000
next table: 2137
cur table: 2431
epoch: 1000
next table: 11573
cur table: 10487
epoch: 1000
next table: 11938
cur table: 11573
epoch: 1000
next table: 2181
cur table: 2137
epoch: 1000
next table: 12982
cur table: 11938
epoch: 1000
next table: 2205
cur table: 2181
epoch: 1000
next table: 12376
cur table: 12982
epoch: 1000
next table: 2291
cur table: 2205
epoch: 1000
next table: 11408
cur table: 12376
epoch: 1000
next table: 10182
cur table: 11408
epoch: 1000
next table: 2023
cur table: 2291
epoch: 1000
next table: 11120
cur table: 10182
epoch: 1000
next table: 2392
cur table: 2023
epoch: 1000
next table: 11894
cur table: 11120
epoch: 1000
next table: 2297
cur table: 2392
epoch: 1000
next table: 12005
cur table: 11894
epoch: 1000
next table: 13239
cur table: 12005
epoch: 1000
next table: 2189
cur table: 2297
epoch: 1000
next table: 13363
cur table: 13239
epoch: 1000
next table: 2205
cur table: 2189
epoch: 1000
next table: 10515
cur table: 13363
epoch: 1000
next table: 2213
cur table: 2205
epoch: 1000
next table: 11066
cur table: 10515
epoch: 1000
next table: 10485
cur table: 11066
epoch: 1000
next table: 2334
cur table: 2213
epoch: 1000
next table: 10217
cur table: 10485
epoch: 1000
next table: 1962
cur table: 2334
epoch: 1000
next table: 13359
cur table: 10217
epoch: 1000
next table: 2455
cur table: 1962
epoch: 1000
next table: 13425
cur table: 13359
epoch: 1000
next table: 10333
cur table: 13425
epoch: 1000
next table: 2258
cur table: 2455
epoch: 1000
next table: 11039
cur table: 10333
epoch: 1000
next table: 2153
cur table: 2258
epoch: 1000
next table: 11858
cur table: 11039
Heartbeat CPU 0 instructions: 60000003 cycles: 30688052 heartbeat IPC: 0.783848 cumulative IPC: 0.783848 (Simulation time: 0 hr 37 min 37 sec) 
epoch: 1000
next table: 2199
cur table: 2153
epoch: 1000
next table: 12202
cur table: 11858
epoch: 1000
next table: 13201
cur table: 12202
epoch: 1000
next table: 2219
cur table: 2199
epoch: 1000
next table: 10534
cur table: 13201
epoch: 1000
next table: 2148
cur table: 2219
epoch: 1000
next table: 9466
cur table: 10534
epoch: 1000
next table: 11199
cur table: 9466
epoch: 1000
next table: 2275
cur table: 2148
epoch: 1000
next table: 11380
cur table: 11199
epoch: 1000
next table: 2408
cur table: 2275
epoch: 1000
next table: 11799
cur table: 11380
epoch: 1000
next table: 2190
cur table: 2408
epoch: 1000
next table: 11819
cur table: 11799
epoch: 1000
next table: 13370
cur table: 11819
epoch: 1000
next table: 2199
cur table: 2190
epoch: 1000
next table: 11897
cur table: 13370
epoch: 1000
next table: 2248
cur table: 2199
epoch: 1000
next table: 10201
cur table: 11897
epoch: 1000
next table: 2277
cur table: 2248
epoch: 1000
next table: 12709
cur table: 10201
epoch: 1000
next table: 8826
cur table: 12709
epoch: 1000
next table: 1956
cur table: 2277
epoch: 1000
next table: 13602
cur table: 8826
epoch: 1000
next table: 2388
cur table: 1956
epoch: 1000
next table: 12032
cur table: 13602
epoch: 1000
next table: 12364
cur table: 12032
epoch: 1000
next table: 2452
cur table: 2388
epoch: 1000
next table: 11827
cur table: 12364
epoch: 1000
next table: 2096
cur table: 2452
epoch: 1000
next table: 13448
cur table: 11827
epoch: 1000
next table: 2214
cur table: 2096
epoch: 1000
next table: 10807
cur table: 13448
epoch: 1000
next table: 2252
cur table: 2214
epoch: 1000
next table: 13091
cur table: 10807
epoch: 1000
next table: 13320
cur table: 13091
epoch: 1000
next table: 2200
cur table: 2252
epoch: 1000
next table: 8877
cur table: 13320
epoch: 1000
next table: 2120
cur table: 2200
epoch: 1000
next table: 10439
cur table: 8877
epoch: 1000
next table: 2385
cur table: 2120
epoch: 1000
next table: 12661
cur table: 10439
epoch: 1000
next table: 13229
cur table: 12661
epoch: 1000
next table: 2246
cur table: 2385
epoch: 1000
next table: 10806
cur table: 13229
epoch: 1000
next table: 2273
cur table: 2246
epoch: 1000
next table: 13236
cur table: 10806
epoch: 1000
next table: 13127
cur table: 13236
epoch: 1000
next table: 2225
cur table: 2273
epoch: 1000
next table: 9269
cur table: 13127
epoch: 1000
next table: 2256
cur table: 2225
epoch: 1000
next table: 12334
cur table: 9269
epoch: 1000
next table: 1988
cur table: 2256
epoch: 1000
next table: 10299
cur table: 12334
epoch: 1000
next table: 13331
cur table: 10299
epoch: 1000
next table: 2304
cur table: 1988
epoch: 1000
next table: 13317
cur table: 13331
epoch: 1000
next table: 2438
cur table: 2304
epoch: 1000
next table: 10420
cur table: 13317
epoch: 1000
next table: 2248
cur table: 2438
epoch: 1000
next table: 9740
cur table: 10420
epoch: 1000
next table: 11923
cur table: 9740
epoch: 1000
next table: 2309
cur table: 2248
epoch: 1000
next table: 12833
cur table: 11923
epoch: 1000
next table: 2289
cur table: 2309
epoch: 1000
next table: 10860
cur table: 12833
epoch: 1000
next table: 13179
cur table: 10860
epoch: 1000
next table: 2227
cur table: 2289
epoch: 1000
next table: 7624
cur table: 13179
epoch: 1000
next table: 2071
cur table: 2227
epoch: 1000
next table: 12982
cur table: 7624
epoch: 1000
next table: 2374
cur table: 2071
epoch: 1000
next table: 11347
cur table: 12982
epoch: 1000
next table: 10668
cur table: 11347
epoch: 1000
next table: 2383
cur table: 2374
epoch: 1000
next table: 13211
cur table: 10668
epoch: 1000
next table: 2265
cur table: 2383
epoch: 1000
next table: 12384
cur table: 13211
epoch: 1000
next table: 11310
cur table: 12384
epoch: 1000
next table: 2300
cur table: 2265
epoch: 1000
next table: 11489
cur table: 11310
epoch: 1000
next table: 2231
cur table: 2300
epoch: 1000
next table: 10121
cur table: 11489
epoch: 1000
next table: 2060
cur table: 2231
epoch: 1000
next table: 10173
cur table: 10121
epoch: 1000
next table: 13378
cur table: 10173
epoch: 1000
next table: 2256
cur table: 2060
epoch: 1000
next table: 13333
cur table: 13378
epoch: 1000
next table: 2509
cur table: 2256
epoch: 1000
next table: 10405
cur table: 13333
epoch: 1000
next table: 12516
cur table: 10405
epoch: 1000
next table: 2223
cur table: 2509
epoch: 1000
next table: 9426
cur table: 12516
epoch: 1000
next table: 2274
cur table: 2223
epoch: 1000
next table: 13052
cur table: 9426
epoch: 1000
next table: 2239
cur table: 2274
epoch: 1000
next table: 10593
cur table: 13052
epoch: 1000
next table: 13197
cur table: 10593
epoch: 1000
next table: 2260
cur table: 2239
epoch: 1000
next table: 7670
cur table: 13197
epoch: 1000
next table: 2052
cur table: 2260
epoch: 1000
next table: 13170
cur table: 7670
epoch: 1000
next table: 10967
cur table: 13170
epoch: 1000
next table: 2519
cur table: 2052
epoch: 1000
next table: 10592
cur table: 10967
epoch: 1000
next table: 2284
cur table: 2519
epoch: 1000
next table: 13238
cur table: 10592
epoch: 1000
next table: 2259
cur table: 2284
epoch: 1000
next table: 11936
cur table: 13238
epoch: 1000
next table: 11912
cur table: 11936
epoch: 1000
next table: 2275
cur table: 2259
epoch: 1000
next table: 13265
cur table: 11912
epoch: 1000
next table: 2221
cur table: 2275
epoch: 1000
next table: 8261
cur table: 13265
epoch: 1000
next table: 2057
cur table: 2221
epoch: 1000
next table: 10202
cur table: 8261
epoch: 1000
next table: 13323
cur table: 10202
epoch: 1000
next table: 2284
cur table: 2057
epoch: 1000
next table: 13427
cur table: 13323
epoch: 1000
next table: 2305
cur table: 2284
epoch: 1000
next table: 10612
cur table: 13427
epoch: 1000
next table: 11859
cur table: 10612
epoch: 1000
next table: 2345
cur table: 2305
epoch: 1000
next table: 9689
cur table: 11859
epoch: 1000
next table: 2238
cur table: 2345
epoch: 1000
next table: 12253
cur table: 9689
epoch: 1000
next table: 2274
cur table: 2238
epoch: 1000
next table: 11528
cur table: 12253
epoch: 1000
next table: 13123
cur table: 11528
epoch: 1000
next table: 2311
cur table: 2274
epoch: 1000
next table: 9077
cur table: 13123
epoch: 1000
next table: 2024
cur table: 2311
epoch: 1000
next table: 11745
cur table: 9077
epoch: 1000
next table: 11152
cur table: 11745
epoch: 1000
next table: 2321
cur table: 2024
epoch: 1000
next table: 11790
cur table: 11152
epoch: 1000
next table: 2392
cur table: 2321
epoch: 1000
next table: 11057
cur table: 11790
epoch: 1000
next table: 2270
cur table: 2392
epoch: 1000
next table: 11366
cur table: 11057
epoch: 1000
next table: 13325
cur table: 11366
epoch: 1000
next table: 2244
cur table: 2270
epoch: 1000
next table: 10440
cur table: 13325
epoch: 1000
next table: 2367
cur table: 2244
epoch: 1000
next table: 11230
cur table: 10440
epoch: 1000
next table: 10099
cur table: 11230
epoch: 1000
next table: 2245
cur table: 2367
epoch: 1000
next table: 10227
cur table: 10099
epoch: 1000
next table: 2095
cur table: 2245
epoch: 1000
next table: 13319
cur table: 10227
epoch: 1000
next table: 12316
cur table: 13319
epoch: 1000
next table: 2482
cur table: 2095
epoch: 1000
next table: 11563
cur table: 12316
epoch: 1000
next table: 2324
cur table: 2482
epoch: 1000
next table: 12991
cur table: 11563
epoch: 1000
next table: 2251
cur table: 2324
epoch: 1000
next table: 9086
cur table: 12991
epoch: 1000
next table: 12911
cur table: 9086
epoch: 1000
next table: 2223
cur table: 2251
epoch: 1000
next table: 10668
cur table: 12911
epoch: 1000
next table: 2275
cur table: 2223
epoch: 1000
next table: 13025
cur table: 10668
epoch: 1000
next table: 2008
cur table: 2275
epoch: 1000
next table: 10184
cur table: 13025
epoch: 1000
next table: 12626
cur table: 10184
epoch: 1000
next table: 2431
cur table: 2008
epoch: 1000
next table: 9006
cur table: 12626
epoch: 1000
next table: 2449
cur table: 2431
epoch: 1000
next table: 13217
cur table: 9006
epoch: 1000
next table: 11912
cur table: 13217
epoch: 1000
next table: 2218
cur table: 2449
epoch: 1000
next table: 12141
cur table: 11912
epoch: 1000
next table: 2301
cur table: 2218
epoch: 1000
next table: 11126
cur table: 12141
epoch: 1000
next table: 2235
cur table: 2301
epoch: 1000
next table: 12668
cur table: 11126
epoch: 1000
next table: 8653
cur table: 12668
epoch: 1000
next table: 2235
cur table: 2235
epoch: 1000
next table: 9711
cur table: 8653
epoch: 1000
next table: 2073
cur table: 2235
epoch: 1000
next table: 13470
cur table: 9711
epoch: 1000
next table: 13481
cur table: 13470
epoch: 1000
next table: 2424
cur table: 2073
epoch: 1000
next table: 10340
cur table: 13481
epoch: 1000
next table: 2380
cur table: 2424
epoch: 1000
next table: 13137
cur table: 10340
Heartbeat CPU 0 instructions: 70000000 cycles: 43096662 heartbeat IPC: 0.805892 cumulative IPC: 0.794717 (Simulation time: 0 hr 43 min 46 sec) 
epoch: 1000
next table: 2234
cur table: 2380
epoch: 1000
next table: 10932
cur table: 13137
epoch: 1000
next table: 10642
cur table: 10932
epoch: 1000
next table: 2245
cur table: 2234
epoch: 1000
next table: 13200
cur table: 10642
epoch: 1000
next table: 2280
cur table: 2245
epoch: 1000
next table: 10522
cur table: 13200
epoch: 1000
next table: 10012
cur table: 10522
epoch: 1000
next table: 2065
cur table: 2280
epoch: 1000
next table: 12660
cur table: 10012
epoch: 1000
next table: 2383
cur table: 2065
epoch: 1000
next table: 9544
cur table: 12660
epoch: 1000
next table: 12814
cur table: 9544
epoch: 1000
next table: 2408
cur table: 2383
epoch: 1000
next table: 10630
cur table: 12814
epoch: 1000
next table: 2264
cur table: 2408
epoch: 1000
next table: 13259
cur table: 10630
epoch: 1000
next table: 2229
cur table: 2264
epoch: 1000
next table: 11820
cur table: 13259
epoch: 1000
next table: 12091
cur table: 11820
epoch: 1000
next table: 2222
cur table: 2229
epoch: 1000
next table: 9966
cur table: 12091
epoch: 1000
next table: 2253
cur table: 2222
epoch: 1000
next table: 8578
cur table: 9966
epoch: 1000
next table: 2025
cur table: 2253
epoch: 1000
next table: 13691
cur table: 8578
epoch: 1000
next table: 13114
cur table: 13691
epoch: 1000
next table: 2363
cur table: 2025
epoch: 1000
next table: 11900
cur table: 13114
epoch: 1000
next table: 2237
cur table: 2363
epoch: 1000
next table: 11743
cur table: 11900
epoch: 1000
next table: 2164
cur table: 2237
epoch: 1000
next table: 11012
cur table: 11743
epoch: 1000
next table: 13287
cur table: 11012
epoch: 1000
next table: 2206
cur table: 2164
epoch: 1000
next table: 10643
cur table: 13287
epoch: 1000
next table: 2255
cur table: 2206
epoch: 1000
next table: 13182
cur table: 10643
epoch: 1000
next table: 2022
cur table: 2255
epoch: 1000
next table: 7882
cur table: 13182
epoch: 1000
next table: 13137
cur table: 7882
epoch: 1000
next table: 2322
cur table: 2022
epoch: 1000
next table: 11471
cur table: 13137
epoch: 1000
next table: 2434
cur table: 2322
epoch: 1000
next table: 11243
cur table: 11471
epoch: 1000
next table: 2110
cur table: 2434
epoch: 1000
next table: 12016
cur table: 11243
epoch: 1000
next table: 13313
cur table: 12016
epoch: 1000
next table: 2197
cur table: 2110
epoch: 1000
next table: 10728
cur table: 13313
epoch: 1000
next table: 2223
cur table: 2197
epoch: 1000
next table: 13227
cur table: 10728
epoch: 1000
next table: 9996
cur table: 13227
epoch: 1000
next table: 2314
cur table: 2223
epoch: 1000
next table: 8273
cur table: 9996
epoch: 1000
next table: 1990
cur table: 2314
epoch: 1000
next table: 13293
cur table: 8273
epoch: 1000
next table: 2424
cur table: 1990
epoch: 1000
next table: 13361
cur table: 13293
epoch: 1000
next table: 10471
cur table: 13361
epoch: 1000
next table: 2398
cur table: 2424
epoch: 1000
next table: 10574
cur table: 10471
epoch: 1000
next table: 2109
cur table: 2398
epoch: 1000
next table: 13164
cur table: 10574
epoch: 1000
next table: 2249
cur table: 2109
epoch: 1000
next table: 9669
cur table: 13164
epoch: 1000
next table: 11712
cur table: 9669
epoch: 1000
next table: 2415
cur table: 2249
epoch: 1000
next table: 10331
cur table: 11712
epoch: 1000
next table: 2322
cur table: 2415
epoch: 1000
next table: 10627
cur table: 10331
epoch: 1000
next table: 10034
cur table: 10627
epoch: 1000
next table: 2071
cur table: 2322
epoch: 1000
next table: 11937
cur table: 10034
epoch: 1000
next table: 2409
cur table: 2071
epoch: 1000
next table: 9798
cur table: 11937
epoch: 1000
next table: 13078
cur table: 9798
epoch: 1000
next table: 2182
cur table: 2409
epoch: 1000
next table: 10611
cur table: 13078
epoch: 1000
next table: 2222
cur table: 2182
epoch: 1000
next table: 13229
cur table: 10611
epoch: 1000
next table: 2253
cur table: 2222
epoch: 1000
next table: 10429
cur table: 13229
epoch: 1000
next table: 11847
cur table: 10429
epoch: 1000
next table: 2328
cur table: 2253
epoch: 1000
next table: 10024
cur table: 11847
epoch: 1000
next table: 2141
cur table: 2328
epoch: 1000
next table: 7766
cur table: 10024
epoch: 1000
next table: 2089
cur table: 2141
epoch: 1000
next table: 15297
cur table: 7766
epoch: 1000
next table: 13096
cur table: 15297
epoch: 1000
next table: 2387
cur table: 2089
epoch: 1000
next table: 10757
cur table: 13096
epoch: 1000
next table: 2292
cur table: 2387
epoch: 1000
next table: 11913
cur table: 10757
epoch: 1000
next table: 2166
cur table: 2292
epoch: 1000
next table: 11745
cur table: 11913
epoch: 1000
next table: 11462
cur table: 11745
epoch: 1000
next table: 2204
cur table: 2166
epoch: 1000
next table: 11913
cur table: 11462
epoch: 1000
next table: 2279
cur table: 2204
epoch: 1000
next table: 11839
cur table: 11913
epoch: 1000
next table: 8539
cur table: 11839
epoch: 1000
next table: 2073
cur table: 2279
epoch: 1000
next table: 12251
cur table: 8539
epoch: 1000
next table: 2343
cur table: 2073
epoch: 1000
next table: 13206
cur table: 12251
epoch: 1000
next table: 8328
cur table: 13206
epoch: 1000
next table: 2457
cur table: 2343
epoch: 1000
next table: 13117
cur table: 8328
epoch: 1000
next table: 2196
cur table: 2457
epoch: 1000
next table: 12418
cur table: 13117
epoch: 1000
next table: 2236
cur table: 2196
epoch: 1000
next table: 11398
cur table: 12418
epoch: 1000
next table: 13245
cur table: 11398
epoch: 1000
next table: 2264
cur table: 2236
epoch: 1000
next table: 10608
cur table: 13245
epoch: 1000
next table: 2312
cur table: 2264
epoch: 1000
next table: 7886
cur table: 10608
epoch: 1000
next table: 1968
cur table: 2312
epoch: 1000
next table: 13244
cur table: 7886
epoch: 1000
next table: 13437
cur table: 13244
epoch: 1000
next table: 2354
cur table: 1968
epoch: 1000
next table: 10525
cur table: 13437
epoch: 1000
next table: 2395
cur table: 2354
epoch: 1000
next table: 10862
cur table: 10525
epoch: 1000
next table: 2218
cur table: 2395
epoch: 1000
next table: 13152
cur table: 10862
epoch: 1000
next table: 10890
cur table: 13152
epoch: 1000
next table: 2284
cur table: 2218
epoch: 1000
next table: 10615
cur table: 10890
epoch: 1000
next table: 2269
cur table: 2284
epoch: 1000
next table: 13220
cur table: 10615
epoch: 1000
next table: 10223
cur table: 13220
epoch: 1000
next table: 2018
cur table: 2269
epoch: 1000
next table: 12001
cur table: 10223
epoch: 1000
next table: 2231
cur table: 2018
epoch: 1000
next table: 12483
cur table: 12001
epoch: 1000
next table: 2445
cur table: 2231
epoch: 1000
next table: 10601
cur table: 12483
epoch: 1000
next table: 11856
cur table: 10601
epoch: 1000
next table: 2268
cur table: 2445
epoch: 1000
next table: 12163
cur table: 11856
epoch: 1000
next table: 2256
cur table: 2268
epoch: 1000
next table: 11795
cur table: 12163
epoch: 1000
next table: 11953
cur table: 11795
epoch: 1000
next table: 2341
cur table: 2256
epoch: 1000
next table: 13176
cur table: 11953
epoch: 1000
next table: 2277
cur table: 2341
epoch: 1000
next table: 6867
cur table: 13176
epoch: 1000
next table: 1969
cur table: 2277
epoch: 1000
next table: 11772
cur table: 6867
epoch: 1000
next table: 13277
cur table: 11772
epoch: 1000
next table: 2476
cur table: 1969
epoch: 1000
next table: 12256
cur table: 13277
epoch: 1000
next table: 2458
cur table: 2476
epoch: 1000
next table: 11466
cur table: 12256
epoch: 1000
next table: 11989
cur table: 11466
epoch: 1000
next table: 2247
cur table: 2458
epoch: 1000
next table: 9558
cur table: 11989
epoch: 1000
next table: 2309
cur table: 2247
epoch: 1000
next table: 10845
cur table: 9558
epoch: 1000
next table: 12625
cur table: 10845
epoch: 1000
next table: 2326
cur table: 2309
epoch: 1000
next table: 10629
cur table: 12625
epoch: 1000
next table: 2043
cur table: 2326
epoch: 1000
next table: 10060
cur table: 10629
epoch: 1000
next table: 2308
cur table: 2043
epoch: 1000
next table: 13435
cur table: 10060
epoch: 1000
next table: 10591
cur table: 13435
epoch: 1000
next table: 2533
cur table: 2308
epoch: 1000
next table: 10808
cur table: 10591
epoch: 1000
next table: 2258
cur table: 2533
epoch: 1000
next table: 10567
cur table: 10808
epoch: 1000
next table: 13301
cur table: 10567
epoch: 1000
next table: 2251
cur table: 2258
epoch: 1000
next table: 10460
cur table: 13301
epoch: 1000
next table: 2305
cur table: 2251
epoch: 1000
next table: 13277
cur table: 10460
epoch: 1000
next table: 10582
cur table: 13277
epoch: 1000
next table: 2273
cur table: 2305
epoch: 1000
next table: 7858
cur table: 10582
epoch: 1000
next table: 1999
cur table: 2273
epoch: 1000
next table: 13283
cur table: 7858
epoch: 1000
next table: 2392
cur table: 1999
epoch: 1000
next table: 13448
cur table: 13283
epoch: 1000
next table: 10343
cur table: 13448
epoch: 1000
next table: 2406
cur table: 2392
Heartbeat CPU 0 instructions: 80000001 cycles: 55568735 heartbeat IPC: 0.801791 cumulative IPC: 0.797061 (Simulation time: 0 hr 50 min 35 sec) 
epoch: 1000
next table: 13312
cur table: 10343
epoch: 1000
next table: 2198
cur table: 2406
epoch: 1000
next table: 12525
cur table: 13312
epoch: 1000
next table: 2222
cur table: 2198
epoch: 1000
next table: 9218
cur table: 12525
epoch: 1000
next table: 13243
cur table: 9218
epoch: 1000
next table: 2216
cur table: 2222
epoch: 1000
next table: 12128
cur table: 13243
epoch: 1000
next table: 2042
cur table: 2216
epoch: 1000
next table: 8669
cur table: 12128
epoch: 1000
next table: 2274
cur table: 2042
epoch: 1000
next table: 13636
cur table: 8669
epoch: 1000
next table: 13215
cur table: 13636
epoch: 1000
next table: 2478
cur table: 2274
epoch: 1000
next table: 9509
cur table: 13215
epoch: 1000
next table: 2272
cur table: 2478
epoch: 1000
next table: 11977
cur table: 9509
epoch: 1000
next table: 13427
cur table: 11977
epoch: 1000
next table: 2160
cur table: 2272
epoch: 1000
next table: 11651
cur table: 13427
epoch: 1000
next table: 2291
cur table: 2160
epoch: 1000
next table: 12205
cur table: 11651
epoch: 1000
next table: 2282
cur table: 2291
epoch: 1000
next table: 11880
cur table: 12205
epoch: 1000
next table: 9345
cur table: 11880
epoch: 1000
next table: 2017
cur table: 2282
epoch: 1000
next table: 12549
cur table: 9345
epoch: 1000
next table: 2400
cur table: 2017
epoch: 1000
next table: 11441
cur table: 12549
epoch: 1000
next table: 10767
cur table: 11441
epoch: 1000
next table: 2384
cur table: 2400
epoch: 1000
next table: 13421
cur table: 10767
epoch: 1000
next table: 2210
cur table: 2384
epoch: 1000
next table: 12987
cur table: 13421
epoch: 1000
next table: 2197
cur table: 2210
epoch: 1000
next table: 11167
cur table: 12987
epoch: 1000
next table: 11981
cur table: 11167
epoch: 1000
next table: 2237
cur table: 2197
epoch: 1000
next table: 12023
cur table: 11981
epoch: 1000
next table: 2008
cur table: 2237
epoch: 1000
next table: 10060
cur table: 12023
epoch: 1000
next table: 2317
cur table: 2008
epoch: 1000
next table: 13489
cur table: 10060
epoch: 1000
next table: 13373
cur table: 13489
epoch: 1000
next table: 2359
cur table: 2317
epoch: 1000
next table: 9713
cur table: 13373
epoch: 1000
next table: 2188
cur table: 2359
epoch: 1000
next table: 11991
cur table: 9713
epoch: 1000
next table: 2244
cur table: 2188
epoch: 1000
next table: 13278
cur table: 11991
epoch: 1000
next table: 10582
cur table: 13278
epoch: 1000
next table: 2283
cur table: 2244
epoch: 1000
next table: 13245
cur table: 10582
epoch: 1000
next table: 2285
cur table: 2283
epoch: 1000
next table: 10690
cur table: 13245
epoch: 1000
next table: 1978
cur table: 2285
epoch: 1000
next table: 8037
cur table: 10690
epoch: 1000
next table: 13158
cur table: 8037
epoch: 1000
next table: 2404
cur table: 1978
epoch: 1000
next table: 13409
cur table: 13158
epoch: 1000
next table: 2483
cur table: 2404
epoch: 1000
next table: 10408
cur table: 13409
epoch: 1000
next table: 13367
cur table: 10408
epoch: 1000
next table: 2206
cur table: 2483
epoch: 1000
next table: 13287
cur table: 13367
epoch: 1000
next table: 2277
cur table: 2206
epoch: 1000
next table: 8268
cur table: 13287
epoch: 1000
next table: 2219
cur table: 2277
epoch: 1000
next table: 13108
cur table: 8268
epoch: 1000
next table: 10631
cur table: 13108
epoch: 1000
next table: 2035
cur table: 2219
epoch: 1000
next table: 10126
cur table: 10631
epoch: 1000
next table: 2323
cur table: 2035
epoch: 1000
next table: 13481
cur table: 10126
epoch: 1000
next table: 11984
cur table: 13481
epoch: 1000
next table: 2440
cur table: 2323
epoch: 1000
next table: 9474
cur table: 11984
epoch: 1000
next table: 2242
cur table: 2440
epoch: 1000
next table: 12096
cur table: 9474
epoch: 1000
next table: 2229
cur table: 2242
epoch: 1000
next table: 12210
cur table: 12096
epoch: 1000
next table: 12791
cur table: 12210
epoch: 1000
next table: 2313
cur table: 2229
epoch: 1000
next table: 11009
cur table: 12791
epoch: 1000
next table: 2317
cur table: 2313
epoch: 1000
next table: 12885
cur table: 11009
epoch: 1000
next table: 1934
cur table: 2317
epoch: 1000
next table: 8020
cur table: 12885
epoch: 1000
next table: 13309
cur table: 8020
epoch: 1000
next table: 2411
cur table: 1934
epoch: 1000
next table: 13493
cur table: 13309
epoch: 1000
next table: 2375
cur table: 2411
epoch: 1000
next table: 10455
cur table: 13493
epoch: 1000
next table: 13446
cur table: 10455
epoch: 1000
next table: 2170
cur table: 2375
epoch: 1000
next table: 13366
cur table: 13446
epoch: 1000
next table: 2198
cur table: 2170
epoch: 1000
next table: 10883
cur table: 13366
epoch: 1000
next table: 2289
cur table: 2198
epoch: 1000
next table: 10851
cur table: 10883
epoch: 1000
next table: 11578
cur table: 10851
epoch: 1000
next table: 2017
cur table: 2289
epoch: 1000
next table: 11878
cur table: 11578
epoch: 1000
next table: 2286
cur table: 2017
epoch: 1000
next table: 13342
cur table: 11878
epoch: 1000
next table: 2465
cur table: 2286
epoch: 1000
next table: 11750
cur table: 13342
epoch: 1000
next table: 9621
cur table: 11750
epoch: 1000
next table: 2282
cur table: 2465
epoch: 1000
next table: 13362
cur table: 9621
epoch: 1000
next table: 2177
cur table: 2282
epoch: 1000
next table: 10992
cur table: 13362
epoch: 1000
next table: 12763
cur table: 10992
epoch: 1000
next table: 2334
cur table: 2177
epoch: 1000
next table: 10717
cur table: 12763
epoch: 1000
next table: 2278
cur table: 2334
epoch: 1000
next table: 11596
cur table: 10717
epoch: 1000
next table: 1977
cur table: 2278
epoch: 1000
next table: 9429
cur table: 11596
epoch: 1000
next table: 12192
cur table: 9429
epoch: 1000
next table: 2457
cur table: 1977
epoch: 1000
next table: 13195
cur table: 12192
epoch: 1000
next table: 2415
cur table: 2457
epoch: 1000
next table: 10603
cur table: 13195
epoch: 1000
next table: 12578
cur table: 10603
epoch: 1000
next table: 2211
cur table: 2415
epoch: 1000
next table: 12643
cur table: 12578
epoch: 1000
next table: 2264
cur table: 2211
epoch: 1000
next table: 9952
cur table: 12643
epoch: 1000
next table: 2323
cur table: 2264
epoch: 1000
next table: 11462
cur table: 9952
epoch: 1000
next table: 11820
cur table: 11462
epoch: 1000
next table: 1971
cur table: 2323
epoch: 1000
next table: 9225
cur table: 11820
epoch: 1000
next table: 2243
cur table: 1971
epoch: 1000
next table: 14654
cur table: 9225
epoch: 1000
next table: 13011
cur table: 14654
epoch: 1000
next table: 2366
cur table: 2243
epoch: 1000
next table: 10017
cur table: 13011
epoch: 1000
next table: 2236
cur table: 2366
epoch: 1000
next table: 10629
cur table: 10017
epoch: 1000
next table: 2289
cur table: 2236
epoch: 1000
next table: 13183
cur table: 10629
epoch: 1000
next table: 10579
cur table: 13183
epoch: 1000
next table: 2308
cur table: 2289
epoch: 1000
next table: 13278
cur table: 10579
epoch: 1000
next table: 2310
cur table: 2308
epoch: 1000
next table: 10576
cur table: 13278
epoch: 1000
next table: 1851
cur table: 2310
epoch: 1000
next table: 8364
cur table: 10576
epoch: 1000
next table: 12955
cur table: 8364
epoch: 1000
next table: 2348
cur table: 1851
epoch: 1000
next table: 13511
cur table: 12955
epoch: 1000
next table: 2417
cur table: 2348
epoch: 1000
next table: 10352
cur table: 13511
epoch: 1000
next table: 13135
cur table: 10352
epoch: 1000
next table: 2281
cur table: 2417
epoch: 1000
next table: 10619
cur table: 13135
epoch: 1000
next table: 2317
cur table: 2281
epoch: 1000
next table: 10906
cur table: 10619
epoch: 1000
next table: 2269
cur table: 2317
epoch: 1000
next table: 10699
cur table: 10906
epoch: 1000
next table: 13044
cur table: 10699
epoch: 1000
next table: 2164
cur table: 2269
epoch: 1000
next table: 7491
cur table: 13044
epoch: 1000
next table: 2234
cur table: 2164
epoch: 1000
next table: 13447
cur table: 7491
epoch: 1000
next table: 13273
cur table: 13447
epoch: 1000
next table: 2493
cur table: 2234
epoch: 1000
next table: 10510
cur table: 13273
epoch: 1000
next table: 2349
cur table: 2493
epoch: 1000
next table: 9711
cur table: 10510
epoch: 1000
next table: 11831
cur table: 9711
epoch: 1000
next table: 2282
cur table: 2349
epoch: 1000
next table: 11795
cur table: 11831
epoch: 1000
next table: 2352
cur table: 2282
epoch: 1000
next table: 11890
cur table: 11795
epoch: 1000
next table: 10648
cur table: 11890
epoch: 1000
next table: 2261
cur table: 2352
epoch: 1000
next table: 9902
cur table: 10648
epoch: 1000
next table: 1958
cur table: 2261
epoch: 1000
next table: 11034
cur table: 9902
epoch: 1000
next table: 2427
cur table: 1958
epoch: 1000
next table: 13361
cur table: 11034
epoch: 1000
next table: 10568
cur table: 13361
epoch: 1000
next table: 2453
cur table: 2427
Heartbeat CPU 0 instructions: 90000000 cycles: 68009850 heartbeat IPC: 0.803786 cumulative IPC: 0.798732 (Simulation time: 0 hr 57 min 19 sec) 
epoch: 1000
next table: 11650
cur table: 10568
epoch: 1000
next table: 2167
cur table: 2453
epoch: 1000
next table: 12146
cur table: 11650
epoch: 1000
next table: 13114
cur table: 12146
epoch: 1000
next table: 2314
cur table: 2167
epoch: 1000
next table: 8326
cur table: 13114
epoch: 1000
next table: 2341
cur table: 2314
epoch: 1000
next table: 11411
cur table: 8326
epoch: 1000
next table: 10655
cur table: 11411
epoch: 1000
next table: 2213
cur table: 2341
epoch: 1000
next table: 9008
cur table: 10655
epoch: 1000
next table: 2230
cur table: 2213
epoch: 1000
next table: 14663
cur table: 9008
epoch: 1000
next table: 2456
cur table: 2230
epoch: 1000
next table: 12141
cur table: 14663
epoch: 1000
next table: 10058
cur table: 12141
epoch: 1000
next table: 2279
cur table: 2456
epoch: 1000
next table: 11293
cur table: 10058
epoch: 1000
next table: 2232
cur table: 2279
epoch: 1000
next table: 13282
cur table: 11293
epoch: 1000
next table: 10498
cur table: 13282
epoch: 1000
next table: 2305
cur table: 2232
epoch: 1000
next table: 13090
cur table: 10498
epoch: 1000
next table: 2325
cur table: 2305
epoch: 1000
next table: 10618
cur table: 13090
epoch: 1000
next table: 1938
cur table: 2325
epoch: 1000
next table: 10162
cur table: 10618
epoch: 1000
next table: 10987
cur table: 10162
epoch: 1000
next table: 2402
cur table: 1938
epoch: 1000
next table: 13397
cur table: 10987
epoch: 1000
next table: 2426
cur table: 2402
epoch: 1000
next table: 10446
cur table: 13397
epoch: 1000
next table: 13478
cur table: 10446
epoch: 1000
next table: 2118
cur table: 2426
epoch: 1000
next table: 12006
cur table: 13478
epoch: 1000
next table: 2260
cur table: 2118
epoch: 1000
next table: 11546
cur table: 12006
epoch: 1000
next table: 2282
cur table: 2260
epoch: 1000
next table: 11290
cur table: 11546
epoch: 1000
next table: 10683
cur table: 11290
epoch: 1000
next table: 2093
cur table: 2282
epoch: 1000
next table: 10190
cur table: 10683
epoch: 1000
next table: 2312
cur table: 2093
epoch: 1000
next table: 13384
cur table: 10190
epoch: 1000
next table: 13305
cur table: 13384
epoch: 1000
next table: 2397
cur table: 2312
epoch: 1000
next table: 10607
cur table: 13305
epoch: 1000
next table: 2222
cur table: 2397
epoch: 1000
next table: 10899
cur table: 10607
epoch: 1000
next table: 2242
cur table: 2222
epoch: 1000
next table: 12033
cur table: 10899
epoch: 1000
next table: 11862
cur table: 12033
epoch: 1000
next table: 2314
cur table: 2242
epoch: 1000
next table: 11904
cur table: 11862
epoch: 1000
next table: 2343
cur table: 2314
epoch: 1000
next table: 11863
cur table: 11904
epoch: 1000
next table: 7749
cur table: 11863
epoch: 1000
next table: 1958
cur table: 2343
epoch: 1000
next table: 12300
cur table: 7749
epoch: 1000
next table: 2357
cur table: 1958
epoch: 1000
next table: 13308
cur table: 12300
epoch: 1000
next table: 10293
cur table: 13308
epoch: 1000
next table: 2492
cur table: 2357
epoch: 1000
next table: 12156
cur table: 10293
epoch: 1000
next table: 2202
cur table: 2492
epoch: 1000
next table: 13237
cur table: 12156
epoch: 1000
next table: 2242
cur table: 2202
epoch: 1000
next table: 10652
cur table: 13237
epoch: 1000
next table: 10823
cur table: 10652
epoch: 1000
next table: 2264
cur table: 2242
epoch: 1000
next table: 11896
cur table: 10823
epoch: 1000
next table: 2046
cur table: 2264
epoch: 1000
next table: 8924
cur table: 11896
epoch: 1000
next table: 2305
cur table: 2046
epoch: 1000
next table: 13546
cur table: 8924
epoch: 1000
next table: 13350
cur table: 13546
epoch: 1000
next table: 2405
cur table: 2305
epoch: 1000
next table: 11884
cur table: 13350
epoch: 1000
next table: 2275
cur table: 2405
epoch: 1000
next table: 9627
cur table: 11884
epoch: 1000
next table: 13293
cur table: 9627
epoch: 1000
next table: 2248
cur table: 2275
epoch: 1000
next table: 10654
cur table: 13293
epoch: 1000
next table: 2270
cur table: 2248
epoch: 1000
next table: 13241
cur table: 10654
epoch: 1000
next table: 2317
cur table: 2270
epoch: 1000
next table: 10672
cur table: 13241
epoch: 1000
next table: 10127
cur table: 10672
epoch: 1000
next table: 1960
cur table: 2317
epoch: 1000
next table: 11144
cur table: 10127
epoch: 1000
next table: 2397
cur table: 1960
epoch: 1000
next table: 13403
cur table: 11144
epoch: 1000
next table: 10531
cur table: 13403
epoch: 1000
next table: 2428
cur table: 2397
epoch: 1000
next table: 13266
cur table: 10531
epoch: 1000
next table: 2229
cur table: 2428
epoch: 1000
next table: 13302
cur table: 13266
epoch: 1000
next table: 2248
cur table: 2229
epoch: 1000
next table: 11961
cur table: 13302
epoch: 1000
next table: 9528
cur table: 11961
epoch: 1000
next table: 2296
cur table: 2248
epoch: 1000
next table: 13353
cur table: 9528
epoch: 1000
next table: 1963
cur table: 2296
epoch: 1000
next table: 9370
cur table: 13353
epoch: 1000
next table: 2324
cur table: 1963
epoch: 1000
next table: 14304
cur table: 9370
epoch: 1000
next table: 10708
cur table: 14304
epoch: 1000
next table: 2443
cur table: 2324
epoch: 1000
next table: 13197
cur table: 10708
epoch: 1000
next table: 2229
cur table: 2443
epoch: 1000
next table: 9635
cur table: 13197
epoch: 1000
next table: 2202
cur table: 2229
epoch: 1000
next table: 14769
cur table: 9635
epoch: 1000
next table: 10454
cur table: 14769
epoch: 1000
next table: 2300
cur table: 2202
epoch: 1000
next table: 10667
cur table: 10454
epoch: 1000
next table: 2348
cur table: 2300
epoch: 1000
next table: 11635
cur table: 10667
epoch: 1000
next table: 8815
cur table: 11635
epoch: 1000
next table: 2005
cur table: 2348
epoch: 1000
next table: 11123
cur table: 8815
epoch: 1000
next table: 2410
cur table: 2005
epoch: 1000
next table: 13444
cur table: 11123
epoch: 1000
next table: 11793
cur table: 13444
epoch: 1000
next table: 2367
cur table: 2410
epoch: 1000
next table: 12020
cur table: 11793
epoch: 1000
next table: 2232
cur table: 2367
epoch: 1000
next table: 13194
cur table: 12020
epoch: 1000
next table: 2280
cur table: 2232
epoch: 1000
next table: 10667
cur table: 13194
epoch: 1000
next table: 10756
cur table: 10667
epoch: 1000
next table: 2300
cur table: 2280
epoch: 1000
next table: 10614
cur table: 10756
epoch: 1000
next table: 2075
cur table: 2300
epoch: 1000
next table: 8564
cur table: 10614
epoch: 1000
next table: 12239
cur table: 8564
epoch: 1000
next table: 2328
cur table: 2075
epoch: 1000
next table: 13261
cur table: 12239
epoch: 1000
next table: 2509
cur table: 2328
epoch: 1000
next table: 10660
cur table: 13261
epoch: 1000
next table: 12600
cur table: 10660
epoch: 1000
next table: 2223
cur table: 2509
epoch: 1000
next table: 10557
cur table: 12600
epoch: 1000
next table: 2242
cur table: 2223
epoch: 1000
next table: 11295
cur table: 10557
epoch: 1000
next table: 2344
cur table: 2242
epoch: 1000
next table: 12052
cur table: 11295
epoch: 1000
next table: 11876
cur table: 12052
epoch: 1000
next table: 2308
cur table: 2344
epoch: 1000
next table: 10131
cur table: 11876
epoch: 1000
next table: 1958
cur table: 2308
epoch: 1000
next table: 13325
cur table: 10131
epoch: 1000
next table: 2335
cur table: 1958
epoch: 1000
next table: 11309
cur table: 13325
epoch: 1000
next table: 10684
cur table: 11309
epoch: 1000
next table: 2384
cur table: 2335
epoch: 1000
next table: 13152
cur table: 10684
epoch: 1000
next table: 2222
cur table: 2384
epoch: 1000
next table: 13267
cur table: 13152
epoch: 1000
next table: 11956
cur table: 13267
epoch: 1000
next table: 2235
cur table: 2222
epoch: 1000
next table: 11680
cur table: 11956
epoch: 1000
next table: 2250
cur table: 2235
epoch: 1000
next table: 11362
cur table: 11680
epoch: 1000
next table: 2052
cur table: 2250
epoch: 1000
next table: 7896
cur table: 11362
epoch: 1000
next table: 13162
cur table: 7896
epoch: 1000
next table: 2302
cur table: 2052
epoch: 1000
next table: 13367
cur table: 13162
epoch: 1000
next table: 2421
cur table: 2302
epoch: 1000
next table: 13250
cur table: 13367
epoch: 1000
next table: 11111
cur table: 13250
epoch: 1000
next table: 2261
cur table: 2421
epoch: 1000
next table: 10602
cur table: 11111
epoch: 1000
next table: 2196
cur table: 2261
epoch: 1000
next table: 13204
cur table: 10602
epoch: 1000
next table: 2218
cur table: 2196
epoch: 1000
next table: 13387
cur table: 13204
epoch: 1000
next table: 10489
cur table: 13387
epoch: 1000
next table: 2315
cur table: 2218
epoch: 1000
next table: 10198
cur table: 10489
epoch: 1000
next table: 1937
cur table: 2315
epoch: 1000
next table: 12995
cur table: 10198
epoch: 1000
next table: 2354
cur table: 1937
epoch: 1000
next table: 11702
cur table: 12995
epoch: 1000
next table: 10580
cur table: 11702
Heartbeat CPU 0 instructions: 100000000 cycles: 80400613 heartbeat IPC: 0.807053 cumulative IPC: 0.800382 (Simulation time: 1 hr 2 min 29 sec) 
Finished CPU 0 instructions: 50000001 cycles: 62470135 cumulative IPC: 0.800382 (Simulation time: 1 hr 2 min 29 sec) 

ChampSim completed all CPUs

Region of Interest Statistics

CPU 0 cumulative IPC: 0.800382 instructions: 50000001 cycles: 62470135
ITLB TOTAL     ACCESS:    6689785  HIT:    6689735  MISS:         50  HIT %:    99.9993  MISS %: 0.000747408   MPKI: 0.001
ITLB LOAD TRANSLATION ACCESS:    6689785  HIT:    6689735  MISS:         50  HIT %:    99.9993  MISS %: 0.000747408   MPKI: 0.001
ITLB PREFETCH  REQUESTED:          0  ISSUED:          0  USEFUL:          0  USELESS:          0
ITLB USEFUL LOAD PREFETCHES:          0 PREFETCH ISSUED TO LOWER LEVEL:          0  ACCURACY: -nan
ITLB TIMELY PREFETCHES:          0 LATE PREFETCHES: 0 DROPPED PREFETCHES: 0
ITLB PREFETCHES SAME FILL-ORIGIN LEVEL: 0 DIFFERENT FILL-ORIGIN LEVEL: 0
ITLB AVERAGE MISS LATENCY: 370 cycles
ITLB RQ	ACCESS:    8750474	FORWARD:          0	MERGED:    2060680	TO_CACHE:    6689794

Revised Interactions: positive negative neutral
ITLB_interactions 0 0 0 -nan -nan -nan
DTLB TOTAL     ACCESS:   10576390  HIT:    6882416  MISS:    3693974  HIT %:    65.0734  MISS %:    34.9266   MPKI: 73.8795
DTLB LOAD TRANSLATION ACCESS:   10576390  HIT:    6882416  MISS:    3693974  HIT %:    65.0734  MISS %:    34.9266   MPKI: 73.8795
DTLB PREFETCH  REQUESTED:          0  ISSUED:          0  USEFUL:          0  USELESS:          0
DTLB USEFUL LOAD PREFETCHES:          0 PREFETCH ISSUED TO LOWER LEVEL:          0  ACCURACY: -nan
DTLB TIMELY PREFETCHES:          0 LATE PREFETCHES: 0 DROPPED PREFETCHES: 0
DTLB PREFETCHES SAME FILL-ORIGIN LEVEL: 0 DIFFERENT FILL-ORIGIN LEVEL: 0
DTLB AVERAGE MISS LATENCY: 10.2826 cycles
DTLB RQ	ACCESS:   14716217	FORWARD:          0	MERGED:    3881295	TO_CACHE:   10834922

Revised Interactions: positive negative neutral
DTLB_interactions 0 0 0 -nan -nan -nan
STLB TOTAL     ACCESS:    3694024  HIT:    3687827  MISS:       6197  HIT %:    99.8322  MISS %:   0.167757   MPKI: 0.12394
STLB LOAD TRANSLATION ACCESS:    3694024  HIT:    3687827  MISS:       6197  HIT %:    99.8322  MISS %:   0.167757   MPKI: 0.12394
STLB PREFETCH  REQUESTED:          0  ISSUED:          0  USEFUL:          0  USELESS:          0
STLB USEFUL LOAD PREFETCHES:          0 PREFETCH ISSUED TO LOWER LEVEL:          0  ACCURACY: -nan
STLB TIMELY PREFETCHES:          0 LATE PREFETCHES: 0 DROPPED PREFETCHES: 0
STLB PREFETCHES SAME FILL-ORIGIN LEVEL: 0 DIFFERENT FILL-ORIGIN LEVEL: 0
STLB AVERAGE MISS LATENCY: 540.579 cycles
STLB RQ	ACCESS:    3694024	FORWARD:          0	MERGED:          0	TO_CACHE:    3694024

Revised Interactions: positive negative neutral
STLB_interactions 0 0 0 -nan -nan -nan
STLB Hit, L1D data hit: 0
STLB Hit, L2C data hit: 0
STLB Hit, LLC data hit: 0
STLB Hit, LLC data miss: 0
STLB STLB hints to L2: 0
L1D TOTAL     ACCESS:   14550056  HIT:    8811116  MISS:    5738940  HIT %:    60.5573  MISS %:    39.4427   MPKI: 114.779
L1D LOAD      ACCESS:    8935467  HIT:    3595133  MISS:    5340334  HIT %:    40.2344  MISS %:    59.7656   MPKI: 106.807
L1D RFO       ACCESS:    5614589  HIT:    5215983  MISS:     398606  HIT %:    92.9005  MISS %:    7.09947   MPKI: 7.97212
L1D PREFETCH  REQUESTED:          0  ISSUED:          0  USEFUL:          0  USELESS:          0
L1D USEFUL LOAD PREFETCHES:          0 PREFETCH ISSUED TO LOWER LEVEL:          0  ACCURACY: -nan
L1D TIMELY PREFETCHES:          0 LATE PREFETCHES: 0 DROPPED PREFETCHES: 0
L1D PREFETCHES SAME FILL-ORIGIN LEVEL: 0 DIFFERENT FILL-ORIGIN LEVEL: 0
L1D AVERAGE MISS LATENCY: 36.2912 cycles
L1D RQ	ACCESS:   14449801	FORWARD:          0	MERGED:    5374969	TO_CACHE:    9070059
L1D WQ	ACCESS:    5647214	FORWARD:       4773	MERGED:       1056	TO_CACHE:    5646158

Revised Interactions: positive negative neutral
L1D_interactions 0 0 0 -nan -nan -nan
L1D UNIQUE REGIONS ACCESSED: 0
L1D REGIONS CONFLICTS: 0
L1D Cross Page Prefetch Requests: 0
L1D Same Page Prefetch Requests: 0
L1D ROI Sum of L1D PQ occupancy: 0
L1D PREFETCHES PUSHED FROM L2C: 0
L1I TOTAL     ACCESS:    8725305  HIT:    8675648  MISS:      49657  HIT %:    99.4309  MISS %:   0.569115   MPKI: 0.99314
L1I LOAD      ACCESS:    8725305  HIT:    8675648  MISS:      49657  HIT %:    99.4309  MISS %:   0.569115   MPKI: 0.99314
L1I PREFETCH  REQUESTED:          0  ISSUED:          0  USEFUL:          0  USELESS:          0
L1I USEFUL LOAD PREFETCHES:          0 PREFETCH ISSUED TO LOWER LEVEL:          0  ACCURACY: -nan
L1I TIMELY PREFETCHES:          0 LATE PREFETCHES: 0 DROPPED PREFETCHES: 0
L1I PREFETCHES SAME FILL-ORIGIN LEVEL: 0 DIFFERENT FILL-ORIGIN LEVEL: 0
L1I AVERAGE MISS LATENCY: 17.1136 cycles
L1I RQ	ACCESS:   12935730	FORWARD:          0	MERGED:    4185256	TO_CACHE:    8750474

Revised Interactions: positive negative neutral
L1I_interactions 0 0 0 -nan -nan -nan
BTB TOTAL     ACCESS:      73960  HIT:      70750  MISS:       3210  HIT %:    95.6598  MISS %:    4.34018   MPKI: 0.0642
BTB BRANCH_DIRECT_JUMP	ACCESS:      16920  HIT:      16886  MISS:         34
BTB BRANCH_INDIRECT	ACCESS:      14629  HIT:      14551  MISS:         78
BTB BRANCH_CONDITIONAL	ACCESS:      30377  HIT:      29979  MISS:        398
BTB BRANCH_DIRECT_CALL	ACCESS:       6013  HIT:       5388  MISS:        625
BTB BRANCH_INDIRECT_CALL	ACCESS:          3  HIT:          0  MISS:          3
BTB BRANCH_RETURN	ACCESS:       6018  HIT:       3946  MISS:       2072
BTB BRANCH_OTHER ACCESS:          0  HIT:          0  MISS:          0

L2C TOTAL     ACCESS:    6601750  HIT:    6058273  MISS:     543477  HIT %:    91.7677  MISS %:    8.23232   MPKI: 10.8695
L2C LOAD      ACCESS:    5290398  HIT:    4814174  MISS:     476224  HIT %:    90.9983  MISS %:    9.00167   MPKI: 9.52448
L2C DATA LOAD MPKI: 9.50758
L2C INSTRUCTION LOAD MPKI: 0.0169
L2C RFO       ACCESS:     397947  HIT:     389290  MISS:       8657  HIT %:    97.8246  MISS %:    2.17542   MPKI: 0.17314
L2C PREFETCH  ACCESS:     459617  HIT:     409872  MISS:      49745  HIT %:    89.1769  MISS %:    10.8231   MPKI: 0.9949
L2C DATA PREFETCH MPKI: 0.9949
L2C INSTRUCTION PREFETCH MPKI: 0
L2C WRITEBACK ACCESS:     444228  HIT:     443816  MISS:        412  HIT %:    99.9073  MISS %:  0.0927452   MPKI: 0.00824
L2C LOAD TRANSLATION ACCESS:       9560  HIT:       1121  MISS:       8439  HIT %:    11.7259  MISS %:    88.2741   MPKI: 0.16878
L2C PREFETCH  REQUESTED:     462731  ISSUED:     462731  USEFUL:      41253  USELESS:       8667
L2C USEFUL LOAD PREFETCHES:      41253 PREFETCH ISSUED TO LOWER LEVEL:      50749  ACCURACY: 81.2883
L2C TIMELY PREFETCHES:      41253 LATE PREFETCHES: 1004 DROPPED PREFETCHES: 0
L2C PREFETCHES SAME FILL-ORIGIN LEVEL: 50749 DIFFERENT FILL-ORIGIN LEVEL: 0
L2C AVERAGE MISS LATENCY: 231.883 cycles
L2C RQ	ACCESS:    5798157	FORWARD:          0	MERGED:          0	TO_CACHE:    5697905
L2C WQ	ACCESS:     444228	FORWARD:     100252	MERGED:          0	TO_CACHE:     444228
L2C PQ	ACCESS:     462731	FORWARD:          0	MERGED:          2	TO_CACHE:     462729

Revised Interactions: positive negative neutral
L2C_interactions 31885 15008 7550 58.5658 27.5664 13.8677
L2C Instructions Evicting Data 761
L2C Translations Evicting Data 8301
L2C Data Evicting Data 524628
L2C Instructions Evicting Instructions 57
L2C Translations Evicting Instructions 28
L2C Data Evicting Instructions 903
L2C Instructions Evicting Translations 27
L2C Translations Evicting Translations 110
L2C Data Evicting Translations 8250
L2C Dense regions hint from L2: 0
PSCL5 TOTAL     ACCESS:       6197  HIT:       6197  MISS:          0  HIT %:        100  MISS %:          0   MPKI: 0
PSCL5 LOAD TRANSLATION ACCESS:       6197  HIT:       6197  MISS:          0  HIT %:        100  MISS %:          0   MPKI: 0
PSCL5 PREFETCH  REQUESTED:          0  ISSUED:          0  USEFUL:          0  USELESS:          0
PSCL5 USEFUL LOAD PREFETCHES:          0 PREFETCH ISSUED TO LOWER LEVEL:          0  ACCURACY: -nan
PSCL5 TIMELY PREFETCHES:          0 LATE PREFETCHES: 0 DROPPED PREFETCHES: 0
PSCL5 PREFETCHES SAME FILL-ORIGIN LEVEL: 0 DIFFERENT FILL-ORIGIN LEVEL: 0

Revised Interactions: positive negative neutral
PSCL5_interactions 0 0 0 -nan -nan -nan
PSCL4 TOTAL     ACCESS:       6197  HIT:       6197  MISS:          0  HIT %:        100  MISS %:          0   MPKI: 0
PSCL4 LOAD TRANSLATION ACCESS:       6197  HIT:       6197  MISS:          0  HIT %:        100  MISS %:          0   MPKI: 0
PSCL4 PREFETCH  REQUESTED:          0  ISSUED:          0  USEFUL:          0  USELESS:          0
PSCL4 USEFUL LOAD PREFETCHES:          0 PREFETCH ISSUED TO LOWER LEVEL:          0  ACCURACY: -nan
PSCL4 TIMELY PREFETCHES:          0 LATE PREFETCHES: 0 DROPPED PREFETCHES: 0
PSCL4 PREFETCHES SAME FILL-ORIGIN LEVEL: 0 DIFFERENT FILL-ORIGIN LEVEL: 0

Revised Interactions: positive negative neutral
PSCL4_interactions 0 0 0 -nan -nan -nan
PSCL3 TOTAL     ACCESS:       6197  HIT:       6193  MISS:          4  HIT %:    99.9355  MISS %:  0.0645474   MPKI: 8e-05
PSCL3 LOAD TRANSLATION ACCESS:       6197  HIT:       6193  MISS:          4  HIT %:    99.9355  MISS %:  0.0645474   MPKI: 8e-05
PSCL3 PREFETCH  REQUESTED:          0  ISSUED:          0  USEFUL:          0  USELESS:          0
PSCL3 USEFUL LOAD PREFETCHES:          0 PREFETCH ISSUED TO LOWER LEVEL:          0  ACCURACY: -nan
PSCL3 TIMELY PREFETCHES:          0 LATE PREFETCHES: 0 DROPPED PREFETCHES: 0
PSCL3 PREFETCHES SAME FILL-ORIGIN LEVEL: 0 DIFFERENT FILL-ORIGIN LEVEL: 0

Revised Interactions: positive negative neutral
PSCL3_interactions 0 0 0 -nan -nan -nan
PSCL2 TOTAL     ACCESS:       6197  HIT:       2774  MISS:       3423  HIT %:    44.7636  MISS %:    55.2364   MPKI: 0.06846
PSCL2 LOAD TRANSLATION ACCESS:       6197  HIT:       2774  MISS:       3423  HIT %:    44.7636  MISS %:    55.2364   MPKI: 0.06846
PSCL2 PREFETCH  REQUESTED:          0  ISSUED:          0  USEFUL:          0  USELESS:          0
PSCL2 USEFUL LOAD PREFETCHES:          0 PREFETCH ISSUED TO LOWER LEVEL:          0  ACCURACY: -nan
PSCL2 TIMELY PREFETCHES:          0 LATE PREFETCHES: 0 DROPPED PREFETCHES: 0
PSCL2 PREFETCHES SAME FILL-ORIGIN LEVEL: 0 DIFFERENT FILL-ORIGIN LEVEL: 0

Revised Interactions: positive negative neutral
PSCL2_interactions 0 0 0 -nan -nan -nan
LLC TOTAL     ACCESS:     593132  HIT:     187676  MISS:     405456  HIT %:    31.6415  MISS %:    68.3585   MPKI: 8.10912
LLC LOAD      ACCESS:     475195  HIT:     109745  MISS:     365450  HIT %:    23.0947  MISS %:    76.9053   MPKI: 7.309
LLC RFO       ACCESS:       8515  HIT:       7196  MISS:       1319  HIT %:    84.5097  MISS %:    15.4903   MPKI: 0.02638
LLC PREFETCH  ACCESS:      50747  HIT:      34211  MISS:      16536  HIT %:    67.4148  MISS %:    32.5852   MPKI: 0.33072
LLC WRITEBACK ACCESS:      50236  HIT:      30727  MISS:      19509  HIT %:    61.1653  MISS %:    38.8347   MPKI: 0.39018
LLC LOAD TRANSLATION ACCESS:       8439  HIT:       5797  MISS:       2642  HIT %:     68.693  MISS %:     31.307   MPKI: 0.05284
LLC PREFETCH  REQUESTED:          0  ISSUED:          0  USEFUL:       5570  USELESS:      14096
LLC USEFUL LOAD PREFETCHES:       5570 PREFETCH ISSUED TO LOWER LEVEL:      16536  ACCURACY: 33.6841
LLC TIMELY PREFETCHES:       5570 LATE PREFETCHES: 0 DROPPED PREFETCHES: 0
LLC PREFETCHES SAME FILL-ORIGIN LEVEL: 0 DIFFERENT FILL-ORIGIN LEVEL: 0
LLC AVERAGE MISS LATENCY: 269.25 cycles
LLC RQ	ACCESS:     492316	FORWARD:          0	MERGED:          0	TO_CACHE:     492149
LLC WQ	ACCESS:      50236	FORWARD:        169	MERGED:          0	TO_CACHE:      50236
LLC PQ	ACCESS:      50749	FORWARD:          0	MERGED:          0	TO_CACHE:      50747

Revised Interactions: positive negative neutral
LLC_interactions 1817 16274 10929 6.2612 56.0786 37.6602
LLC Dense regions hint to LLC: 0

RAW hits: 23646
Loads Generated: 14473447
Loads sent to L1D: 14449801
Stores Generated: 5647292
Stores sent to L1D: 5647286
Major fault: 0 Minor fault: 8641
Allocated PAGES: 8641
[Bingo] PHT Access: 3002923
[Bingo] PHT Hit PC+Addr: 10416
[Bingo] PHT Hit PC+Offs: 52127
[Bingo] PHT Miss: 2940380
[Bingo] Prefetch PC+Addr: 0
[Bingo] Prefetch PC+Offs: 0
[Bingo] Useful PC+Addr: 0
[Bingo] Useful PC+Offs: 0
[Bingo] Useless PC+Addr: 0
[Bingo] Useless PC+Offs: 0
[Bingo] L1 Prefetch per Region: 0
[Bingo] L2 Prefetch per Region: 9.64576
[Bingo] L3 Prefetch per Region: 0
[Bingo] No Prefetch per Region: 22.3542
[Bingo] Number of Voters Mean: 6.18181
[Bingo] Number of Voters SD: 7.92452
PHT read accesses: 47001902
PHT write accesses: 43208
AT read accesses: 2278606
AT write accesses: 2280886
FT read accesses: 174404
FT write accesses: 3002923
PS read accesses: 137350
PS write accesses: 62543
PHT tag read accesses: 49206512
PHT tag write accesses: 53624
AT tag read accesses: 94225012
AT tag write accesses: 2321801
FT tag read accesses: 153562783
FT tag write accesses: 3134005
PS tag read accesses: 85821199
PS tag write accesses: 193095

DRAM Statistics
 CHANNEL 0
 RQ ROW_BUFFER_HIT:     191238  ROW_BUFFER_MISS:     194709
 DBUS_CONGESTED:        114
 WQ ROW_BUFFER_HIT:      20629  ROW_BUFFER_MISS:      26413  FULL:          0

 AVG_CONGESTED_CYCLE: 5
 All warmup complete: 2
Channel 0 Bank busy for read cycles: 0
Channel 0 Bank busy for write cycles: 0
Channel 0
Rank 0
0banks busy for read cycles: 39758046
0banks busy for write cycles: 8939
1banks busy for read cycles: 7241688
1banks busy for write cycles: 1849555
2banks busy for read cycles: 1399646
2banks busy for write cycles: 1142973
3banks busy for read cycles: 8574423
3banks busy for write cycles: 1392929
4banks busy for read cycles: 431593
4banks busy for write cycles: 411494
5banks busy for read cycles: 91079
5banks busy for write cycles: 35851
6banks busy for read cycles: 21451
6banks busy for write cycles: 12946
7banks busy for read cycles: 20849
7banks busy for write cycles: 5413
8banks busy for read cycles: 68584
8banks busy for write cycles: 2677

CPU 0 Branch Prediction Accuracy: 97.6117% MPKI: 0.04808 Average ROB Occupancy at Mispredict: 19.5216
Branch types
NOT_BRANCH: 49899054 99.7981%
BRANCH_DIRECT_JUMP: 16920 0.03384%
BRANCH_INDIRECT: 14629 0.029258%
BRANCH_CONDITIONAL: 57074 0.114148%
BRANCH_DIRECT_CALL: 6013 0.012026%
BRANCH_INDIRECT_CALL: 3 6e-06%
BRANCH_RETURN: 6018 0.012036%
BRANCH_OTHER: 0 0%

@sumon_overall_L1D         0         0         0         0         0         0         0
@Sumon_Early_by_class_L1D         0         0         0         0
@Sumon_Late_by_class_L1D         0         0         0         0

@Sumon_Early_by_cycle_L1D         0         0         0         0         0         0         0         0         0         0         0         0
@Sumon_Late_by_cycle_L1D         0         0         0         0         0         0
@Sumon_Early_stream_L1D         0         0         0         0         0         0         0         0         0         0         0         0
@Sumon_Early_CS_L1D         0         0         0         0         0         0         0         0         0         0         0         0
@Sumon_Early_CPLX_L1D         0         0         0         0         0         0         0         0         0         0         0         0
@Sumon_Late_stream_L1D         0         0         0         0         0         0
@Sumon_Late_CS_L1D         0         0         0         0         0         0
@Sumon_Late_CPLX_L1D         0         0         0         0         0         0
@sumon_overall_L2C     41253      1004         0      8667     49745    462731    462731
@Sumon_Early_by_class_L2C         0         0         0         0
@Sumon_Late_by_class_L2C         0         0         0         0

@Sumon_Early_by_cycle_L2C       120        74        51        23        10        13       276       959     10353      8385      6255     14734
@Sumon_Late_by_cycle_L2C        58       438       492         1        15         0
@Sumon_Early_stream_L2C         0         0         0         0         0         0         0         0         0         0         0         0
@Sumon_Early_CS_L2C         0         0         0         0         0         0         0         0         0         0         0         0
@Sumon_Early_CPLX_L2C         0         0         0         0         0         0         0         0         0         0         0         0
@Sumon_Late_stream_L2C         0         0         0         0         0         0
@Sumon_Late_CS_L2C         0         0         0         0         0         0
@Sumon_Late_CPLX_L2C         0         0         0         0         0         0
DRAM PAGES: 1048576
Allocated PAGES: 8641
