
*** ChampSim Multicore Out-of-Order Simulator ***

Warmup Instructions: 50000000
Simulation Instructions: 50000000
Number of CPUs: 1
LLC sets: 2048
LLC ways: 16
Off-chip DRAM Size: 4096 MB Channels: 1 Width: 64-bit Data Rate: 6400 MT/s
CPU 0 runs ../../biswa/SPEC2017Traces/607.cactuBSSN_s-3477B.champsimtrace.xz
.xz
CPU 0 Bimodal branch predictor
BTB has LRU replacement policy
ITLB has LRU replacement policy
DTLB has LRU replacement policy
STLB has LRU replacement policy
L1I has LRU replacement policy
L1D has LRU replacement policy
Bingo PHT WAYS: 16 and PHT_SIZE: 16384
Initialize DRRIP state for L2C
Initialize SRRIP state
epoch: 1000
next table: 22324
cur table: 83454
epoch: 1000
next table: 25743
cur table: 22324
epoch: 1000
next table: 21944
cur table: 25743
epoch: 1000
next table: 25802
cur table: 21944
epoch: 1000
next table: 21879
cur table: 25802
epoch: 1000
next table: 19513
cur table: 21879
epoch: 1000
next table: 23559
cur table: 19513
epoch: 1000
next table: 26934
cur table: 23559
epoch: 1000
next table: 17800
cur table: 26934
epoch: 1000
next table: 22317
cur table: 17800
epoch: 1000
next table: 26149
cur table: 22317
epoch: 1000
next table: 23810
cur table: 26149
epoch: 1000
next table: 25035
cur table: 23810
epoch: 1000
next table: 23109
cur table: 25035
epoch: 1000
next table: 23793
cur table: 23109
epoch: 1000
next table: 21138
cur table: 23793
epoch: 1000
next table: 28033
cur table: 21138
epoch: 1000
next table: 18180
cur table: 28033
epoch: 1000
next table: 23723
cur table: 18180
epoch: 1000
next table: 25813
cur table: 23723
epoch: 1000
next table: 23765
cur table: 25813
epoch: 1000
next table: 18723
cur table: 23765
epoch: 1000
next table: 20404
cur table: 18723
epoch: 1000
next table: 23691
cur table: 20404
epoch: 1000
next table: 21264
cur table: 23691
epoch: 1000
next table: 19162
cur table: 21264
epoch: 1000
next table: 18200
cur table: 19162
epoch: 1000
next table: 22269
cur table: 18200
epoch: 1000
next table: 20447
cur table: 22269
epoch: 1000
next table: 19232
cur table: 20447
epoch: 1000
next table: 21031
cur table: 19232
epoch: 1000
next table: 16823
cur table: 21031
epoch: 1000
next table: 19296
cur table: 16823
epoch: 1000
next table: 21099
cur table: 19296
epoch: 1000
next table: 24798
cur table: 21099
epoch: 1000
next table: 17427
cur table: 24798
epoch: 1000
next table: 15322
cur table: 17427
epoch: 1000
next table: 23838
cur table: 15322
epoch: 1000
next table: 22187
cur table: 23838
epoch: 1000
next table: 16277
cur table: 22187
epoch: 1000
next table: 18791
cur table: 16277
epoch: 1000
next table: 20486
cur table: 18791
epoch: 1000
next table: 22011
cur table: 20486
epoch: 1000
next table: 20599
cur table: 22011
epoch: 1000
next table: 19390
cur table: 20599
Heartbeat CPU 0 instructions: 10000000 cycles: 3672341 heartbeat IPC: 2.72306 cumulative IPC: 2.72306 (Simulation time: 0 hr 6 min 35 sec) 
epoch: 1000
next table: 20343
cur table: 19390
epoch: 1000
next table: 4531
cur table: 39200
epoch: 1000
next table: 20431
cur table: 20343
epoch: 1000
next table: 19261
cur table: 20431
epoch: 1000
next table: 21513
cur table: 19261
epoch: 1000
next table: 3084
cur table: 4531
epoch: 1000
next table: 23398
cur table: 21513
epoch: 1000
next table: 17726
cur table: 23398
epoch: 1000
next table: 19002
cur table: 17726
epoch: 1000
next table: 2869
cur table: 3084
epoch: 1000
next table: 21776
cur table: 19002
epoch: 1000
next table: 19310
cur table: 21776
epoch: 1000
next table: 20799
cur table: 19310
epoch: 1000
next table: 2646
cur table: 2869
epoch: 1000
next table: 17377
cur table: 20799
epoch: 1000
next table: 22089
cur table: 17377
epoch: 1000
next table: 2384
cur table: 2646
epoch: 1000
next table: 19298
cur table: 22089
epoch: 1000
next table: 21374
cur table: 19298
epoch: 1000
next table: 2298
cur table: 2384
epoch: 1000
next table: 23347
cur table: 21374
epoch: 1000
next table: 16079
cur table: 23347
epoch: 1000
next table: 2429
cur table: 2298
epoch: 1000
next table: 19275
cur table: 16079
epoch: 1000
next table: 16383
cur table: 19275
epoch: 1000
next table: 2185
cur table: 2429
epoch: 1000
next table: 17480
cur table: 16383
epoch: 1000
next table: 23405
cur table: 17480
epoch: 1000
next table: 2296
cur table: 2185
epoch: 1000
next table: 16494
cur table: 23405
epoch: 1000
next table: 18428
cur table: 16494
epoch: 1000
next table: 2300
cur table: 2296
epoch: 1000
next table: 22387
cur table: 18428
epoch: 1000
next table: 19365
cur table: 22387
epoch: 1000
next table: 2279
cur table: 2300
epoch: 1000
next table: 20117
cur table: 19365
epoch: 1000
next table: 18951
cur table: 20117
epoch: 1000
next table: 2298
cur table: 2279
epoch: 1000
next table: 22444
cur table: 18951
epoch: 1000
next table: 20288
cur table: 22444
epoch: 1000
next table: 2275
cur table: 2298
epoch: 1000
next table: 20440
cur table: 20288
epoch: 1000
next table: 23808
cur table: 20440
epoch: 1000
next table: 2230
cur table: 2275
epoch: 1000
next table: 17492
cur table: 23808
epoch: 1000
next table: 21260
cur table: 17492
epoch: 1000
next table: 2290
cur table: 2230
epoch: 1000
next table: 19770
cur table: 21260
epoch: 1000
next table: 23548
cur table: 19770
epoch: 1000
next table: 2269
cur table: 2290
epoch: 1000
next table: 18850
cur table: 23548
epoch: 1000
next table: 17584
cur table: 18850
epoch: 1000
next table: 2210
cur table: 2269
epoch: 1000
next table: 22097
cur table: 17584
epoch: 1000
next table: 21855
cur table: 22097
epoch: 1000
next table: 2386
cur table: 2210
epoch: 1000
next table: 18041
cur table: 21855
epoch: 1000
next table: 21366
cur table: 18041
epoch: 1000
next table: 2258
cur table: 2386
epoch: 1000
next table: 20395
cur table: 21366
epoch: 1000
next table: 2150
cur table: 2258
epoch: 1000
next table: 22989
cur table: 20395
epoch: 1000
next table: 20902
cur table: 22989
epoch: 1000
next table: 2201
cur table: 2150
epoch: 1000
next table: 26919
cur table: 20902
epoch: 1000
next table: 20379
cur table: 26919
epoch: 1000
next table: 2156
cur table: 2201
epoch: 1000
next table: 23731
cur table: 20379
epoch: 1000
next table: 2138
cur table: 2156
epoch: 1000
next table: 27607
cur table: 23731
epoch: 1000
next table: 24010
cur table: 27607
epoch: 1000
next table: 2055
cur table: 2138
epoch: 1000
next table: 20135
cur table: 24010
epoch: 1000
next table: 27999
cur table: 20135
epoch: 1000
next table: 2123
cur table: 2055
epoch: 1000
next table: 22682
cur table: 27999
epoch: 1000
next table: 2191
cur table: 2123
Heartbeat CPU 0 instructions: 20000003 cycles: 7343045 heartbeat IPC: 2.72427 cumulative IPC: 2.72367 (Simulation time: 0 hr 12 min 57 sec) 
epoch: 1000
next table: 24934
cur table: 22682
epoch: 1000
next table: 24340
cur table: 24934
epoch: 1000
next table: 2185
cur table: 2191
epoch: 1000
next table: 24140
cur table: 24340
epoch: 1000
next table: 1981
cur table: 2185
epoch: 1000
next table: 27659
cur table: 24140
epoch: 1000
next table: 28329
cur table: 27659
epoch: 1000
next table: 2145
cur table: 1981
epoch: 1000
next table: 20391
cur table: 28329
epoch: 1000
next table: 2044
cur table: 2145
epoch: 1000
next table: 24155
cur table: 20391
epoch: 1000
next table: 31700
cur table: 24155
epoch: 1000
next table: 2043
cur table: 2044
epoch: 1000
next table: 22556
cur table: 31700
epoch: 1000
next table: 21287
cur table: 22556
epoch: 1000
next table: 2133
cur table: 2043
epoch: 1000
next table: 27208
cur table: 21287
epoch: 1000
next table: 2180
cur table: 2133
epoch: 1000
next table: 20428
cur table: 27208
epoch: 1000
next table: 23285
cur table: 20428
epoch: 1000
next table: 2146
cur table: 2180
epoch: 1000
next table: 20640
cur table: 23285
epoch: 1000
next table: 23238
cur table: 20640
epoch: 1000
next table: 2089
cur table: 2146
epoch: 1000
next table: 20509
cur table: 23238
epoch: 1000
next table: 24744
cur table: 20509
epoch: 1000
next table: 2290
cur table: 2089
epoch: 1000
next table: 21420
cur table: 24744
epoch: 1000
next table: 18251
cur table: 21420
epoch: 1000
next table: 2241
cur table: 2290
epoch: 1000
next table: 19710
cur table: 18251
epoch: 1000
next table: 24955
cur table: 19710
epoch: 1000
next table: 2173
cur table: 2241
epoch: 1000
next table: 19276
cur table: 24955
epoch: 1000
next table: 2090
cur table: 2173
epoch: 1000
next table: 19695
cur table: 19276
epoch: 1000
next table: 19333
cur table: 19695
epoch: 1000
next table: 2325
cur table: 2090
epoch: 1000
next table: 23795
cur table: 19333
epoch: 1000
next table: 18880
cur table: 23795
epoch: 1000
next table: 19273
cur table: 18880
epoch: 1000
next table: 2257
cur table: 2325
epoch: 1000
next table: 20153
cur table: 19273
epoch: 1000
next table: 2167
cur table: 2257
epoch: 1000
next table: 19815
cur table: 20153
epoch: 1000
next table: 23317
cur table: 19815
epoch: 1000
next table: 2135
cur table: 2167
epoch: 1000
next table: 18743
cur table: 23317
epoch: 1000
next table: 23602
cur table: 18743
epoch: 1000
next table: 2247
cur table: 2135
epoch: 1000
next table: 16789
cur table: 23602
epoch: 1000
next table: 18676
cur table: 16789
epoch: 1000
next table: 2224
cur table: 2247
epoch: 1000
next table: 22854
cur table: 18676
epoch: 1000
next table: 22952
cur table: 22854
epoch: 1000
next table: 2131
cur table: 2224
epoch: 1000
next table: 19905
cur table: 22952
epoch: 1000
next table: 15670
cur table: 19905
epoch: 1000
next table: 2230
cur table: 2131
epoch: 1000
next table: 23433
cur table: 15670
epoch: 1000
next table: 17517
cur table: 23433
epoch: 1000
next table: 2313
cur table: 2230
epoch: 1000
next table: 20957
cur table: 17517
epoch: 1000
next table: 21091
cur table: 20957
epoch: 1000
next table: 2235
cur table: 2313
epoch: 1000
next table: 20224
cur table: 21091
epoch: 1000
next table: 17420
cur table: 20224
epoch: 1000
next table: 2185
cur table: 2235
epoch: 1000
next table: 23220
cur table: 17420
epoch: 1000
next table: 22439
cur table: 23220
epoch: 1000
next table: 2335
cur table: 2185
epoch: 1000
next table: 19962
cur table: 22439
epoch: 1000
next table: 15899
cur table: 19962
epoch: 1000
next table: 2214
cur table: 2335
epoch: 1000
next table: 20105
cur table: 15899
epoch: 1000
next table: 25897
cur table: 20105
epoch: 1000
next table: 2126
cur table: 2214
Heartbeat CPU 0 instructions: 30000000 cycles: 11013312 heartbeat IPC: 2.7246 cumulative IPC: 2.72398 (Simulation time: 0 hr 19 min 16 sec) 
epoch: 1000
next table: 20046
cur table: 25897
epoch: 1000
next table: 19571
cur table: 20046
epoch: 1000
next table: 2198
cur table: 2126
epoch: 1000
next table: 19994
cur table: 19571
epoch: 1000
next table: 22907
cur table: 19994
epoch: 1000
next table: 2309
cur table: 2198
epoch: 1000
next table: 17019
cur table: 22907
epoch: 1000
next table: 18456
cur table: 17019
epoch: 1000
next table: 2242
cur table: 2309
epoch: 1000
next table: 22427
cur table: 18456
epoch: 1000
next table: 19894
cur table: 22427
epoch: 1000
next table: 2121
cur table: 2242
epoch: 1000
next table: 20316
cur table: 19894
epoch: 1000
next table: 20706
cur table: 20316
epoch: 1000
next table: 2189
cur table: 2121
epoch: 1000
next table: 23587
cur table: 20706
epoch: 1000
next table: 16756
cur table: 23587
epoch: 1000
next table: 2292
cur table: 2189
epoch: 1000
next table: 20158
cur table: 16756
epoch: 1000
next table: 2120
cur table: 2292
epoch: 1000
next table: 21395
cur table: 20158
epoch: 1000
next table: 21625
cur table: 21395
epoch: 1000
next table: 19365
cur table: 21625
epoch: 1000
next table: 2305
cur table: 2120
epoch: 1000
next table: 17502
cur table: 19365
epoch: 1000
next table: 2203
cur table: 2305
epoch: 1000
next table: 21776
cur table: 17502
epoch: 1000
next table: 19109
cur table: 21776
epoch: 1000
next table: 22216
cur table: 19109
epoch: 1000
next table: 2296
cur table: 2203
epoch: 1000
next table: 20674
cur table: 22216
epoch: 1000
next table: 2271
cur table: 2296
epoch: 1000
next table: 19832
cur table: 20674
epoch: 1000
next table: 23791
cur table: 19832
epoch: 1000
next table: 2093
cur table: 2271
epoch: 1000
next table: 23484
cur table: 23791
epoch: 1000
next table: 25940
cur table: 23484
epoch: 1000
next table: 2154
cur table: 2093
epoch: 1000
next table: 20030
cur table: 25940
epoch: 1000
next table: 2204
cur table: 2154
epoch: 1000
next table: 26091
cur table: 20030
epoch: 1000
next table: 27867
cur table: 26091
epoch: 1000
next table: 2037
cur table: 2204
epoch: 1000
next table: 28311
cur table: 27867
epoch: 1000
next table: 2127
cur table: 2037
epoch: 1000
next table: 20570
cur table: 28311
epoch: 1000
next table: 27986
cur table: 20570
epoch: 1000
next table: 2155
cur table: 2127
epoch: 1000
next table: 23961
cur table: 27986
epoch: 1000
next table: 27479
cur table: 23961
epoch: 1000
next table: 2149
cur table: 2155
epoch: 1000
next table: 20688
cur table: 27479
epoch: 1000
next table: 2176
cur table: 2149
epoch: 1000
next table: 24502
cur table: 20688
epoch: 1000
next table: 27470
cur table: 24502
epoch: 1000
next table: 2128
cur table: 2176
epoch: 1000
next table: 24063
cur table: 27470
epoch: 1000
next table: 20715
cur table: 24063
epoch: 1000
next table: 2141
cur table: 2128
epoch: 1000
next table: 26411
cur table: 20715
epoch: 1000
next table: 2148
cur table: 2141
epoch: 1000
next table: 24239
cur table: 26411
epoch: 1000
next table: 23624
cur table: 24239
epoch: 1000
next table: 2187
cur table: 2148
epoch: 1000
next table: 19869
cur table: 23624
epoch: 1000
next table: 27484
cur table: 19869
epoch: 1000
next table: 2249
cur table: 2187
epoch: 1000
next table: 18089
cur table: 27484
epoch: 1000
next table: 20630
cur table: 18089
epoch: 1000
next table: 2105
cur table: 2249
epoch: 1000
next table: 25556
cur table: 20630
epoch: 1000
next table: 2125
cur table: 2105
epoch: 1000
next table: 18537
cur table: 25556
epoch: 1000
next table: 21419
cur table: 18537
epoch: 1000
next table: 2137
cur table: 2125
Heartbeat CPU 0 instructions: 40000003 cycles: 14683809 heartbeat IPC: 2.72443 cumulative IPC: 2.72409 (Simulation time: 0 hr 26 min 20 sec) 
epoch: 1000
next table: 25840
cur table: 21419
epoch: 1000
next table: 19561
cur table: 25840
epoch: 1000
next table: 2183
cur table: 2137
epoch: 1000
next table: 17432
cur table: 19561
epoch: 1000
next table: 21600
cur table: 17432
epoch: 1000
next table: 2200
cur table: 2183
epoch: 1000
next table: 25555
cur table: 21600
epoch: 1000
next table: 17132
cur table: 25555
epoch: 1000
next table: 2130
cur table: 2200
epoch: 1000
next table: 22143
cur table: 17132
epoch: 1000
next table: 21113
cur table: 22143
epoch: 1000
next table: 2280
cur table: 2130
epoch: 1000
next table: 19504
cur table: 21113
epoch: 1000
next table: 2141
cur table: 2280
epoch: 1000
next table: 16864
cur table: 19504
epoch: 1000
next table: 17517
cur table: 16864
epoch: 1000
next table: 2256
cur table: 2141
epoch: 1000
next table: 23554
cur table: 17517
epoch: 1000
next table: 17397
cur table: 23554
epoch: 1000
next table: 2219
cur table: 2256
epoch: 1000
next table: 20455
cur table: 17397
epoch: 1000
next table: 20025
cur table: 20455
epoch: 1000
next table: 2219
cur table: 2219
epoch: 1000
next table: 23510
cur table: 20025
epoch: 1000
next table: 19212
cur table: 23510
epoch: 1000
next table: 2204
cur table: 2219
epoch: 1000
next table: 16013
cur table: 19212
epoch: 1000
next table: 18803
cur table: 16013
epoch: 1000
next table: 2153
cur table: 2204
epoch: 1000
next table: 23667
cur table: 18803
epoch: 1000
next table: 18852
cur table: 23667
epoch: 1000
next table: 2181
cur table: 2153
epoch: 1000
next table: 19341
cur table: 18852
epoch: 1000
next table: 19696
cur table: 19341
epoch: 1000
next table: 2175
cur table: 2181
epoch: 1000
next table: 19815
cur table: 19696
epoch: 1000
next table: 16842
cur table: 19815
epoch: 1000
next table: 2171
cur table: 2175
epoch: 1000
next table: 18079
cur table: 16842
epoch: 1000
next table: 26626
cur table: 18079
epoch: 1000
next table: 2180
cur table: 2171
epoch: 1000
next table: 16009
cur table: 26626
epoch: 1000
next table: 2165
cur table: 2180
epoch: 1000
next table: 19738
cur table: 16009
epoch: 1000
next table: 23216
cur table: 19738
epoch: 1000
next table: 2110
cur table: 2165
epoch: 1000
next table: 23776
cur table: 23216
epoch: 1000
next table: 22714
cur table: 23776
epoch: 1000
next table: 2123
cur table: 2110
epoch: 1000
next table: 21216
cur table: 22714
epoch: 1000
next table: 27621
cur table: 21216
epoch: 1000
next table: 2116
cur table: 2123
epoch: 1000
next table: 25680
cur table: 27621
epoch: 1000
next table: 2002
cur table: 2116
epoch: 1000
next table: 21578
cur table: 25680
epoch: 1000
next table: 1822
cur table: 2002
epoch: 1000
next table: 3486
cur table: 21578
epoch: 1000
next table: 1652
cur table: 1822
epoch: 1000
next table: 12113
cur table: 3486
epoch: 1000
next table: 11294
cur table: 12113
epoch: 1000
next table: 1493
cur table: 1652
epoch: 1000
next table: 11035
cur table: 11294
epoch: 1000
next table: 1525
cur table: 1493
epoch: 1000
next table: 13298
cur table: 11035
epoch: 1000
next table: 1643
cur table: 1525
epoch: 1000
next table: 12567
cur table: 13298
epoch: 1000
next table: 1649
cur table: 1643
epoch: 1000
next table: 14706
cur table: 12567
epoch: 1000
next table: 1748
cur table: 1649
epoch: 1000
next table: 16573
cur table: 14706
epoch: 1000
next table: 1828
cur table: 1748
epoch: 1000
next table: 15633
cur table: 16573
epoch: 1000
next table: 1902
cur table: 1828
epoch: 1000
next table: 25131
cur table: 15633
epoch: 1000
next table: 27052
cur table: 25131
epoch: 1000
next table: 2006
cur table: 1902
epoch: 1000
next table: 28201
cur table: 27052
epoch: 1000
next table: 1926
cur table: 2006
epoch: 1000
next table: 24332
cur table: 28201
epoch: 1000
next table: 1993
cur table: 1926
epoch: 1000
next table: 28439
cur table: 24332
epoch: 1000
next table: 1845
cur table: 1993
epoch: 1000
next table: 27960
cur table: 28439
epoch: 1000
next table: 27528
cur table: 27960
epoch: 1000
next table: 1960
cur table: 1845
epoch: 1000
next table: 23870
cur table: 27528
epoch: 1000
next table: 1981
cur table: 1960
Heartbeat CPU 0 instructions: 50000000 cycles: 18356590 heartbeat IPC: 2.72273 cumulative IPC: 2.72382 (Simulation time: 0 hr 32 min 23 sec) 

Warmup complete CPU 0 instructions: 50000004 cycles: 18356591 (Simulation time: 0 hr 32 min 23 sec) 

epoch: 1000
next table: 25311
cur table: 25909
epoch: 1000
next table: 2076
cur table: 2047
epoch: 1000
next table: 20152
cur table: 25311
epoch: 1000
next table: 29759
cur table: 20152
epoch: 1000
next table: 2013
cur table: 2076
epoch: 1000
next table: 24815
cur table: 29759
epoch: 1000
next table: 1949
cur table: 2013
epoch: 1000
next table: 22957
cur table: 24815
epoch: 1000
next table: 21180
cur table: 22957
epoch: 1000
next table: 2078
cur table: 1949
epoch: 1000
next table: 25626
cur table: 21180
epoch: 1000
next table: 2086
cur table: 2078
epoch: 1000
next table: 22243
cur table: 25626
epoch: 1000
next table: 24991
cur table: 22243
epoch: 1000
next table: 2095
cur table: 2086
epoch: 1000
next table: 21665
cur table: 24991
epoch: 1000
next table: 2034
cur table: 2095
epoch: 1000
next table: 18315
cur table: 21665
epoch: 1000
next table: 21017
cur table: 18315
epoch: 1000
next table: 2084
cur table: 2034
epoch: 1000
next table: 27111
cur table: 21017
epoch: 1000
next table: 15897
cur table: 27111
epoch: 1000
next table: 2043
cur table: 2084
epoch: 1000
next table: 19779
cur table: 15897
epoch: 1000
next table: 2158
cur table: 2043
epoch: 1000
next table: 27595
cur table: 19779
epoch: 1000
next table: 19416
cur table: 27595
epoch: 1000
next table: 1946
cur table: 2158
epoch: 1000
next table: 19003
cur table: 19416
epoch: 1000
next table: 17992
cur table: 19003
epoch: 1000
next table: 2047
cur table: 1946
epoch: 1000
next table: 24872
cur table: 17992
epoch: 1000
next table: 2013
cur table: 2047
epoch: 1000
next table: 19017
cur table: 24872
epoch: 1000
next table: 19973
cur table: 19017
epoch: 1000
next table: 2042
cur table: 2013
epoch: 1000
next table: 19730
cur table: 19973
epoch: 1000
next table: 19809
cur table: 19730
epoch: 1000
next table: 2164
cur table: 2042
epoch: 1000
next table: 15164
cur table: 19809
epoch: 1000
next table: 21856
cur table: 15164
epoch: 1000
next table: 2122
cur table: 2164
epoch: 1000
next table: 20620
cur table: 21856
epoch: 1000
next table: 2095
cur table: 2122
epoch: 1000
next table: 22320
cur table: 20620
epoch: 1000
next table: 19069
cur table: 22320
epoch: 1000
next table: 1975
cur table: 2095
epoch: 1000
next table: 19181
cur table: 19069
epoch: 1000
next table: 2120
cur table: 1975
epoch: 1000
next table: 21585
cur table: 19181
epoch: 1000
next table: 23279
cur table: 21585
epoch: 1000
next table: 2004
cur table: 2120
epoch: 1000
next table: 19582
cur table: 23279
epoch: 1000
next table: 19562
cur table: 19582
epoch: 1000
next table: 2059
cur table: 2004
epoch: 1000
next table: 23562
cur table: 19562
epoch: 1000
next table: 2076
cur table: 2059
epoch: 1000
next table: 22667
cur table: 23562
epoch: 1000
next table: 18956
cur table: 22667
epoch: 1000
next table: 2094
cur table: 2076
epoch: 1000
next table: 19687
cur table: 18956
epoch: 1000
next table: 20372
cur table: 19687
epoch: 1000
next table: 2067
cur table: 2094
epoch: 1000
next table: 20020
cur table: 20372
epoch: 1000
next table: 2024
cur table: 2067
epoch: 1000
next table: 23083
cur table: 20020
epoch: 1000
next table: 19979
cur table: 23083
epoch: 1000
next table: 2097
cur table: 2024
epoch: 1000
next table: 17910
cur table: 19979
epoch: 1000
next table: 20750
cur table: 17910
epoch: 1000
next table: 2113
cur table: 2097
epoch: 1000
next table: 22416
cur table: 20750
epoch: 1000
next table: 2024
cur table: 2113
epoch: 1000
next table: 20075
cur table: 22416
epoch: 1000
next table: 19433
cur table: 20075
epoch: 1000
next table: 2016
cur table: 2024
epoch: 1000
next table: 19721
cur table: 19433
epoch: 1000
next table: 22676
cur table: 19721
epoch: 1000
next table: 2051
cur table: 2016
Heartbeat CPU 0 instructions: 60000000 cycles: 30023435 heartbeat IPC: 0.85713 cumulative IPC: 0.85713 (Simulation time: 0 hr 39 min 3 sec) 
epoch: 1000
next table: 20381
cur table: 22676
epoch: 1000
next table: 2070
cur table: 2051
epoch: 1000
next table: 23134
cur table: 20381
epoch: 1000
next table: 21922
cur table: 23134
epoch: 1000
next table: 2095
cur table: 2070
epoch: 1000
next table: 15532
cur table: 21922
epoch: 1000
next table: 17174
cur table: 15532
epoch: 1000
next table: 2045
cur table: 2095
epoch: 1000
next table: 22205
cur table: 17174
epoch: 1000
next table: 2023
cur table: 2045
epoch: 1000
next table: 24121
cur table: 22205
epoch: 1000
next table: 18551
cur table: 24121
epoch: 1000
next table: 2112
cur table: 2023
epoch: 1000
next table: 16790
cur table: 18551
epoch: 1000
next table: 23640
cur table: 16790
epoch: 1000
next table: 2137
cur table: 2112
epoch: 1000
next table: 22409
cur table: 23640
epoch: 1000
next table: 1973
cur table: 2137
epoch: 1000
next table: 19141
cur table: 22409
epoch: 1000
next table: 19626
cur table: 19141
epoch: 1000
next table: 1991
cur table: 1973
epoch: 1000
next table: 20865
cur table: 19626
epoch: 1000
next table: 2035
cur table: 1991
epoch: 1000
next table: 20254
cur table: 20865
epoch: 1000
next table: 20040
cur table: 20254
epoch: 1000
next table: 1946
cur table: 2035
epoch: 1000
next table: 21865
cur table: 20040
epoch: 1000
next table: 20088
cur table: 21865
epoch: 1000
next table: 2133
cur table: 1946
epoch: 1000
next table: 19016
cur table: 20088
epoch: 1000
next table: 1990
cur table: 2133
epoch: 1000
next table: 19411
cur table: 19016
epoch: 1000
next table: 23870
cur table: 19411
epoch: 1000
next table: 2006
cur table: 1990
epoch: 1000
next table: 22484
cur table: 23870
epoch: 1000
next table: 2018
cur table: 2006
epoch: 1000
next table: 17192
cur table: 22484
epoch: 1000
next table: 23156
cur table: 17192
epoch: 1000
next table: 2087
cur table: 2018
epoch: 1000
next table: 24140
cur table: 23156
epoch: 1000
next table: 1867
cur table: 2087
epoch: 1000
next table: 23177
cur table: 24140
epoch: 1000
next table: 20598
cur table: 23177
epoch: 1000
next table: 2006
cur table: 1867
epoch: 1000
next table: 25884
cur table: 20598
epoch: 1000
next table: 1995
cur table: 2006
epoch: 1000
next table: 25552
cur table: 25884
epoch: 1000
next table: 23221
cur table: 25552
epoch: 1000
next table: 2116
cur table: 1995
epoch: 1000
next table: 23437
cur table: 23221
epoch: 1000
next table: 19630
cur table: 23437
epoch: 1000
next table: 2084
cur table: 2116
epoch: 1000
next table: 20773
cur table: 19630
epoch: 1000
next table: 2019
cur table: 2084
epoch: 1000
next table: 29845
cur table: 20773
epoch: 1000
next table: 2004
cur table: 2019
epoch: 1000
next table: 21789
cur table: 29845
epoch: 1000
next table: 24470
cur table: 21789
epoch: 1000
next table: 2093
cur table: 2004
epoch: 1000
next table: 27326
cur table: 24470
epoch: 1000
next table: 2001
cur table: 2093
epoch: 1000
next table: 24473
cur table: 27326
epoch: 1000
next table: 24020
cur table: 24473
epoch: 1000
next table: 2009
cur table: 2001
epoch: 1000
next table: 24753
cur table: 24020
epoch: 1000
next table: 1995
cur table: 2009
epoch: 1000
next table: 23367
cur table: 24753
epoch: 1000
next table: 27445
cur table: 23367
epoch: 1000
next table: 2112
cur table: 1995
epoch: 1000
next table: 24369
cur table: 27445
epoch: 1000
next table: 2164
cur table: 2112
epoch: 1000
next table: 18588
cur table: 24369
epoch: 1000
next table: 20826
cur table: 18588
epoch: 1000
next table: 2005
cur table: 2164
epoch: 1000
next table: 27880
cur table: 20826
epoch: 1000
next table: 23370
cur table: 27880
epoch: 1000
next table: 2003
cur table: 2005
epoch: 1000
next table: 20641
cur table: 23370
Heartbeat CPU 0 instructions: 70000001 cycles: 41749099 heartbeat IPC: 0.85283 cumulative IPC: 0.854974 (Simulation time: 0 hr 45 min 48 sec) 
epoch: 1000
next table: 2139
cur table: 2003
epoch: 1000
next table: 24476
cur table: 20641
epoch: 1000
next table: 23533
cur table: 24476
epoch: 1000
next table: 2019
cur table: 2139
epoch: 1000
next table: 23033
cur table: 23533
epoch: 1000
next table: 1985
cur table: 2019
epoch: 1000
next table: 20408
cur table: 23033
epoch: 1000
next table: 27527
cur table: 20408
epoch: 1000
next table: 2092
cur table: 1985
epoch: 1000
next table: 20300
cur table: 27527
epoch: 1000
next table: 2023
cur table: 2092
epoch: 1000
next table: 27113
cur table: 20300
epoch: 1000
next table: 20207
cur table: 27113
epoch: 1000
next table: 2153
cur table: 2023
epoch: 1000
next table: 19402
cur table: 20207
epoch: 1000
next table: 2026
cur table: 2153
epoch: 1000
next table: 23122
cur table: 19402
epoch: 1000
next table: 24922
cur table: 23122
epoch: 1000
next table: 2071
cur table: 2026
epoch: 1000
next table: 20786
cur table: 24922
epoch: 1000
next table: 18593
cur table: 20786
epoch: 1000
next table: 2055
cur table: 2071
epoch: 1000
next table: 25742
cur table: 18593
epoch: 1000
next table: 2045
cur table: 2055
epoch: 1000
next table: 20751
cur table: 25742
epoch: 1000
next table: 23132
cur table: 20751
epoch: 1000
next table: 2002
cur table: 2045
epoch: 1000
next table: 18997
cur table: 23132
epoch: 1000
next table: 2063
cur table: 2002
epoch: 1000
next table: 20658
cur table: 18997
epoch: 1000
next table: 23160
cur table: 20658
epoch: 1000
next table: 2039
cur table: 2063
epoch: 1000
next table: 19682
cur table: 23160
epoch: 1000
next table: 24513
cur table: 19682
epoch: 1000
next table: 2047
cur table: 2039
epoch: 1000
next table: 16682
cur table: 24513
epoch: 1000
next table: 2126
cur table: 2047
epoch: 1000
next table: 21291
cur table: 16682
epoch: 1000
next table: 19500
cur table: 21291
epoch: 1000
next table: 2116
cur table: 2126
epoch: 1000
next table: 23294
cur table: 19500
epoch: 1000
next table: 21350
cur table: 23294
epoch: 1000
next table: 2021
cur table: 2116
epoch: 1000
next table: 18160
cur table: 21350
epoch: 1000
next table: 2065
cur table: 2021
epoch: 1000
next table: 23617
cur table: 18160
epoch: 1000
next table: 19831
cur table: 23617
epoch: 1000
next table: 1959
cur table: 2065
epoch: 1000
next table: 22802
cur table: 19831
epoch: 1000
next table: 21020
cur table: 22802
epoch: 1000
next table: 2102
cur table: 1959
epoch: 1000
next table: 22885
cur table: 21020
epoch: 1000
next table: 2047
cur table: 2102
epoch: 1000
next table: 21194
cur table: 22885
epoch: 1000
next table: 21192
cur table: 21194
epoch: 1000
next table: 2057
cur table: 2047
epoch: 1000
next table: 24203
cur table: 21192
epoch: 1000
next table: 15638
cur table: 24203
epoch: 1000
next table: 2170
cur table: 2057
epoch: 1000
next table: 20067
cur table: 15638
epoch: 1000
next table: 1950
cur table: 2170
epoch: 1000
next table: 22884
cur table: 20067
epoch: 1000
next table: 23517
cur table: 22884
epoch: 1000
next table: 2009
cur table: 1950
epoch: 1000
next table: 23494
cur table: 23517
epoch: 1000
next table: 2047
cur table: 2009
epoch: 1000
next table: 15691
cur table: 23494
epoch: 1000
next table: 23597
cur table: 15691
epoch: 1000
next table: 2063
cur table: 2047
epoch: 1000
next table: 21094
cur table: 23597
epoch: 1000
next table: 17470
cur table: 21094
epoch: 1000
next table: 1953
cur table: 2063
epoch: 1000
next table: 22507
cur table: 17470
epoch: 1000
next table: 2033
cur table: 1953
epoch: 1000
next table: 20086
cur table: 22507
epoch: 1000
next table: 19800
cur table: 20086
epoch: 1000
next table: 2023
cur table: 2033
epoch: 1000
next table: 21017
cur table: 19800
epoch: 1000
next table: 21664
cur table: 21017
epoch: 1000
next table: 2148
cur table: 2023
epoch: 1000
next table: 16415
cur table: 21664
Heartbeat CPU 0 instructions: 80000001 cycles: 53441069 heartbeat IPC: 0.855288 cumulative IPC: 0.855079 (Simulation time: 0 hr 53 min 12 sec) 
epoch: 1000
next table: 14489
cur table: 16415
epoch: 1000
next table: 2160
cur table: 2148
epoch: 1000
next table: 19363
cur table: 14489
epoch: 1000
next table: 2015
cur table: 2160
epoch: 1000
next table: 27341
cur table: 19363
epoch: 1000
next table: 16880
cur table: 27341
epoch: 1000
next table: 2066
cur table: 2015
epoch: 1000
next table: 20638
cur table: 16880
epoch: 1000
next table: 19649
cur table: 20638
epoch: 1000
next table: 2184
cur table: 2066
epoch: 1000
next table: 21291
cur table: 19649
epoch: 1000
next table: 1981
cur table: 2184
epoch: 1000
next table: 22552
cur table: 21291
epoch: 1000
next table: 20269
cur table: 22552
epoch: 1000
next table: 2012
cur table: 1981
epoch: 1000
next table: 23734
cur table: 20269
epoch: 1000
next table: 2099
cur table: 2012
epoch: 1000
next table: 19126
cur table: 23734
epoch: 1000
next table: 23174
cur table: 19126
epoch: 1000
next table: 2049
cur table: 2099
epoch: 1000
next table: 23873
cur table: 23174
epoch: 1000
next table: 19336
cur table: 23873
epoch: 1000
next table: 2106
cur table: 2049
epoch: 1000
next table: 15791
cur table: 19336
epoch: 1000
next table: 2048
cur table: 2106
epoch: 1000
next table: 22983
cur table: 15791
epoch: 1000
next table: 24413
cur table: 22983
epoch: 1000
next table: 2021
cur table: 2048
epoch: 1000
next table: 20963
cur table: 24413
epoch: 1000
next table: 18749
cur table: 20963
epoch: 1000
next table: 2066
cur table: 2021
epoch: 1000
next table: 22923
cur table: 18749
epoch: 1000
next table: 2149
cur table: 2066
epoch: 1000
next table: 20691
cur table: 22923
epoch: 1000
next table: 22371
cur table: 20691
epoch: 1000
next table: 1933
cur table: 2149
epoch: 1000
next table: 23090
cur table: 22371
epoch: 1000
next table: 2061
cur table: 1933
epoch: 1000
next table: 20447
cur table: 23090
epoch: 1000
next table: 21194
cur table: 20447
epoch: 1000
next table: 2016
cur table: 2061
epoch: 1000
next table: 21393
cur table: 21194
epoch: 1000
next table: 23052
cur table: 21393
epoch: 1000
next table: 2118
cur table: 2016
epoch: 1000
next table: 18746
cur table: 23052
epoch: 1000
next table: 2064
cur table: 2118
epoch: 1000
next table: 16823
cur table: 18746
epoch: 1000
next table: 20232
cur table: 16823
epoch: 1000
next table: 1960
cur table: 2064
epoch: 1000
next table: 26321
cur table: 20232
epoch: 1000
next table: 2109
cur table: 1960
epoch: 1000
next table: 21029
cur table: 26321
epoch: 1000
next table: 19239
cur table: 21029
epoch: 1000
next table: 2124
cur table: 2109
epoch: 1000
next table: 23745
cur table: 19239
epoch: 1000
next table: 23319
cur table: 23745
epoch: 1000
next table: 1975
cur table: 2124
epoch: 1000
next table: 23489
cur table: 23319
epoch: 1000
next table: 1911
cur table: 1975
epoch: 1000
next table: 23902
cur table: 23489
epoch: 1000
next table: 2095
cur table: 1911
epoch: 1000
next table: 20986
cur table: 23902
epoch: 1000
next table: 22943
cur table: 20986
epoch: 1000
next table: 2046
cur table: 2095
epoch: 1000
next table: 26530
cur table: 22943
epoch: 1000
next table: 20889
cur table: 26530
epoch: 1000
next table: 2116
cur table: 2046
epoch: 1000
next table: 20084
cur table: 20889
epoch: 1000
next table: 1961
cur table: 2116
epoch: 1000
next table: 23647
cur table: 20084
epoch: 1000
next table: 27693
cur table: 23647
epoch: 1000
next table: 2042
cur table: 1961
epoch: 1000
next table: 24257
cur table: 27693
epoch: 1000
next table: 2031
cur table: 2042
epoch: 1000
next table: 20246
cur table: 24257
epoch: 1000
next table: 2019
cur table: 2031
epoch: 1000
next table: 27844
cur table: 20246
epoch: 1000
next table: 26812
cur table: 27844
epoch: 1000
next table: 1928
cur table: 2019
epoch: 1000
next table: 24948
cur table: 26812
Heartbeat CPU 0 instructions: 90000002 cycles: 65143126 heartbeat IPC: 0.854551 cumulative IPC: 0.854947 (Simulation time: 0 hr 59 min 20 sec) 
epoch: 1000
next table: 2059
cur table: 1928
epoch: 1000
next table: 24577
cur table: 24948
epoch: 1000
next table: 23908
cur table: 24577
epoch: 1000
next table: 1993
cur table: 2059
epoch: 1000
next table: 28162
cur table: 23908
epoch: 1000
next table: 2021
cur table: 1993
epoch: 1000
next table: 23937
cur table: 28162
epoch: 1000
next table: 20213
cur table: 23937
epoch: 1000
next table: 2009
cur table: 2021
epoch: 1000
next table: 29798
cur table: 20213
epoch: 1000
next table: 2032
cur table: 2009
epoch: 1000
next table: 25826
cur table: 29798
epoch: 1000
next table: 1921
cur table: 2032
epoch: 1000
next table: 24317
cur table: 25826
epoch: 1000
next table: 22067
cur table: 24317
epoch: 1000
next table: 2106
cur table: 1921
epoch: 1000
next table: 25919
cur table: 22067
epoch: 1000
next table: 1891
cur table: 2106
epoch: 1000
next table: 23864
cur table: 25919
epoch: 1000
next table: 29307
cur table: 23864
epoch: 1000
next table: 2024
cur table: 1891
epoch: 1000
next table: 19204
cur table: 29307
epoch: 1000
next table: 1910
cur table: 2024
epoch: 1000
next table: 27350
cur table: 19204
epoch: 1000
next table: 24897
cur table: 27350
epoch: 1000
next table: 2081
cur table: 1910
epoch: 1000
next table: 22915
cur table: 24897
epoch: 1000
next table: 2050
cur table: 2081
epoch: 1000
next table: 20044
cur table: 22915
epoch: 1000
next table: 26939
cur table: 20044
epoch: 1000
next table: 2039
cur table: 2050
epoch: 1000
next table: 20153
cur table: 26939
epoch: 1000
next table: 2037
cur table: 2039
epoch: 1000
next table: 20464
cur table: 20153
epoch: 1000
next table: 23792
cur table: 20464
epoch: 1000
next table: 2062
cur table: 2037
epoch: 1000
next table: 23910
cur table: 23792
epoch: 1000
next table: 1930
cur table: 2062
epoch: 1000
next table: 23494
cur table: 23910
epoch: 1000
next table: 26147
cur table: 23494
epoch: 1000
next table: 1942
cur table: 1930
epoch: 1000
next table: 22035
cur table: 26147
epoch: 1000
next table: 1979
cur table: 1942
epoch: 1000
next table: 23926
cur table: 22035
epoch: 1000
next table: 2063
cur table: 1979
epoch: 1000
next table: 27751
cur table: 23926
epoch: 1000
next table: 23650
cur table: 27751
epoch: 1000
next table: 1961
cur table: 2063
epoch: 1000
next table: 18889
cur table: 23650
epoch: 1000
next table: 2015
cur table: 1961
epoch: 1000
next table: 23620
cur table: 18889
epoch: 1000
next table: 25214
cur table: 23620
epoch: 1000
next table: 1961
cur table: 2015
epoch: 1000
next table: 25417
cur table: 25214
epoch: 1000
next table: 2003
cur table: 1961
epoch: 1000
next table: 20934
cur table: 25417
epoch: 1000
next table: 22944
cur table: 20934
epoch: 1000
next table: 1995
cur table: 2003
epoch: 1000
next table: 23555
cur table: 22944
epoch: 1000
next table: 1849
cur table: 1995
epoch: 1000
next table: 21709
cur table: 23555
epoch: 1000
next table: 28121
cur table: 21709
epoch: 1000
next table: 2030
cur table: 1849
epoch: 1000
next table: 19752
cur table: 28121
epoch: 1000
next table: 1954
cur table: 2030
epoch: 1000
next table: 23674
cur table: 19752
epoch: 1000
next table: 24459
cur table: 23674
epoch: 1000
next table: 2066
cur table: 1954
epoch: 1000
next table: 23191
cur table: 24459
epoch: 1000
next table: 1994
cur table: 2066
epoch: 1000
next table: 16326
cur table: 23191
epoch: 1000
next table: 27604
cur table: 16326
epoch: 1000
next table: 1965
cur table: 1994
epoch: 1000
next table: 23399
cur table: 27604
epoch: 1000
next table: 1950
cur table: 1965
epoch: 1000
next table: 24061
cur table: 23399
Heartbeat CPU 0 instructions: 100000000 cycles: 76855466 heartbeat IPC: 0.8538 cumulative IPC: 0.854717 (Simulation time: 1 hr 4 min 15 sec) 
Finished CPU 0 instructions: 50000000 cycles: 58498876 cumulative IPC: 0.854717 (Simulation time: 1 hr 4 min 15 sec) 

ChampSim completed all CPUs

Region of Interest Statistics

CPU 0 cumulative IPC: 0.854717 instructions: 50000000 cycles: 58498876
ITLB TOTAL     ACCESS:    6995266  HIT:    6995266  MISS:          0  HIT %:        100  MISS %:          0   MPKI: 0
ITLB LOAD TRANSLATION ACCESS:    6995266  HIT:    6995266  MISS:          0  HIT %:        100  MISS %:          0   MPKI: 0
ITLB PREFETCH  REQUESTED:          0  ISSUED:          0  USEFUL:          0  USELESS:          0
ITLB USEFUL LOAD PREFETCHES:          0 PREFETCH ISSUED TO LOWER LEVEL:          0  ACCURACY: -nan
ITLB TIMELY PREFETCHES:          0 LATE PREFETCHES: 0 DROPPED PREFETCHES: 0
ITLB PREFETCHES SAME FILL-ORIGIN LEVEL: 0 DIFFERENT FILL-ORIGIN LEVEL: 0
ITLB AVERAGE MISS LATENCY: -nan cycles
ITLB RQ	ACCESS:    8563727	FORWARD:          0	MERGED:    1568461	TO_CACHE:    6995266

Revised Interactions: positive negative neutral
ITLB_interactions 0 0 0 -nan -nan -nan
DTLB TOTAL     ACCESS:   15028872  HIT:   13136780  MISS:    1892092  HIT %:    87.4103  MISS %:    12.5897   MPKI: 37.8418
DTLB LOAD TRANSLATION ACCESS:   15028872  HIT:   13136780  MISS:    1892092  HIT %:    87.4103  MISS %:    12.5897   MPKI: 37.8418
DTLB PREFETCH  REQUESTED:          0  ISSUED:          0  USEFUL:          0  USELESS:          0
DTLB USEFUL LOAD PREFETCHES:          0 PREFETCH ISSUED TO LOWER LEVEL:          0  ACCURACY: -nan
DTLB TIMELY PREFETCHES:          0 LATE PREFETCHES: 0 DROPPED PREFETCHES: 0
DTLB PREFETCHES SAME FILL-ORIGIN LEVEL: 0 DIFFERENT FILL-ORIGIN LEVEL: 0
DTLB AVERAGE MISS LATENCY: 10.1707 cycles
DTLB RQ	ACCESS:   19726069	FORWARD:          0	MERGED:    4500334	TO_CACHE:   15225735

Revised Interactions: positive negative neutral
DTLB_interactions 0 0 0 -nan -nan -nan
STLB TOTAL     ACCESS:    1892092  HIT:    1890064  MISS:       2028  HIT %:    99.8928  MISS %:   0.107183   MPKI: 0.04056
STLB LOAD TRANSLATION ACCESS:    1892092  HIT:    1890064  MISS:       2028  HIT %:    99.8928  MISS %:   0.107183   MPKI: 0.04056
STLB PREFETCH  REQUESTED:          0  ISSUED:          0  USEFUL:          0  USELESS:          0
STLB USEFUL LOAD PREFETCHES:          0 PREFETCH ISSUED TO LOWER LEVEL:          0  ACCURACY: -nan
STLB TIMELY PREFETCHES:          0 LATE PREFETCHES: 0 DROPPED PREFETCHES: 0
STLB PREFETCHES SAME FILL-ORIGIN LEVEL: 0 DIFFERENT FILL-ORIGIN LEVEL: 0
STLB AVERAGE MISS LATENCY: 747.736 cycles
STLB RQ	ACCESS:    1892092	FORWARD:          0	MERGED:          0	TO_CACHE:    1892092

Revised Interactions: positive negative neutral
STLB_interactions 0 0 0 -nan -nan -nan
STLB Hit, L1D data hit: 0
STLB Hit, L2C data hit: 0
STLB Hit, LLC data hit: 0
STLB Hit, LLC data miss: 0
STLB STLB hints to L2: 0
L1D TOTAL     ACCESS:   19623804  HIT:   15959693  MISS:    3664111  HIT %:    81.3282  MISS %:    18.6718   MPKI: 73.2822
L1D LOAD      ACCESS:   15671257  HIT:   12308434  MISS:    3362823  HIT %:    78.5415  MISS %:    21.4585   MPKI: 67.2565
L1D RFO       ACCESS:    3952547  HIT:    3651259  MISS:     301288  HIT %:    92.3774  MISS %:    7.62263   MPKI: 6.02576
L1D PREFETCH  REQUESTED:          0  ISSUED:          0  USEFUL:          0  USELESS:          0
L1D USEFUL LOAD PREFETCHES:          0 PREFETCH ISSUED TO LOWER LEVEL:          0  ACCURACY: -nan
L1D TIMELY PREFETCHES:          0 LATE PREFETCHES: 0 DROPPED PREFETCHES: 0
L1D PREFETCHES SAME FILL-ORIGIN LEVEL: 0 DIFFERENT FILL-ORIGIN LEVEL: 0
L1D AVERAGE MISS LATENCY: 27.4302 cycles
L1D RQ	ACCESS:   19348876	FORWARD:          0	MERGED:    3585800	TO_CACHE:   15749245
L1D WQ	ACCESS:    4003907	FORWARD:      13831	MERGED:      27083	TO_CACHE:    3976824

Revised Interactions: positive negative neutral
L1D_interactions 0 0 0 -nan -nan -nan
L1D UNIQUE REGIONS ACCESSED: 0
L1D REGIONS CONFLICTS: 0
L1D Cross Page Prefetch Requests: 0
L1D Same Page Prefetch Requests: 0
L1D ROI Sum of L1D PQ occupancy: 0
L1D PREFETCHES PUSHED FROM L2C: 0
L1I TOTAL     ACCESS:    7829477  HIT:    6383380  MISS:    1446097  HIT %:    81.5301  MISS %:    18.4699   MPKI: 28.9219
L1I LOAD      ACCESS:    7829477  HIT:    6383380  MISS:    1446097  HIT %:    81.5301  MISS %:    18.4699   MPKI: 28.9219
L1I PREFETCH  REQUESTED:          0  ISSUED:          0  USEFUL:          0  USELESS:          0
L1I USEFUL LOAD PREFETCHES:          0 PREFETCH ISSUED TO LOWER LEVEL:          0  ACCURACY: -nan
L1I TIMELY PREFETCHES:          0 LATE PREFETCHES: 0 DROPPED PREFETCHES: 0
L1I PREFETCHES SAME FILL-ORIGIN LEVEL: 0 DIFFERENT FILL-ORIGIN LEVEL: 0
L1I AVERAGE MISS LATENCY: 14.0667 cycles
L1I RQ	ACCESS:   11917545	FORWARD:          0	MERGED:    3353818	TO_CACHE:    8563727

Revised Interactions: positive negative neutral
L1I_interactions 0 0 0 -nan -nan -nan
BTB TOTAL     ACCESS:     280232  HIT:     262131  MISS:      18101  HIT %:    93.5407  MISS %:    6.45929   MPKI: 0.36202
BTB BRANCH_DIRECT_JUMP	ACCESS:      54228  HIT:      54223  MISS:          5
BTB BRANCH_INDIRECT	ACCESS:       9038  HIT:       9037  MISS:          1
BTB BRANCH_CONDITIONAL	ACCESS:     108510  HIT:     108499  MISS:         11
BTB BRANCH_DIRECT_CALL	ACCESS:      54228  HIT:      54223  MISS:          5
BTB BRANCH_INDIRECT_CALL	ACCESS:          0  HIT:          0  MISS:          0
BTB BRANCH_RETURN	ACCESS:      54228  HIT:      36149  MISS:      18079
BTB BRANCH_OTHER ACCESS:          0  HIT:          0  MISS:          0

L2C TOTAL     ACCESS:    6100675  HIT:    5857149  MISS:     243526  HIT %:    96.0082  MISS %:    3.99179   MPKI: 4.87052
L2C LOAD      ACCESS:    4808466  HIT:    4683091  MISS:     125375  HIT %:    97.3926  MISS %:    2.60738   MPKI: 2.5075
L2C DATA LOAD MPKI: 2.50682
L2C INSTRUCTION LOAD MPKI: 0.00068
L2C RFO       ACCESS:     301022  HIT:     267714  MISS:      33308  HIT %:     88.935  MISS %:     11.065   MPKI: 0.66616
L2C PREFETCH  ACCESS:     663393  HIT:     582884  MISS:      80509  HIT %:    87.8641  MISS %:    12.1359   MPKI: 1.61018
L2C DATA PREFETCH MPKI: 1.61018
L2C INSTRUCTION PREFETCH MPKI: 0
L2C WRITEBACK ACCESS:     324731  HIT:     323430  MISS:       1301  HIT %:    99.5994  MISS %:   0.400639   MPKI: 0.02602
L2C LOAD TRANSLATION ACCESS:       3063  HIT:         30  MISS:       3033  HIT %:   0.979432  MISS %:    99.0206   MPKI: 0.06066
L2C PREFETCH  REQUESTED:     664856  ISSUED:     664856  USEFUL:      73279  USELESS:       7215
L2C USEFUL LOAD PREFETCHES:      73279 PREFETCH ISSUED TO LOWER LEVEL:      81244  ACCURACY: 90.1962
L2C TIMELY PREFETCHES:      73279 LATE PREFETCHES: 735 DROPPED PREFETCHES: 0
L2C PREFETCHES SAME FILL-ORIGIN LEVEL: 81244 DIFFERENT FILL-ORIGIN LEVEL: 0
L2C AVERAGE MISS LATENCY: 218.161 cycles
L2C RQ	ACCESS:    5113272	FORWARD:          0	MERGED:          0	TO_CACHE:    5112551
L2C WQ	ACCESS:     324731	FORWARD:        724	MERGED:          0	TO_CACHE:     324731
L2C PQ	ACCESS:     664856	FORWARD:          0	MERGED:          8	TO_CACHE:     664845

Revised Interactions: positive negative neutral
L2C_interactions 63241 14630 5477 75.8758 17.5529 6.57124
L2C Instructions Evicting Data 31
L2C Translations Evicting Data 3011
L2C Data Evicting Data 236108
L2C Instructions Evicting Instructions 3
L2C Translations Evicting Instructions 0
L2C Data Evicting Instructions 30
L2C Instructions Evicting Translations 0
L2C Translations Evicting Translations 22
L2C Data Evicting Translations 3020
L2C Dense regions hint from L2: 0
PSCL5 TOTAL     ACCESS:       2028  HIT:       2028  MISS:          0  HIT %:        100  MISS %:          0   MPKI: 0
PSCL5 LOAD TRANSLATION ACCESS:       2028  HIT:       2028  MISS:          0  HIT %:        100  MISS %:          0   MPKI: 0
PSCL5 PREFETCH  REQUESTED:          0  ISSUED:          0  USEFUL:          0  USELESS:          0
PSCL5 USEFUL LOAD PREFETCHES:          0 PREFETCH ISSUED TO LOWER LEVEL:          0  ACCURACY: -nan
PSCL5 TIMELY PREFETCHES:          0 LATE PREFETCHES: 0 DROPPED PREFETCHES: 0
PSCL5 PREFETCHES SAME FILL-ORIGIN LEVEL: 0 DIFFERENT FILL-ORIGIN LEVEL: 0

Revised Interactions: positive negative neutral
PSCL5_interactions 0 0 0 -nan -nan -nan
PSCL4 TOTAL     ACCESS:       2028  HIT:       2028  MISS:          0  HIT %:        100  MISS %:          0   MPKI: 0
PSCL4 LOAD TRANSLATION ACCESS:       2028  HIT:       2028  MISS:          0  HIT %:        100  MISS %:          0   MPKI: 0
PSCL4 PREFETCH  REQUESTED:          0  ISSUED:          0  USEFUL:          0  USELESS:          0
PSCL4 USEFUL LOAD PREFETCHES:          0 PREFETCH ISSUED TO LOWER LEVEL:          0  ACCURACY: -nan
PSCL4 TIMELY PREFETCHES:          0 LATE PREFETCHES: 0 DROPPED PREFETCHES: 0
PSCL4 PREFETCHES SAME FILL-ORIGIN LEVEL: 0 DIFFERENT FILL-ORIGIN LEVEL: 0

Revised Interactions: positive negative neutral
PSCL4_interactions 0 0 0 -nan -nan -nan
PSCL3 TOTAL     ACCESS:       2028  HIT:       2028  MISS:          0  HIT %:        100  MISS %:          0   MPKI: 0
PSCL3 LOAD TRANSLATION ACCESS:       2028  HIT:       2028  MISS:          0  HIT %:        100  MISS %:          0   MPKI: 0
PSCL3 PREFETCH  REQUESTED:          0  ISSUED:          0  USEFUL:          0  USELESS:          0
PSCL3 USEFUL LOAD PREFETCHES:          0 PREFETCH ISSUED TO LOWER LEVEL:          0  ACCURACY: -nan
PSCL3 TIMELY PREFETCHES:          0 LATE PREFETCHES: 0 DROPPED PREFETCHES: 0
PSCL3 PREFETCHES SAME FILL-ORIGIN LEVEL: 0 DIFFERENT FILL-ORIGIN LEVEL: 0

Revised Interactions: positive negative neutral
PSCL3_interactions 0 0 0 -nan -nan -nan
PSCL2 TOTAL     ACCESS:       2028  HIT:        989  MISS:       1039  HIT %:    48.7673  MISS %:    51.2327   MPKI: 0.02078
PSCL2 LOAD TRANSLATION ACCESS:       2028  HIT:        989  MISS:       1039  HIT %:    48.7673  MISS %:    51.2327   MPKI: 0.02078
PSCL2 PREFETCH  REQUESTED:          0  ISSUED:          0  USEFUL:          0  USELESS:          0
PSCL2 USEFUL LOAD PREFETCHES:          0 PREFETCH ISSUED TO LOWER LEVEL:          0  ACCURACY: -nan
PSCL2 TIMELY PREFETCHES:          0 LATE PREFETCHES: 0 DROPPED PREFETCHES: 0
PSCL2 PREFETCHES SAME FILL-ORIGIN LEVEL: 0 DIFFERENT FILL-ORIGIN LEVEL: 0

Revised Interactions: positive negative neutral
PSCL2_interactions 0 0 0 -nan -nan -nan
LLC TOTAL     ACCESS:     275280  HIT:     109060  MISS:     166220  HIT %:    39.6178  MISS %:    60.3822   MPKI: 3.3244
LLC LOAD      ACCESS:     124638  HIT:      39608  MISS:      85030  HIT %:    31.7784  MISS %:    68.2216   MPKI: 1.7006
LLC RFO       ACCESS:      32806  HIT:       3554  MISS:      29252  HIT %:    10.8334  MISS %:    89.1666   MPKI: 0.58504
LLC PREFETCH  ACCESS:      81244  HIT:      41831  MISS:      39413  HIT %:    51.4881  MISS %:    48.5119   MPKI: 0.78826
LLC WRITEBACK ACCESS:      33559  HIT:      21824  MISS:      11735  HIT %:    65.0317  MISS %:    34.9683   MPKI: 0.2347
LLC LOAD TRANSLATION ACCESS:       3033  HIT:       2243  MISS:        790  HIT %:    73.9532  MISS %:    26.0468   MPKI: 0.0158
LLC PREFETCH  REQUESTED:          0  ISSUED:          0  USEFUL:       2210  USELESS:      40946
LLC USEFUL LOAD PREFETCHES:       2210 PREFETCH ISSUED TO LOWER LEVEL:      39413  ACCURACY: 5.60729
LLC TIMELY PREFETCHES:       2210 LATE PREFETCHES: 0 DROPPED PREFETCHES: 0
LLC PREFETCHES SAME FILL-ORIGIN LEVEL: 0 DIFFERENT FILL-ORIGIN LEVEL: 0
LLC AVERAGE MISS LATENCY: 275.374 cycles
LLC RQ	ACCESS:     160981	FORWARD:          0	MERGED:          0	TO_CACHE:     160477
LLC WQ	ACCESS:      33559	FORWARD:        504	MERGED:          0	TO_CACHE:      33559
LLC PQ	ACCESS:      81244	FORWARD:          0	MERGED:          0	TO_CACHE:      81244

Revised Interactions: positive negative neutral
LLC_interactions 1979 38885 21591 3.16868 62.2608 34.5705
LLC Dense regions hint to LLC: 0

RAW hits: 110855
Loads Generated: 19459731
Loads sent to L1D: 19348876
Stores Generated: 4004020
Stores sent to L1D: 4004023
Major fault: 0 Minor fault: 4562
Allocated PAGES: 4562
[Bingo] PHT Access: 1204134
[Bingo] PHT Hit PC+Addr: 56522
[Bingo] PHT Hit PC+Offs: 128264
[Bingo] PHT Miss: 1019348
[Bingo] Prefetch PC+Addr: 0
[Bingo] Prefetch PC+Offs: 0
[Bingo] Useful PC+Addr: 0
[Bingo] Useful PC+Offs: 0
[Bingo] Useless PC+Addr: 0
[Bingo] Useless PC+Offs: 0
[Bingo] L1 Prefetch per Region: 0
[Bingo] L2 Prefetch per Region: 4.77375
[Bingo] L3 Prefetch per Region: 0
[Bingo] No Prefetch per Region: 27.2263
[Bingo] Number of Voters Mean: 3.6885
[Bingo] Number of Voters SD: 4.80232
PHT read accesses: 18399334
PHT write accesses: 106632
AT read accesses: 2205304
AT write accesses: 2261234
FT read accesses: 358133
FT write accesses: 1204134
PS read accesses: 379418
PS write accesses: 184786
PHT tag read accesses: 21689759
PHT tag write accesses: 163154
AT tag read accesses: 62417643
AT tag write accesses: 2311940
FT tag read accesses: 64134779
FT tag write accesses: 1451995
PS tag read accesses: 59861466
PS tag write accesses: 559763

DRAM Statistics
 CHANNEL 0
 RQ ROW_BUFFER_HIT:      73952  ROW_BUFFER_MISS:      80533
 DBUS_CONGESTED:         74
 WQ ROW_BUFFER_HIT:       9422  ROW_BUFFER_MISS:      19726  FULL:          0

 AVG_CONGESTED_CYCLE: 4
 All warmup complete: 2
Channel 0 Bank busy for read cycles: 0
Channel 0 Bank busy for write cycles: 0
Channel 0
Rank 0
0banks busy for read cycles: 46397641
0banks busy for write cycles: 9732
1banks busy for read cycles: 5933442
1banks busy for write cycles: 1654666
2banks busy for read cycles: 1485601
2banks busy for write cycles: 621025
3banks busy for read cycles: 837484
3banks busy for write cycles: 347273
4banks busy for read cycles: 338171
4banks busy for write cycles: 145517
5banks busy for read cycles: 224315
5banks busy for write cycles: 101502
6banks busy for read cycles: 128897
6banks busy for write cycles: 63545
7banks busy for read cycles: 78915
7banks busy for write cycles: 33770
8banks busy for read cycles: 70360
8banks busy for write cycles: 27021

CPU 0 Branch Prediction Accuracy: 99.9878% MPKI: 0.00108 Average ROB Occupancy at Mispredict: 28.3889
Branch types
NOT_BRANCH: 49556760 99.1135%
BRANCH_DIRECT_JUMP: 54228 0.108456%
BRANCH_INDIRECT: 9038 0.018076%
BRANCH_CONDITIONAL: 271248 0.542496%
BRANCH_DIRECT_CALL: 54228 0.108456%
BRANCH_INDIRECT_CALL: 0 0%
BRANCH_RETURN: 54228 0.108456%
BRANCH_OTHER: 0 0%

@sumon_overall_L1D         0         0         0         0         0         0         0
@Sumon_Early_by_class_L1D         0         0         0         0
@Sumon_Late_by_class_L1D         0         0         0         0

@Sumon_Early_by_cycle_L1D         0         0         0         0         0         0         0         0         0         0         0         0
@Sumon_Late_by_cycle_L1D         0         0         0         0         0         0
@Sumon_Early_stream_L1D         0         0         0         0         0         0         0         0         0         0         0         0
@Sumon_Early_CS_L1D         0         0         0         0         0         0         0         0         0         0         0         0
@Sumon_Early_CPLX_L1D         0         0         0         0         0         0         0         0         0         0         0         0
@Sumon_Late_stream_L1D         0         0         0         0         0         0
@Sumon_Late_CS_L1D         0         0         0         0         0         0
@Sumon_Late_CPLX_L1D         0         0         0         0         0         0
@sumon_overall_L2C     73279       735         0      7215     80509    664856    664856
@Sumon_Early_by_class_L2C         0         0         0         0
@Sumon_Late_by_class_L2C         0         0         0         0

@Sumon_Early_by_cycle_L2C       547       305        69        12         8        45         6      1655      5409     14344     17864     33015
@Sumon_Late_by_cycle_L2C       122       233        99        83       198         0
@Sumon_Early_stream_L2C         0         0         0         0         0         0         0         0         0         0         0         0
@Sumon_Early_CS_L2C         0         0         0         0         0         0         0         0         0         0         0         0
@Sumon_Early_CPLX_L2C         0         0         0         0         0         0         0         0         0         0         0         0
@Sumon_Late_stream_L2C         0         0         0         0         0         0
@Sumon_Late_CS_L2C         0         0         0         0         0         0
@Sumon_Late_CPLX_L2C         0         0         0         0         0         0
DRAM PAGES: 1048576
Allocated PAGES: 4562
