
*** ChampSim Multicore Out-of-Order Simulator ***

Warmup Instructions: 50000000
Simulation Instructions: 50000000
Number of CPUs: 1
LLC sets: 2048
LLC ways: 16
Off-chip DRAM Size: 4096 MB Channels: 1 Width: 64-bit Data Rate: 6400 MT/s
CPU 0 runs ../../biswa/SPEC2017Traces/619.lbm_s-2677B.champsimtrace.xz
.xz
CPU 0 Bimodal branch predictor
BTB has LRU replacement policy
ITLB has LRU replacement policy
DTLB has LRU replacement policy
STLB has LRU replacement policy
L1I has LRU replacement policy
L1D has LRU replacement policy
Bingo PHT WAYS: 16 and PHT_SIZE: 16384
Initialize DRRIP state for L2C
Initialize SRRIP state
epoch: 1000
next table: 3087
cur table: 13205
epoch: 1000
next table: 2707
cur table: 3087
epoch: 1000
next table: 2644
cur table: 2707
epoch: 1000
next table: 2668
cur table: 2644
epoch: 1000
next table: 2661
cur table: 2668
epoch: 1000
next table: 2655
cur table: 2661
epoch: 1000
next table: 2643
cur table: 2655
epoch: 1000
next table: 2651
cur table: 2643
epoch: 1000
next table: 2647
cur table: 2651
epoch: 1000
next table: 2627
cur table: 2647
epoch: 1000
next table: 2637
cur table: 2627
epoch: 1000
next table: 2634
cur table: 2637
epoch: 1000
next table: 2610
cur table: 2634
epoch: 1000
next table: 2589
cur table: 2610
epoch: 1000
next table: 2571
cur table: 2589
epoch: 1000
next table: 2619
cur table: 2571
epoch: 1000
next table: 2622
cur table: 2619
epoch: 1000
next table: 2591
cur table: 2622
epoch: 1000
next table: 2669
cur table: 2591
epoch: 1000
next table: 2676
cur table: 2669
epoch: 1000
next table: 2635
cur table: 2676
epoch: 1000
next table: 2625
cur table: 2635
epoch: 1000
next table: 2609
cur table: 2625
epoch: 1000
next table: 2591
cur table: 2609
epoch: 1000
next table: 2679
cur table: 2591
epoch: 1000
next table: 2084
cur table: 27876
epoch: 1000
next table: 2660
cur table: 2679
epoch: 1000
next table: 1907
cur table: 2084
epoch: 1000
next table: 2652
cur table: 2660
epoch: 1000
next table: 1812
cur table: 1907
epoch: 1000
next table: 2645
cur table: 2652
epoch: 1000
next table: 1835
cur table: 1812
epoch: 1000
next table: 2651
cur table: 2645
epoch: 1000
next table: 1802
cur table: 1835
epoch: 1000
next table: 2687
cur table: 2651
epoch: 1000
next table: 2671
cur table: 2687
epoch: 1000
next table: 1779
cur table: 1802
epoch: 1000
next table: 2630
cur table: 2671
epoch: 1000
next table: 1778
cur table: 1779
epoch: 1000
next table: 2622
cur table: 2630
epoch: 1000
next table: 1769
cur table: 1778
epoch: 1000
next table: 2697
cur table: 2622
epoch: 1000
next table: 1770
cur table: 1769
epoch: 1000
next table: 2661
cur table: 2697
epoch: 1000
next table: 1792
cur table: 1770
epoch: 1000
next table: 2629
cur table: 2661
epoch: 1000
next table: 1818
cur table: 1792
epoch: 1000
next table: 2518
cur table: 2629
epoch: 1000
next table: 1850
cur table: 1818
epoch: 1000
next table: 2513
cur table: 2518
epoch: 1000
next table: 1848
cur table: 1850
epoch: 1000
next table: 2559
cur table: 2513
epoch: 1000
next table: 1827
cur table: 1848
epoch: 1000
next table: 2617
cur table: 2559
epoch: 1000
next table: 1797
cur table: 1827
epoch: 1000
next table: 2619
cur table: 2617
epoch: 1000
next table: 1775
cur table: 1797
epoch: 1000
next table: 2695
cur table: 2619
epoch: 1000
next table: 1781
cur table: 1775
epoch: 1000
next table: 2661
cur table: 2695
epoch: 1000
next table: 1768
cur table: 1781
epoch: 1000
next table: 2650
cur table: 2661
epoch: 1000
next table: 1775
cur table: 1768
epoch: 1000
next table: 2638
cur table: 2650
epoch: 1000
next table: 1765
cur table: 1775
epoch: 1000
next table: 2632
cur table: 2638
epoch: 1000
next table: 1766
cur table: 1765
epoch: 1000
next table: 2600
cur table: 2632
epoch: 1000
next table: 1811
cur table: 1766
epoch: 1000
next table: 2632
cur table: 2600
epoch: 1000
next table: 1796
cur table: 1811
epoch: 1000
next table: 2592
cur table: 2632
epoch: 1000
next table: 1857
cur table: 1796
epoch: 1000
next table: 2440
cur table: 2592
epoch: 1000
next table: 1887
cur table: 1857
epoch: 1000
next table: 2483
cur table: 2440
epoch: 1000
next table: 1813
cur table: 1887
epoch: 1000
next table: 2639
cur table: 2483
epoch: 1000
next table: 1801
cur table: 1813
epoch: 1000
next table: 2570
cur table: 2639
epoch: 1000
next table: 1809
cur table: 1801
epoch: 1000
next table: 2661
cur table: 2570
epoch: 1000
next table: 1810
cur table: 1809
epoch: 1000
next table: 2597
cur table: 2661
epoch: 1000
next table: 1823
cur table: 1810
epoch: 1000
next table: 2599
cur table: 2597
epoch: 1000
next table: 1798
cur table: 1823
epoch: 1000
next table: 2623
cur table: 2599
epoch: 1000
next table: 1825
cur table: 1798
epoch: 1000
next table: 2557
cur table: 2623
epoch: 1000
next table: 1893
cur table: 1825
epoch: 1000
next table: 2497
cur table: 2557
epoch: 1000
next table: 1836
cur table: 1893
epoch: 1000
next table: 2554
cur table: 2497
epoch: 1000
next table: 1856
cur table: 1836
epoch: 1000
next table: 2514
cur table: 2554
epoch: 1000
next table: 1807
cur table: 1856
epoch: 1000
next table: 2604
cur table: 2514
epoch: 1000
next table: 1796
cur table: 1807
epoch: 1000
next table: 2604
cur table: 2604
epoch: 1000
next table: 2562
cur table: 2604
epoch: 1000
next table: 1844
cur table: 1796
epoch: 1000
next table: 2564
cur table: 2562
epoch: 1000
next table: 1826
cur table: 1844
epoch: 1000
next table: 2603
cur table: 2564
epoch: 1000
next table: 1814
cur table: 1826
epoch: 1000
next table: 2655
cur table: 2603
epoch: 1000
next table: 1767
cur table: 1814
epoch: 1000
next table: 2620
cur table: 2655
epoch: 1000
next table: 1796
cur table: 1767
epoch: 1000
next table: 2680
cur table: 2620
epoch: 1000
next table: 1783
cur table: 1796
epoch: 1000
next table: 2681
cur table: 2680
epoch: 1000
next table: 1791
cur table: 1783
epoch: 1000
next table: 2568
cur table: 2681
epoch: 1000
next table: 1837
cur table: 1791
epoch: 1000
next table: 2644
cur table: 2568
epoch: 1000
next table: 1797
cur table: 1837
epoch: 1000
next table: 2579
cur table: 2644
epoch: 1000
next table: 1801
cur table: 1797
epoch: 1000
next table: 2669
cur table: 2579
epoch: 1000
next table: 1784
cur table: 1801
epoch: 1000
next table: 2649
cur table: 2669
epoch: 1000
next table: 1804
cur table: 1784
epoch: 1000
next table: 2633
cur table: 2649
epoch: 1000
next table: 1777
cur table: 1804
epoch: 1000
next table: 2628
cur table: 2633
epoch: 1000
next table: 1785
cur table: 1777
epoch: 1000
next table: 2663
cur table: 2628
epoch: 1000
next table: 1781
cur table: 1785
epoch: 1000
next table: 2657
cur table: 2663
epoch: 1000
next table: 1801
cur table: 1781
epoch: 1000
next table: 2614
cur table: 2657
epoch: 1000
next table: 1790
cur table: 1801
epoch: 1000
next table: 2654
cur table: 2614
epoch: 1000
next table: 1772
cur table: 1790
epoch: 1000
next table: 2681
cur table: 2654
epoch: 1000
next table: 1766
cur table: 1772
epoch: 1000
next table: 2661
cur table: 2681
epoch: 1000
next table: 1784
cur table: 1766
epoch: 1000
next table: 2601
cur table: 2661
epoch: 1000
next table: 1802
cur table: 1784
epoch: 1000
next table: 2646
cur table: 2601
epoch: 1000
next table: 1796
cur table: 1802
epoch: 1000
next table: 2594
cur table: 2646
epoch: 1000
next table: 1802
cur table: 1796
epoch: 1000
next table: 2632
cur table: 2594
epoch: 1000
next table: 1771
cur table: 1802
epoch: 1000
next table: 2651
cur table: 2632
epoch: 1000
next table: 1799
cur table: 1771
epoch: 1000
next table: 2653
cur table: 2651
epoch: 1000
next table: 1782
cur table: 1799
epoch: 1000
next table: 2640
cur table: 2653
epoch: 1000
next table: 1789
cur table: 1782
epoch: 1000
next table: 2647
cur table: 2640
epoch: 1000
next table: 1768
cur table: 1789
epoch: 1000
next table: 2694
cur table: 2647
epoch: 1000
next table: 1779
cur table: 1768
epoch: 1000
next table: 2667
cur table: 2694
epoch: 1000
next table: 1824
cur table: 1779
epoch: 1000
next table: 2617
cur table: 2667
epoch: 1000
next table: 1816
cur table: 1824
epoch: 1000
next table: 2634
cur table: 2617
epoch: 1000
next table: 1779
cur table: 1816
epoch: 1000
next table: 2676
cur table: 2634
epoch: 1000
next table: 1774
cur table: 1779
epoch: 1000
next table: 2624
cur table: 2676
epoch: 1000
next table: 1800
cur table: 1774
epoch: 1000
next table: 2642
cur table: 2624
epoch: 1000
next table: 1773
cur table: 1800
epoch: 1000
next table: 2686
cur table: 2642
epoch: 1000
next table: 1785
cur table: 1773
epoch: 1000
next table: 2668
cur table: 2686
epoch: 1000
next table: 1773
cur table: 1785
epoch: 1000
next table: 2637
cur table: 2668
epoch: 1000
next table: 1790
cur table: 1773
epoch: 1000
next table: 2643
cur table: 2637
epoch: 1000
next table: 1778
cur table: 1790
epoch: 1000
next table: 2653
cur table: 2643
epoch: 1000
next table: 1783
cur table: 1778
epoch: 1000
next table: 2678
cur table: 2653
epoch: 1000
next table: 1786
cur table: 1783
epoch: 1000
next table: 2690
cur table: 2678
epoch: 1000
next table: 1788
cur table: 1786
epoch: 1000
next table: 2642
cur table: 2690
epoch: 1000
next table: 1780
cur table: 1788
epoch: 1000
next table: 2651
cur table: 2642
epoch: 1000
next table: 1793
cur table: 1780
epoch: 1000
next table: 2646
cur table: 2651
epoch: 1000
next table: 1770
cur table: 1793
epoch: 1000
next table: 2693
cur table: 2646
epoch: 1000
next table: 1778
cur table: 1770
epoch: 1000
next table: 2673
cur table: 2693
epoch: 1000
next table: 1779
cur table: 1778
epoch: 1000
next table: 2658
cur table: 2673
epoch: 1000
next table: 1790
cur table: 1779
epoch: 1000
next table: 2639
cur table: 2658
epoch: 1000
next table: 1767
cur table: 1790
epoch: 1000
next table: 2651
cur table: 2639
epoch: 1000
next table: 1776
cur table: 1767
epoch: 1000
next table: 2697
cur table: 2651
epoch: 1000
next table: 1778
cur table: 1776
epoch: 1000
next table: 2671
cur table: 2697
epoch: 1000
next table: 1762
cur table: 1778
epoch: 1000
next table: 2644
cur table: 2671
epoch: 1000
next table: 1762
cur table: 1762
epoch: 1000
next table: 2642
cur table: 2644
epoch: 1000
next table: 1760
cur table: 1762
epoch: 1000
next table: 2654
cur table: 2642
epoch: 1000
next table: 1784
cur table: 1760
epoch: 1000
next table: 2698
cur table: 2654
epoch: 1000
next table: 1776
cur table: 1784
epoch: 1000
next table: 2607
cur table: 2698
epoch: 1000
next table: 1778
cur table: 1776
epoch: 1000
next table: 2623
cur table: 2607
epoch: 1000
next table: 1769
cur table: 1778
epoch: 1000
next table: 2665
cur table: 2623
epoch: 1000
next table: 1782
cur table: 1769
epoch: 1000
next table: 2629
cur table: 2665
epoch: 1000
next table: 1786
cur table: 1782
epoch: 1000
next table: 2634
cur table: 2629
epoch: 1000
next table: 1762
cur table: 1786
epoch: 1000
next table: 2666
cur table: 2634
epoch: 1000
next table: 1757
cur table: 1762
epoch: 1000
next table: 2682
cur table: 2666
epoch: 1000
next table: 1776
cur table: 1757
epoch: 1000
next table: 2655
cur table: 2682
epoch: 1000
next table: 1807
cur table: 1776
epoch: 1000
next table: 2654
cur table: 2655
epoch: 1000
next table: 1809
cur table: 1807
epoch: 1000
next table: 2634
cur table: 2654
epoch: 1000
next table: 1813
cur table: 1809
epoch: 1000
next table: 2658
cur table: 2634
epoch: 1000
next table: 1826
cur table: 1813
epoch: 1000
next table: 2630
cur table: 2658
epoch: 1000
next table: 1758
cur table: 1826
epoch: 1000
next table: 2651
cur table: 2630
epoch: 1000
next table: 1777
cur table: 1758
epoch: 1000
next table: 2658
cur table: 2651
epoch: 1000
next table: 1766
cur table: 1777
epoch: 1000
next table: 2701
cur table: 2658
epoch: 1000
next table: 1757
cur table: 1766
epoch: 1000
next table: 2657
cur table: 2701
epoch: 1000
next table: 1762
cur table: 1757
epoch: 1000
next table: 2653
cur table: 2657
epoch: 1000
next table: 1777
cur table: 1762
epoch: 1000
next table: 2637
cur table: 2653
epoch: 1000
next table: 1777
cur table: 1777
epoch: 1000
next table: 2679
cur table: 2637
epoch: 1000
next table: 1769
cur table: 1777
epoch: 1000
next table: 2672
cur table: 2679
epoch: 1000
next table: 1762
cur table: 1769
epoch: 1000
next table: 2661
cur table: 2672
epoch: 1000
next table: 1761
cur table: 1762
epoch: 1000
next table: 2648
cur table: 2661
epoch: 1000
next table: 1772
cur table: 1761
epoch: 1000
next table: 2661
cur table: 2648
epoch: 1000
next table: 1777
cur table: 1772
epoch: 1000
next table: 2666
cur table: 2661
epoch: 1000
next table: 1781
cur table: 1777
epoch: 1000
next table: 2655
cur table: 2666
epoch: 1000
next table: 1778
cur table: 1781
epoch: 1000
next table: 2640
cur table: 2655
epoch: 1000
next table: 1792
cur table: 1778
epoch: 1000
next table: 2632
cur table: 2640
epoch: 1000
next table: 1779
cur table: 1792
epoch: 1000
next table: 2641
cur table: 2632
epoch: 1000
next table: 1797
cur table: 1779
epoch: 1000
next table: 2642
cur table: 2641
epoch: 1000
next table: 1772
cur table: 1797
epoch: 1000
next table: 2673
cur table: 2642
epoch: 1000
next table: 1776
cur table: 1772
epoch: 1000
next table: 2644
cur table: 2673
epoch: 1000
next table: 1789
cur table: 1776
epoch: 1000
next table: 2576
cur table: 2644
epoch: 1000
next table: 1864
cur table: 1789
epoch: 1000
next table: 2584
cur table: 2576
epoch: 1000
next table: 1839
cur table: 1864
epoch: 1000
next table: 2535
cur table: 2584
epoch: 1000
next table: 1858
cur table: 1839
epoch: 1000
next table: 2538
cur table: 2535
epoch: 1000
next table: 1857
cur table: 1858
epoch: 1000
next table: 2498
cur table: 2538
epoch: 1000
next table: 1820
cur table: 1857
epoch: 1000
next table: 2625
cur table: 2498
epoch: 1000
next table: 1793
cur table: 1820
epoch: 1000
next table: 2641
cur table: 2625
epoch: 1000
next table: 1788
cur table: 1793
epoch: 1000
next table: 2649
cur table: 2641
epoch: 1000
next table: 1774
cur table: 1788
epoch: 1000
next table: 2637
cur table: 2649
epoch: 1000
next table: 2664
cur table: 2637
epoch: 1000
next table: 1799
cur table: 1774
epoch: 1000
next table: 2652
cur table: 2664
epoch: 1000
next table: 1793
cur table: 1799
epoch: 1000
next table: 2645
cur table: 2652
epoch: 1000
next table: 1791
cur table: 1793
epoch: 1000
next table: 2634
cur table: 2645
epoch: 1000
next table: 1781
cur table: 1791
epoch: 1000
next table: 2650
cur table: 2634
epoch: 1000
next table: 1804
cur table: 1781
epoch: 1000
next table: 2575
cur table: 2650
epoch: 1000
next table: 1807
cur table: 1804
epoch: 1000
next table: 2641
cur table: 2575
epoch: 1000
next table: 1809
cur table: 1807
epoch: 1000
next table: 2570
cur table: 2641
epoch: 1000
next table: 1788
cur table: 1809
epoch: 1000
next table: 2641
cur table: 2570
epoch: 1000
next table: 1828
cur table: 1788
epoch: 1000
next table: 2565
cur table: 2641
epoch: 1000
next table: 1822
cur table: 1828
epoch: 1000
next table: 2602
cur table: 2565
epoch: 1000
next table: 1812
cur table: 1822
epoch: 1000
next table: 2587
cur table: 2602
epoch: 1000
next table: 1792
cur table: 1812
epoch: 1000
next table: 2648
cur table: 2587
epoch: 1000
next table: 1789
cur table: 1792
epoch: 1000
next table: 2628
cur table: 2648
epoch: 1000
next table: 1802
cur table: 1789
epoch: 1000
next table: 2658
cur table: 2628
epoch: 1000
next table: 1782
cur table: 1802
epoch: 1000
next table: 2639
cur table: 2658
epoch: 1000
next table: 1778
cur table: 1782
epoch: 1000
next table: 2691
cur table: 2639
epoch: 1000
next table: 1770
cur table: 1778
epoch: 1000
next table: 2674
cur table: 2691
epoch: 1000
next table: 1793
cur table: 1770
epoch: 1000
next table: 2657
cur table: 2674
epoch: 1000
next table: 1788
cur table: 1793
epoch: 1000
next table: 2638
cur table: 2657
epoch: 1000
next table: 1794
cur table: 1788
epoch: 1000
next table: 2649
cur table: 2638
epoch: 1000
next table: 1792
cur table: 1794
epoch: 1000
next table: 2673
cur table: 2649
epoch: 1000
next table: 1780
cur table: 1792
epoch: 1000
next table: 2604
cur table: 2673
epoch: 1000
next table: 1808
cur table: 1780
epoch: 1000
next table: 2638
cur table: 2604
epoch: 1000
next table: 1789
cur table: 1808
epoch: 1000
next table: 2683
cur table: 2638
epoch: 1000
next table: 1796
cur table: 1789
epoch: 1000
next table: 2617
cur table: 2683
epoch: 1000
next table: 1788
cur table: 1796
epoch: 1000
next table: 2655
cur table: 2617
epoch: 1000
next table: 1805
cur table: 1788
epoch: 1000
next table: 2616
cur table: 2655
epoch: 1000
next table: 1811
cur table: 1805
epoch: 1000
next table: 2596
cur table: 2616
epoch: 1000
next table: 1818
cur table: 1811
epoch: 1000
next table: 2549
cur table: 2596
epoch: 1000
next table: 1863
cur table: 1818
epoch: 1000
next table: 2538
cur table: 2549
epoch: 1000
next table: 1871
cur table: 1863
epoch: 1000
next table: 2526
cur table: 2538
epoch: 1000
next table: 1840
cur table: 1871
epoch: 1000
next table: 2525
cur table: 2526
epoch: 1000
next table: 1791
cur table: 1840
epoch: 1000
next table: 2638
cur table: 2525
epoch: 1000
next table: 1794
cur table: 1791
epoch: 1000
next table: 2643
cur table: 2638
epoch: 1000
next table: 1813
cur table: 1794
epoch: 1000
next table: 2596
cur table: 2643
epoch: 1000
next table: 1830
cur table: 1813
epoch: 1000
next table: 2540
cur table: 2596
epoch: 1000
next table: 1835
cur table: 1830
epoch: 1000
next table: 2537
cur table: 2540
epoch: 1000
next table: 1828
cur table: 1835
epoch: 1000
next table: 2612
cur table: 2537
epoch: 1000
next table: 1792
cur table: 1828
epoch: 1000
next table: 2659
cur table: 2612
epoch: 1000
next table: 1810
cur table: 1792
epoch: 1000
next table: 2641
cur table: 2659
epoch: 1000
next table: 1762
cur table: 1810
epoch: 1000
next table: 2655
cur table: 2641
epoch: 1000
next table: 1812
cur table: 1762
epoch: 1000
next table: 2657
cur table: 2655
epoch: 1000
next table: 1800
cur table: 1812
epoch: 1000
next table: 2658
cur table: 2657
epoch: 1000
next table: 1804
cur table: 1800
epoch: 1000
next table: 2626
cur table: 2658
epoch: 1000
next table: 1794
cur table: 1804
epoch: 1000
next table: 2627
cur table: 2626
epoch: 1000
next table: 1839
cur table: 1794
epoch: 1000
next table: 2565
cur table: 2627
epoch: 1000
next table: 2590
cur table: 2565
epoch: 1000
next table: 1822
cur table: 1839
epoch: 1000
next table: 2652
cur table: 2590
epoch: 1000
next table: 1771
cur table: 1822
epoch: 1000
next table: 2638
cur table: 2652
epoch: 1000
next table: 1781
cur table: 1771
epoch: 1000
next table: 2634
cur table: 2638
epoch: 1000
next table: 1790
cur table: 1781
epoch: 1000
next table: 2681
cur table: 2634
epoch: 1000
next table: 1776
cur table: 1790
epoch: 1000
next table: 2646
cur table: 2681
epoch: 1000
next table: 1784
cur table: 1776
epoch: 1000
next table: 2668
cur table: 2646
epoch: 1000
next table: 1786
cur table: 1784
epoch: 1000
next table: 2631
cur table: 2668
epoch: 1000
next table: 1766
cur table: 1786
epoch: 1000
next table: 2687
cur table: 2631
epoch: 1000
next table: 1771
cur table: 1766
epoch: 1000
next table: 2662
cur table: 2687
epoch: 1000
next table: 1780
cur table: 1771
epoch: 1000
next table: 2627
cur table: 2662
epoch: 1000
next table: 1797
cur table: 1780
epoch: 1000
next table: 2619
cur table: 2627
epoch: 1000
next table: 1807
cur table: 1797
epoch: 1000
next table: 2654
cur table: 2619
epoch: 1000
next table: 1784
cur table: 1807
epoch: 1000
next table: 2646
cur table: 2654
epoch: 1000
next table: 1765
cur table: 1784
epoch: 1000
next table: 2644
cur table: 2646
epoch: 1000
next table: 1803
cur table: 1765
epoch: 1000
next table: 2681
cur table: 2644
epoch: 1000
next table: 1782
cur table: 1803
epoch: 1000
next table: 2682
cur table: 2681
epoch: 1000
next table: 1765
cur table: 1782
epoch: 1000
next table: 2661
cur table: 2682
epoch: 1000
next table: 1768
cur table: 1765
epoch: 1000
next table: 2641
cur table: 2661
epoch: 1000
next table: 1775
cur table: 1768
epoch: 1000
next table: 2684
cur table: 2641
epoch: 1000
next table: 1813
cur table: 1775
epoch: 1000
next table: 2635
cur table: 2684
epoch: 1000
next table: 1788
cur table: 1813
epoch: 1000
next table: 2682
cur table: 2635
epoch: 1000
next table: 1777
cur table: 1788
epoch: 1000
next table: 2651
cur table: 2682
epoch: 1000
next table: 1774
cur table: 1777
epoch: 1000
next table: 2675
cur table: 2651
epoch: 1000
next table: 1776
cur table: 1774
epoch: 1000
next table: 2647
cur table: 2675
epoch: 1000
next table: 1788
cur table: 1776
epoch: 1000
next table: 2669
cur table: 2647
epoch: 1000
next table: 1779
cur table: 1788
epoch: 1000
next table: 2672
cur table: 2669
epoch: 1000
next table: 1766
cur table: 1779
epoch: 1000
next table: 2660
cur table: 2672
epoch: 1000
next table: 1767
cur table: 1766
epoch: 1000
next table: 2664
cur table: 2660
epoch: 1000
next table: 1771
cur table: 1767
epoch: 1000
next table: 2644
cur table: 2664
epoch: 1000
next table: 1789
cur table: 1771
epoch: 1000
next table: 2670
cur table: 2644
epoch: 1000
next table: 1796
cur table: 1789
epoch: 1000
next table: 2663
cur table: 2670
epoch: 1000
next table: 1786
cur table: 1796
epoch: 1000
next table: 2646
cur table: 2663
epoch: 1000
next table: 1785
cur table: 1786
epoch: 1000
next table: 2635
cur table: 2646
epoch: 1000
next table: 1789
cur table: 1785
epoch: 1000
next table: 2682
cur table: 2635
epoch: 1000
next table: 1790
cur table: 1789
epoch: 1000
next table: 2659
cur table: 2682
epoch: 1000
next table: 1774
cur table: 1790
epoch: 1000
next table: 2626
cur table: 2659
epoch: 1000
next table: 1798
cur table: 1774
epoch: 1000
next table: 2606
cur table: 2626
epoch: 1000
next table: 1785
cur table: 1798
epoch: 1000
next table: 2659
cur table: 2606
epoch: 1000
next table: 1815
cur table: 1785
epoch: 1000
next table: 2601
cur table: 2659
epoch: 1000
next table: 1823
cur table: 1815
epoch: 1000
next table: 2505
cur table: 2601
epoch: 1000
next table: 1888
cur table: 1823
epoch: 1000
next table: 2462
cur table: 2505
epoch: 1000
next table: 1855
cur table: 1888
epoch: 1000
next table: 2632
cur table: 2462
epoch: 1000
next table: 1840
cur table: 1855
epoch: 1000
next table: 2558
cur table: 2632
epoch: 1000
next table: 1802
cur table: 1840
epoch: 1000
next table: 2626
cur table: 2558
epoch: 1000
next table: 1828
cur table: 1802
epoch: 1000
next table: 2604
cur table: 2626
epoch: 1000
next table: 1790
cur table: 1828
epoch: 1000
next table: 2660
cur table: 2604
epoch: 1000
next table: 1795
cur table: 1790
epoch: 1000
next table: 2635
cur table: 2660
epoch: 1000
next table: 1806
cur table: 1795
epoch: 1000
next table: 2645
cur table: 2635
epoch: 1000
next table: 1782
cur table: 1806
epoch: 1000
next table: 2639
cur table: 2645
epoch: 1000
next table: 1771
cur table: 1782
epoch: 1000
next table: 2657
cur table: 2639
epoch: 1000
next table: 1805
cur table: 1771
epoch: 1000
next table: 2699
cur table: 2657
epoch: 1000
next table: 1793
cur table: 1805
epoch: 1000
next table: 2630
cur table: 2699
epoch: 1000
next table: 1770
cur table: 1793
epoch: 1000
next table: 2629
cur table: 2630
epoch: 1000
next table: 1791
cur table: 1770
epoch: 1000
next table: 2655
cur table: 2629
epoch: 1000
next table: 1780
cur table: 1791
epoch: 1000
next table: 2661
cur table: 2655
epoch: 1000
next table: 1780
cur table: 1780
epoch: 1000
next table: 2649
cur table: 2661
epoch: 1000
next table: 1769
cur table: 1780
epoch: 1000
next table: 2651
cur table: 2649
epoch: 1000
next table: 1765
cur table: 1769
epoch: 1000
next table: 2654
cur table: 2651
epoch: 1000
next table: 1765
cur table: 1765
epoch: 1000
next table: 2681
cur table: 2654
epoch: 1000
next table: 1788
cur table: 1765
epoch: 1000
next table: 2683
cur table: 2681
epoch: 1000
next table: 1816
cur table: 1788
epoch: 1000
next table: 2624
cur table: 2683
epoch: 1000
next table: 1778
cur table: 1816
epoch: 1000
next table: 2604
cur table: 2624
epoch: 1000
next table: 1797
cur table: 1778
epoch: 1000
next table: 2661
cur table: 2604
epoch: 1000
next table: 1810
cur table: 1797
epoch: 1000
next table: 2624
cur table: 2661
epoch: 1000
next table: 1800
cur table: 1810
epoch: 1000
next table: 2638
cur table: 2624
epoch: 1000
next table: 1886
cur table: 1800
epoch: 1000
next table: 2476
cur table: 2638
epoch: 1000
next table: 1857
cur table: 1886
epoch: 1000
next table: 2604
cur table: 2476
epoch: 1000
next table: 1793
cur table: 1857
epoch: 1000
next table: 2626
cur table: 2604
epoch: 1000
next table: 1807
cur table: 1793
epoch: 1000
next table: 2672
cur table: 2626
epoch: 1000
next table: 1790
cur table: 1807
epoch: 1000
next table: 2653
cur table: 2672
epoch: 1000
next table: 1818
cur table: 1790
epoch: 1000
next table: 2617
cur table: 2653
epoch: 1000
next table: 1784
cur table: 1818
epoch: 1000
next table: 2647
cur table: 2617
epoch: 1000
next table: 1822
cur table: 1784
epoch: 1000
next table: 2619
cur table: 2647
epoch: 1000
next table: 1797
cur table: 1822
epoch: 1000
next table: 2613
cur table: 2619
epoch: 1000
next table: 1795
cur table: 1797
epoch: 1000
next table: 2649
cur table: 2613
epoch: 1000
next table: 1784
cur table: 1795
epoch: 1000
next table: 2658
cur table: 2649
epoch: 1000
next table: 1771
cur table: 1784
epoch: 1000
next table: 2640
cur table: 2658
epoch: 1000
next table: 1799
cur table: 1771
epoch: 1000
next table: 2640
cur table: 2640
epoch: 1000
next table: 1782
cur table: 1799
epoch: 1000
next table: 2679
cur table: 2640
epoch: 1000
next table: 1842
cur table: 1782
epoch: 1000
next table: 2586
cur table: 2679
epoch: 1000
next table: 1819
cur table: 1842
epoch: 1000
next table: 2616
cur table: 2586
epoch: 1000
next table: 1803
cur table: 1819
epoch: 1000
next table: 2619
cur table: 2616
epoch: 1000
next table: 1778
cur table: 1803
epoch: 1000
next table: 2656
cur table: 2619
epoch: 1000
next table: 1792
cur table: 1778
epoch: 1000
next table: 2673
cur table: 2656
epoch: 1000
next table: 1783
cur table: 1792
epoch: 1000
next table: 2660
cur table: 2673
epoch: 1000
next table: 1766
cur table: 1783
epoch: 1000
next table: 2667
cur table: 2660
epoch: 1000
next table: 1809
cur table: 1766
epoch: 1000
next table: 2651
cur table: 2667
epoch: 1000
next table: 1785
cur table: 1809
epoch: 1000
next table: 2650
cur table: 2651
epoch: 1000
next table: 2634
cur table: 2650
epoch: 1000
next table: 1778
cur table: 1785
epoch: 1000
next table: 2639
cur table: 2634
epoch: 1000
next table: 1779
cur table: 1778
epoch: 1000
next table: 2632
cur table: 2639
epoch: 1000
next table: 1775
cur table: 1779
epoch: 1000
next table: 2650
cur table: 2632
epoch: 1000
next table: 1818
cur table: 1775
epoch: 1000
next table: 2528
cur table: 2650
epoch: 1000
next table: 1851
cur table: 1818
epoch: 1000
next table: 2657
cur table: 2528
epoch: 1000
next table: 1793
cur table: 1851
epoch: 1000
next table: 2621
cur table: 2657
epoch: 1000
next table: 1809
cur table: 1793
epoch: 1000
next table: 2583
cur table: 2621
epoch: 1000
next table: 1807
cur table: 1809
epoch: 1000
next table: 2662
cur table: 2583
epoch: 1000
next table: 1774
cur table: 1807
epoch: 1000
next table: 2567
cur table: 2662
epoch: 1000
next table: 1800
cur table: 1774
epoch: 1000
next table: 2641
cur table: 2567
epoch: 1000
next table: 1790
cur table: 1800
epoch: 1000
next table: 2519
cur table: 2641
epoch: 1000
next table: 1843
cur table: 1790
epoch: 1000
next table: 2563
cur table: 2519
epoch: 1000
next table: 1822
cur table: 1843
epoch: 1000
next table: 2676
cur table: 2563
epoch: 1000
next table: 1806
cur table: 1822
epoch: 1000
next table: 2601
cur table: 2676
epoch: 1000
next table: 1825
cur table: 1806
epoch: 1000
next table: 2582
cur table: 2601
epoch: 1000
next table: 1816
cur table: 1825
epoch: 1000
next table: 2669
cur table: 2582
epoch: 1000
next table: 1793
cur table: 1816
epoch: 1000
next table: 2654
cur table: 2669
epoch: 1000
next table: 1775
cur table: 1793
epoch: 1000
next table: 2655
cur table: 2654
epoch: 1000
next table: 1807
cur table: 1775
epoch: 1000
next table: 2637
cur table: 2655
epoch: 1000
next table: 1831
cur table: 1807
epoch: 1000
next table: 2664
cur table: 2637
epoch: 1000
next table: 1787
cur table: 1831
epoch: 1000
next table: 2572
cur table: 2664
epoch: 1000
next table: 1820
cur table: 1787
epoch: 1000
next table: 2646
cur table: 2572
epoch: 1000
next table: 1794
cur table: 1820
epoch: 1000
next table: 2605
cur table: 2646
epoch: 1000
next table: 1821
cur table: 1794
epoch: 1000
next table: 2607
cur table: 2605
epoch: 1000
next table: 1795
cur table: 1821
epoch: 1000
next table: 2600
cur table: 2607
epoch: 1000
next table: 1823
cur table: 1795
epoch: 1000
next table: 2599
cur table: 2600
epoch: 1000
next table: 1795
cur table: 1823
epoch: 1000
next table: 2639
cur table: 2599
epoch: 1000
next table: 1830
cur table: 1795
epoch: 1000
next table: 2573
cur table: 2639
epoch: 1000
next table: 1821
cur table: 1830
epoch: 1000
next table: 2619
cur table: 2573
epoch: 1000
next table: 1825
cur table: 1821
epoch: 1000
next table: 2592
cur table: 2619
epoch: 1000
next table: 1840
cur table: 1825
epoch: 1000
next table: 2646
cur table: 2592
epoch: 1000
next table: 1797
cur table: 1840
epoch: 1000
next table: 2665
cur table: 2646
epoch: 1000
next table: 1773
cur table: 1797
epoch: 1000
next table: 2650
cur table: 2665
epoch: 1000
next table: 1786
cur table: 1773
epoch: 1000
next table: 2631
cur table: 2650
epoch: 1000
next table: 1796
cur table: 1786
epoch: 1000
next table: 2666
cur table: 2631
epoch: 1000
next table: 1816
cur table: 1796
epoch: 1000
next table: 2587
cur table: 2666
epoch: 1000
next table: 1781
cur table: 1816
epoch: 1000
next table: 2685
cur table: 2587
epoch: 1000
next table: 1796
cur table: 1781
epoch: 1000
next table: 2657
cur table: 2685
epoch: 1000
next table: 1794
cur table: 1796
epoch: 1000
next table: 2666
cur table: 2657
epoch: 1000
next table: 1767
cur table: 1794
epoch: 1000
next table: 2649
cur table: 2666
epoch: 1000
next table: 1775
cur table: 1767
epoch: 1000
next table: 2657
cur table: 2649
epoch: 1000
next table: 1770
cur table: 1775
epoch: 1000
next table: 2668
cur table: 2657
epoch: 1000
next table: 1774
cur table: 1770
epoch: 1000
next table: 2671
cur table: 2668
epoch: 1000
next table: 1807
cur table: 1774
epoch: 1000
next table: 2623
cur table: 2671
epoch: 1000
next table: 1796
cur table: 1807
epoch: 1000
next table: 2618
cur table: 2623
epoch: 1000
next table: 1780
cur table: 1796
epoch: 1000
next table: 2672
cur table: 2618
epoch: 1000
next table: 1788
cur table: 1780
epoch: 1000
next table: 2663
cur table: 2672
epoch: 1000
next table: 1804
cur table: 1788
epoch: 1000
next table: 2640
cur table: 2663
epoch: 1000
next table: 1774
cur table: 1804
epoch: 1000
next table: 2671
cur table: 2640
epoch: 1000
next table: 1790
cur table: 1774
epoch: 1000
next table: 2658
cur table: 2671
epoch: 1000
next table: 1809
cur table: 1790
epoch: 1000
next table: 2656
cur table: 2658
epoch: 1000
next table: 1770
cur table: 1809
epoch: 1000
next table: 2662
cur table: 2656
epoch: 1000
next table: 1816
cur table: 1770
epoch: 1000
next table: 2659
cur table: 2662
epoch: 1000
next table: 1795
cur table: 1816
epoch: 1000
next table: 2645
cur table: 2659
epoch: 1000
next table: 1791
cur table: 1795
epoch: 1000
next table: 2676
cur table: 2645
epoch: 1000
next table: 1757
cur table: 1791
epoch: 1000
next table: 2677
cur table: 2676
epoch: 1000
next table: 1812
cur table: 1757
epoch: 1000
next table: 2650
cur table: 2677
epoch: 1000
next table: 1766
cur table: 1812
epoch: 1000
next table: 2644
cur table: 2650
epoch: 1000
next table: 1796
cur table: 1766
epoch: 1000
next table: 2691
cur table: 2644
epoch: 1000
next table: 1781
cur table: 1796
epoch: 1000
next table: 2642
cur table: 2691
epoch: 1000
next table: 1765
cur table: 1781
epoch: 1000
next table: 2679
cur table: 2642
epoch: 1000
next table: 1777
cur table: 1765
epoch: 1000
next table: 2650
cur table: 2679
epoch: 1000
next table: 1783
cur table: 1777
epoch: 1000
next table: 2639
cur table: 2650
epoch: 1000
next table: 1783
cur table: 1783
epoch: 1000
next table: 2667
cur table: 2639
epoch: 1000
next table: 1785
cur table: 1783
epoch: 1000
next table: 2685
cur table: 2667
epoch: 1000
next table: 1761
cur table: 1785
epoch: 1000
next table: 2663
cur table: 2685
epoch: 1000
next table: 1775
cur table: 1761
epoch: 1000
next table: 2645
cur table: 2663
epoch: 1000
next table: 1783
cur table: 1775
epoch: 1000
next table: 2652
cur table: 2645
epoch: 1000
next table: 1796
cur table: 1783
epoch: 1000
next table: 2654
cur table: 2652
epoch: 1000
next table: 1793
cur table: 1796
epoch: 1000
next table: 2695
cur table: 2654
epoch: 1000
next table: 1775
cur table: 1793
epoch: 1000
next table: 2667
cur table: 2695
epoch: 1000
next table: 1793
cur table: 1775
epoch: 1000
next table: 2632
cur table: 2667
epoch: 1000
next table: 1802
cur table: 1793
epoch: 1000
next table: 2618
cur table: 2632
epoch: 1000
next table: 1826
cur table: 1802
epoch: 1000
next table: 2609
cur table: 2618
epoch: 1000
next table: 1795
cur table: 1826
epoch: 1000
next table: 2636
cur table: 2609
epoch: 1000
next table: 1802
cur table: 1795
epoch: 1000
next table: 2629
cur table: 2636
epoch: 1000
next table: 1776
cur table: 1802
epoch: 1000
next table: 2654
cur table: 2629
epoch: 1000
next table: 1836
cur table: 1776
epoch: 1000
next table: 2641
cur table: 2654
epoch: 1000
next table: 1773
cur table: 1836
epoch: 1000
next table: 2668
cur table: 2641
epoch: 1000
next table: 1783
cur table: 1773
epoch: 1000
next table: 2658
cur table: 2668
epoch: 1000
next table: 1778
cur table: 1783
epoch: 1000
next table: 2683
cur table: 2658
epoch: 1000
next table: 1777
cur table: 1778
epoch: 1000
next table: 2643
cur table: 2683
epoch: 1000
next table: 1772
cur table: 1777
epoch: 1000
next table: 2644
cur table: 2643
epoch: 1000
next table: 1787
cur table: 1772
epoch: 1000
next table: 2669
cur table: 2644
epoch: 1000
next table: 1773
cur table: 1787
epoch: 1000
next table: 2681
cur table: 2669
epoch: 1000
next table: 1781
cur table: 1773
epoch: 1000
next table: 2656
cur table: 2681
epoch: 1000
next table: 1769
cur table: 1781
epoch: 1000
next table: 2639
cur table: 2656
epoch: 1000
next table: 1783
cur table: 1769
epoch: 1000
next table: 2658
cur table: 2639
epoch: 1000
next table: 1773
cur table: 1783
epoch: 1000
next table: 2660
cur table: 2658
epoch: 1000
next table: 2642
cur table: 2660
epoch: 1000
next table: 1806
cur table: 1773
epoch: 1000
next table: 2634
cur table: 2642
epoch: 1000
next table: 1780
cur table: 1806
epoch: 1000
next table: 2687
cur table: 2634
epoch: 1000
next table: 1786
cur table: 1780
epoch: 1000
next table: 2642
cur table: 2687
epoch: 1000
next table: 1772
cur table: 1786
epoch: 1000
next table: 2688
cur table: 2642
epoch: 1000
next table: 1775
cur table: 1772
epoch: 1000
next table: 2649
cur table: 2688
epoch: 1000
next table: 1771
cur table: 1775
epoch: 1000
next table: 2648
cur table: 2649
epoch: 1000
next table: 1775
cur table: 1771
epoch: 1000
next table: 2665
cur table: 2648
epoch: 1000
next table: 1793
cur table: 1775
epoch: 1000
next table: 2656
cur table: 2665
epoch: 1000
next table: 1787
cur table: 1793
epoch: 1000
next table: 2683
cur table: 2656
epoch: 1000
next table: 1776
cur table: 1787
epoch: 1000
next table: 2639
cur table: 2683
epoch: 1000
next table: 1778
cur table: 1776
epoch: 1000
next table: 2678
cur table: 2639
epoch: 1000
next table: 1777
cur table: 1778
epoch: 1000
next table: 2625
cur table: 2678
epoch: 1000
next table: 1769
cur table: 1777
epoch: 1000
next table: 2633
cur table: 2625
epoch: 1000
next table: 1807
cur table: 1769
epoch: 1000
next table: 2598
cur table: 2633
epoch: 1000
next table: 1782
cur table: 1807
epoch: 1000
next table: 2615
cur table: 2598
epoch: 1000
next table: 1810
cur table: 1782
epoch: 1000
next table: 2558
cur table: 2615
epoch: 1000
next table: 1821
cur table: 1810
epoch: 1000
next table: 2534
cur table: 2558
epoch: 1000
next table: 1867
cur table: 1821
epoch: 1000
next table: 2498
cur table: 2534
epoch: 1000
next table: 1861
cur table: 1867
epoch: 1000
next table: 2567
cur table: 2498
epoch: 1000
next table: 1856
cur table: 1861
epoch: 1000
next table: 2524
cur table: 2567
epoch: 1000
next table: 1817
cur table: 1856
epoch: 1000
next table: 2545
cur table: 2524
epoch: 1000
next table: 1868
cur table: 1817
epoch: 1000
next table: 2567
cur table: 2545
epoch: 1000
next table: 1816
cur table: 1868
epoch: 1000
next table: 2543
cur table: 2567
epoch: 1000
next table: 1844
cur table: 1816
epoch: 1000
next table: 2582
cur table: 2543
epoch: 1000
next table: 1818
cur table: 1844
epoch: 1000
next table: 2580
cur table: 2582
epoch: 1000
next table: 1879
cur table: 1818
epoch: 1000
next table: 2616
cur table: 2580
epoch: 1000
next table: 1854
cur table: 1879
epoch: 1000
next table: 2535
cur table: 2616
epoch: 1000
next table: 2450
cur table: 2535
epoch: 1000
next table: 1957
cur table: 1854
epoch: 1000
next table: 2469
cur table: 2450
epoch: 1000
next table: 1920
cur table: 1957
epoch: 1000
next table: 2589
cur table: 2469
epoch: 1000
next table: 1920
cur table: 1920
epoch: 1000
next table: 2577
cur table: 2589
epoch: 1000
next table: 1957
cur table: 1920
epoch: 1000
next table: 2617
cur table: 2577
epoch: 1000
next table: 2062
cur table: 1957
epoch: 1000
next table: 2586
cur table: 2617
epoch: 1000
next table: 2601
cur table: 2586
epoch: 1000
next table: 2161
cur table: 2062
epoch: 1000
next table: 2531
cur table: 2601
epoch: 1000
next table: 2107
cur table: 2161
epoch: 1000
next table: 2574
cur table: 2531
epoch: 1000
next table: 2538
cur table: 2574
epoch: 1000
next table: 2124
cur table: 2107
epoch: 1000
next table: 2562
cur table: 2538
epoch: 1000
next table: 2286
cur table: 2124
epoch: 1000
next table: 2540
cur table: 2562
epoch: 1000
next table: 2569
cur table: 2540
epoch: 1000
next table: 2314
cur table: 2286
epoch: 1000
next table: 2586
cur table: 2569
epoch: 1000
next table: 2271
cur table: 2314
epoch: 1000
next table: 2586
cur table: 2586
epoch: 1000
next table: 2627
cur table: 2586
epoch: 1000
next table: 2145
cur table: 2271
epoch: 1000
next table: 2603
cur table: 2627
epoch: 1000
next table: 2083
cur table: 2145
epoch: 1000
next table: 2586
cur table: 2603
epoch: 1000
next table: 2615
cur table: 2586
epoch: 1000
next table: 1950
cur table: 2083
epoch: 1000
next table: 2604
cur table: 2615
epoch: 1000
next table: 1967
cur table: 1950
epoch: 1000
next table: 2615
cur table: 2604
epoch: 1000
next table: 1938
cur table: 1967
epoch: 1000
next table: 2637
cur table: 2615
epoch: 1000
next table: 1911
cur table: 1938
epoch: 1000
next table: 2600
cur table: 2637
epoch: 1000
next table: 1974
cur table: 1911
epoch: 1000
next table: 2625
cur table: 2600
epoch: 1000
next table: 2576
cur table: 2625
epoch: 1000
next table: 1906
cur table: 1974
epoch: 1000
next table: 2634
cur table: 2576
epoch: 1000
next table: 1880
cur table: 1906
epoch: 1000
next table: 2627
cur table: 2634
epoch: 1000
next table: 1880
cur table: 1880
epoch: 1000
next table: 2604
cur table: 2627
epoch: 1000
next table: 1885
cur table: 1880
epoch: 1000
next table: 2688
cur table: 2604
epoch: 1000
next table: 1884
cur table: 1885
epoch: 1000
next table: 2519
cur table: 2688
epoch: 1000
next table: 1968
cur table: 1884
epoch: 1000
next table: 2660
cur table: 2519
epoch: 1000
next table: 1879
cur table: 1968
epoch: 1000
next table: 2545
cur table: 2660
epoch: 1000
next table: 2572
cur table: 2545
epoch: 1000
next table: 1904
cur table: 1879
epoch: 1000
next table: 2527
cur table: 2572
epoch: 1000
next table: 1938
cur table: 1904
epoch: 1000
next table: 2558
cur table: 2527
epoch: 1000
next table: 1819
cur table: 1938
epoch: 1000
next table: 2674
cur table: 2558
epoch: 1000
next table: 1809
cur table: 1819
epoch: 1000
next table: 2594
cur table: 2674
epoch: 1000
next table: 1835
cur table: 1809
epoch: 1000
next table: 2646
cur table: 2594
epoch: 1000
next table: 1821
cur table: 1835
epoch: 1000
next table: 2603
cur table: 2646
epoch: 1000
next table: 1808
cur table: 1821
epoch: 1000
next table: 2624
cur table: 2603
epoch: 1000
next table: 1865
cur table: 1808
epoch: 1000
next table: 2554
cur table: 2624
epoch: 1000
next table: 1880
cur table: 1865
epoch: 1000
next table: 2559
cur table: 2554
epoch: 1000
next table: 1912
cur table: 1880
epoch: 1000
next table: 2453
cur table: 2559
epoch: 1000
next table: 1824
cur table: 1912
epoch: 1000
next table: 2617
cur table: 2453
epoch: 1000
next table: 1893
cur table: 1824
epoch: 1000
next table: 2508
cur table: 2617
epoch: 1000
next table: 2610
cur table: 2508
epoch: 1000
next table: 1838
cur table: 1893
epoch: 1000
next table: 2517
cur table: 2610
epoch: 1000
next table: 1947
cur table: 1838
epoch: 1000
next table: 2509
cur table: 2517
epoch: 1000
next table: 1940
cur table: 1947
epoch: 1000
next table: 2494
cur table: 2509
epoch: 1000
next table: 1867
cur table: 1940
epoch: 1000
next table: 2562
cur table: 2494
epoch: 1000
next table: 1844
cur table: 1867
epoch: 1000
next table: 2632
cur table: 2562
epoch: 1000
next table: 1891
cur table: 1844
epoch: 1000
next table: 2557
cur table: 2632
epoch: 1000
next table: 1905
cur table: 1891
epoch: 1000
next table: 2642
cur table: 2557
epoch: 1000
next table: 1852
cur table: 1905
epoch: 1000
next table: 2667
cur table: 2642
epoch: 1000
next table: 1856
cur table: 1852
epoch: 1000
next table: 2575
cur table: 2667
epoch: 1000
next table: 2629
cur table: 2575
epoch: 1000
next table: 1841
cur table: 1856
epoch: 1000
next table: 2541
cur table: 2629
epoch: 1000
next table: 1864
cur table: 1841
epoch: 1000
next table: 2502
cur table: 2541
epoch: 1000
next table: 1894
cur table: 1864
epoch: 1000
next table: 2604
cur table: 2502
epoch: 1000
next table: 1838
cur table: 1894
epoch: 1000
next table: 2477
cur table: 2604
epoch: 1000
next table: 1856
cur table: 1838
epoch: 1000
next table: 2484
cur table: 2477
epoch: 1000
next table: 1915
cur table: 1856
epoch: 1000
next table: 2402
cur table: 2484
epoch: 1000
next table: 1977
cur table: 1915
epoch: 1000
next table: 2497
cur table: 2402
epoch: 1000
next table: 1825
cur table: 1977
epoch: 1000
next table: 2554
cur table: 2497
epoch: 1000
next table: 1833
cur table: 1825
epoch: 1000
next table: 2605
cur table: 2554
epoch: 1000
next table: 1825
cur table: 1833
epoch: 1000
next table: 2570
cur table: 2605
Heartbeat CPU 0 instructions: 10000001 cycles: 2917512 heartbeat IPC: 3.42758 cumulative IPC: 3.42758 (Simulation time: 0 hr 5 min 41 sec) 
epoch: 1000
next table: 1824
cur table: 1825
epoch: 1000
next table: 2669
cur table: 2570
epoch: 1000
next table: 1850
cur table: 1824
epoch: 1000
next table: 2585
cur table: 2669
epoch: 1000
next table: 2576
cur table: 2585
epoch: 1000
next table: 1829
cur table: 1850
epoch: 1000
next table: 2530
cur table: 2576
epoch: 1000
next table: 1887
cur table: 1829
epoch: 1000
next table: 2517
cur table: 2530
epoch: 1000
next table: 1869
cur table: 1887
epoch: 1000
next table: 2520
cur table: 2517
epoch: 1000
next table: 1860
cur table: 1869
epoch: 1000
next table: 2574
cur table: 2520
epoch: 1000
next table: 1854
cur table: 1860
epoch: 1000
next table: 2556
cur table: 2574
epoch: 1000
next table: 1840
cur table: 1854
epoch: 1000
next table: 2588
cur table: 2556
epoch: 1000
next table: 1835
cur table: 1840
epoch: 1000
next table: 2559
cur table: 2588
epoch: 1000
next table: 1879
cur table: 1835
epoch: 1000
next table: 2554
cur table: 2559
epoch: 1000
next table: 1832
cur table: 1879
epoch: 1000
next table: 2644
cur table: 2554
epoch: 1000
next table: 1843
cur table: 1832
epoch: 1000
next table: 2588
cur table: 2644
epoch: 1000
next table: 1844
cur table: 1843
epoch: 1000
next table: 2583
cur table: 2588
epoch: 1000
next table: 1841
cur table: 1844
epoch: 1000
next table: 2569
cur table: 2583
epoch: 1000
next table: 1816
cur table: 1841
epoch: 1000
next table: 2551
cur table: 2569
epoch: 1000
next table: 1830
cur table: 1816
epoch: 1000
next table: 2613
cur table: 2551
epoch: 1000
next table: 1810
cur table: 1830
epoch: 1000
next table: 2549
cur table: 2613
epoch: 1000
next table: 2583
cur table: 2549
epoch: 1000
next table: 1850
cur table: 1810
epoch: 1000
next table: 2558
cur table: 2583
epoch: 1000
next table: 1869
cur table: 1850
epoch: 1000
next table: 2554
cur table: 2558
epoch: 1000
next table: 1823
cur table: 1869
epoch: 1000
next table: 2570
cur table: 2554
epoch: 1000
next table: 1850
cur table: 1823
epoch: 1000
next table: 2591
cur table: 2570
epoch: 1000
next table: 1803
cur table: 1850
epoch: 1000
next table: 2659
cur table: 2591
epoch: 1000
next table: 1784
cur table: 1803
epoch: 1000
next table: 2613
cur table: 2659
epoch: 1000
next table: 1817
cur table: 1784
epoch: 1000
next table: 2621
cur table: 2613
epoch: 1000
next table: 1850
cur table: 1817
epoch: 1000
next table: 2531
cur table: 2621
epoch: 1000
next table: 1866
cur table: 1850
epoch: 1000
next table: 2522
cur table: 2531
epoch: 1000
next table: 1823
cur table: 1866
epoch: 1000
next table: 2644
cur table: 2522
epoch: 1000
next table: 1797
cur table: 1823
epoch: 1000
next table: 2558
cur table: 2644
epoch: 1000
next table: 1810
cur table: 1797
epoch: 1000
next table: 2667
cur table: 2558
epoch: 1000
next table: 1856
cur table: 1810
epoch: 1000
next table: 2546
cur table: 2667
epoch: 1000
next table: 1816
cur table: 1856
epoch: 1000
next table: 2627
cur table: 2546
epoch: 1000
next table: 1777
cur table: 1816
epoch: 1000
next table: 2669
cur table: 2627
epoch: 1000
next table: 1838
cur table: 1777
epoch: 1000
next table: 2630
cur table: 2669
epoch: 1000
next table: 1833
cur table: 1838
epoch: 1000
next table: 2593
cur table: 2630
epoch: 1000
next table: 1830
cur table: 1833
epoch: 1000
next table: 2622
cur table: 2593
epoch: 1000
next table: 1810
cur table: 1830
epoch: 1000
next table: 2615
cur table: 2622
epoch: 1000
next table: 1779
cur table: 1810
epoch: 1000
next table: 2636
cur table: 2615
epoch: 1000
next table: 1812
cur table: 1779
epoch: 1000
next table: 2601
cur table: 2636
epoch: 1000
next table: 1793
cur table: 1812
epoch: 1000
next table: 2637
cur table: 2601
epoch: 1000
next table: 1861
cur table: 1793
epoch: 1000
next table: 2525
cur table: 2637
epoch: 1000
next table: 1817
cur table: 1861
epoch: 1000
next table: 2568
cur table: 2525
epoch: 1000
next table: 1799
cur table: 1817
epoch: 1000
next table: 2634
cur table: 2568
epoch: 1000
next table: 2632
cur table: 2634
epoch: 1000
next table: 1808
cur table: 1799
epoch: 1000
next table: 2603
cur table: 2632
epoch: 1000
next table: 1808
cur table: 1808
epoch: 1000
next table: 2599
cur table: 2603
epoch: 1000
next table: 1791
cur table: 1808
epoch: 1000
next table: 2573
cur table: 2599
epoch: 1000
next table: 1825
cur table: 1791
epoch: 1000
next table: 2641
cur table: 2573
epoch: 1000
next table: 1786
cur table: 1825
epoch: 1000
next table: 2551
cur table: 2641
epoch: 1000
next table: 1815
cur table: 1786
epoch: 1000
next table: 2576
cur table: 2551
epoch: 1000
next table: 1819
cur table: 1815
epoch: 1000
next table: 2599
cur table: 2576
epoch: 1000
next table: 1805
cur table: 1819
epoch: 1000
next table: 2673
cur table: 2599
epoch: 1000
next table: 1797
cur table: 1805
epoch: 1000
next table: 2640
cur table: 2673
epoch: 1000
next table: 1795
cur table: 1797
epoch: 1000
next table: 2605
cur table: 2640
epoch: 1000
next table: 1794
cur table: 1795
epoch: 1000
next table: 2673
cur table: 2605
epoch: 1000
next table: 1804
cur table: 1794
epoch: 1000
next table: 2571
cur table: 2673
epoch: 1000
next table: 1833
cur table: 1804
epoch: 1000
next table: 2542
cur table: 2571
epoch: 1000
next table: 1872
cur table: 1833
epoch: 1000
next table: 2523
cur table: 2542
epoch: 1000
next table: 1861
cur table: 1872
epoch: 1000
next table: 2569
cur table: 2523
epoch: 1000
next table: 1898
cur table: 1861
epoch: 1000
next table: 2517
cur table: 2569
epoch: 1000
next table: 1842
cur table: 1898
epoch: 1000
next table: 2626
cur table: 2517
epoch: 1000
next table: 1830
cur table: 1842
epoch: 1000
next table: 2619
cur table: 2626
epoch: 1000
next table: 1854
cur table: 1830
epoch: 1000
next table: 2550
cur table: 2619
epoch: 1000
next table: 2456
cur table: 2550
epoch: 1000
next table: 1913
cur table: 1854
epoch: 1000
next table: 2542
cur table: 2456
epoch: 1000
next table: 1846
cur table: 1913
epoch: 1000
next table: 2559
cur table: 2542
epoch: 1000
next table: 1821
cur table: 1846
epoch: 1000
next table: 2528
cur table: 2559
epoch: 1000
next table: 1828
cur table: 1821
epoch: 1000
next table: 2662
cur table: 2528
epoch: 1000
next table: 1782
cur table: 1828
epoch: 1000
next table: 2598
cur table: 2662
epoch: 1000
next table: 1801
cur table: 1782
epoch: 1000
next table: 2618
cur table: 2598
epoch: 1000
next table: 1822
cur table: 1801
epoch: 1000
next table: 2496
cur table: 2618
epoch: 1000
next table: 1860
cur table: 1822
epoch: 1000
next table: 2567
cur table: 2496
epoch: 1000
next table: 1825
cur table: 1860
epoch: 1000
next table: 2521
cur table: 2567
epoch: 1000
next table: 1841
cur table: 1825
epoch: 1000
next table: 2571
cur table: 2521
epoch: 1000
next table: 1864
cur table: 1841
epoch: 1000
next table: 2505
cur table: 2571
epoch: 1000
next table: 1799
cur table: 1864
epoch: 1000
next table: 2622
cur table: 2505
epoch: 1000
next table: 1853
cur table: 1799
epoch: 1000
next table: 2532
cur table: 2622
epoch: 1000
next table: 1842
cur table: 1853
epoch: 1000
next table: 2540
cur table: 2532
epoch: 1000
next table: 1826
cur table: 1842
epoch: 1000
next table: 2564
cur table: 2540
epoch: 1000
next table: 1855
cur table: 1826
epoch: 1000
next table: 2535
cur table: 2564
epoch: 1000
next table: 2433
cur table: 2535
epoch: 1000
next table: 1977
cur table: 1855
epoch: 1000
next table: 2445
cur table: 2433
epoch: 1000
next table: 1959
cur table: 1977
epoch: 1000
next table: 2473
cur table: 2445
epoch: 1000
next table: 1881
cur table: 1959
epoch: 1000
next table: 2499
cur table: 2473
epoch: 1000
next table: 1884
cur table: 1881
epoch: 1000
next table: 2579
cur table: 2499
epoch: 1000
next table: 1870
cur table: 1884
epoch: 1000
next table: 2625
cur table: 2579
epoch: 1000
next table: 1845
cur table: 1870
epoch: 1000
next table: 2593
cur table: 2625
epoch: 1000
next table: 1827
cur table: 1845
epoch: 1000
next table: 2597
cur table: 2593
epoch: 1000
next table: 1831
cur table: 1827
epoch: 1000
next table: 2616
cur table: 2597
epoch: 1000
next table: 1816
cur table: 1831
epoch: 1000
next table: 2570
cur table: 2616
epoch: 1000
next table: 1835
cur table: 1816
epoch: 1000
next table: 2550
cur table: 2570
epoch: 1000
next table: 2616
cur table: 2550
epoch: 1000
next table: 1845
cur table: 1835
epoch: 1000
next table: 2406
cur table: 2616
epoch: 1000
next table: 1955
cur table: 1845
epoch: 1000
next table: 2539
cur table: 2406
epoch: 1000
next table: 1846
cur table: 1955
epoch: 1000
next table: 2560
cur table: 2539
epoch: 1000
next table: 1826
cur table: 1846
epoch: 1000
next table: 2537
cur table: 2560
epoch: 1000
next table: 1839
cur table: 1826
epoch: 1000
next table: 2639
cur table: 2537
epoch: 1000
next table: 1813
cur table: 1839
epoch: 1000
next table: 2570
cur table: 2639
epoch: 1000
next table: 1822
cur table: 1813
epoch: 1000
next table: 2626
cur table: 2570
epoch: 1000
next table: 1896
cur table: 1822
epoch: 1000
next table: 2453
cur table: 2626
epoch: 1000
next table: 1923
cur table: 1896
epoch: 1000
next table: 2547
cur table: 2453
epoch: 1000
next table: 1820
cur table: 1923
epoch: 1000
next table: 2598
cur table: 2547
epoch: 1000
next table: 1865
cur table: 1820
epoch: 1000
next table: 2516
cur table: 2598
epoch: 1000
next table: 1842
cur table: 1865
epoch: 1000
next table: 2566
cur table: 2516
epoch: 1000
next table: 2557
cur table: 2566
epoch: 1000
next table: 1827
cur table: 1842
epoch: 1000
next table: 2631
cur table: 2557
epoch: 1000
next table: 1826
cur table: 1827
epoch: 1000
next table: 2600
cur table: 2631
epoch: 1000
next table: 1799
cur table: 1826
epoch: 1000
next table: 2648
cur table: 2600
epoch: 1000
next table: 1799
cur table: 1799
epoch: 1000
next table: 2614
cur table: 2648
epoch: 1000
next table: 1784
cur table: 1799
epoch: 1000
next table: 2595
cur table: 2614
epoch: 1000
next table: 1824
cur table: 1784
epoch: 1000
next table: 2559
cur table: 2595
epoch: 1000
next table: 1826
cur table: 1824
epoch: 1000
next table: 2596
cur table: 2559
epoch: 1000
next table: 1826
cur table: 1826
epoch: 1000
next table: 2555
cur table: 2596
epoch: 1000
next table: 1821
cur table: 1826
epoch: 1000
next table: 2567
cur table: 2555
epoch: 1000
next table: 1813
cur table: 1821
epoch: 1000
next table: 2590
cur table: 2567
epoch: 1000
next table: 1827
cur table: 1813
epoch: 1000
next table: 2608
cur table: 2590
epoch: 1000
next table: 1842
cur table: 1827
epoch: 1000
next table: 2590
cur table: 2608
epoch: 1000
next table: 1852
cur table: 1842
epoch: 1000
next table: 2515
cur table: 2590
epoch: 1000
next table: 1980
cur table: 1852
epoch: 1000
next table: 2266
cur table: 2515
epoch: 1000
next table: 1972
cur table: 1980
epoch: 1000
next table: 2422
cur table: 2266
epoch: 1000
next table: 2449
cur table: 2422
epoch: 1000
next table: 1930
cur table: 1972
epoch: 1000
next table: 2535
cur table: 2449
epoch: 1000
next table: 1883
cur table: 1930
epoch: 1000
next table: 2581
cur table: 2535
epoch: 1000
next table: 1870
cur table: 1883
epoch: 1000
next table: 2617
cur table: 2581
epoch: 1000
next table: 1860
cur table: 1870
epoch: 1000
next table: 2552
cur table: 2617
epoch: 1000
next table: 1836
cur table: 1860
epoch: 1000
next table: 2608
cur table: 2552
epoch: 1000
next table: 1794
cur table: 1836
epoch: 1000
next table: 2588
cur table: 2608
epoch: 1000
next table: 1873
cur table: 1794
epoch: 1000
next table: 2530
cur table: 2588
epoch: 1000
next table: 1885
cur table: 1873
epoch: 1000
next table: 2472
cur table: 2530
epoch: 1000
next table: 1875
cur table: 1885
epoch: 1000
next table: 2529
cur table: 2472
epoch: 1000
next table: 1835
cur table: 1875
epoch: 1000
next table: 2602
cur table: 2529
epoch: 1000
next table: 1810
cur table: 1835
epoch: 1000
next table: 2596
cur table: 2602
epoch: 1000
next table: 1864
cur table: 1810
epoch: 1000
next table: 2534
cur table: 2596
epoch: 1000
next table: 1805
cur table: 1864
epoch: 1000
next table: 2617
cur table: 2534
epoch: 1000
next table: 1835
cur table: 1805
epoch: 1000
next table: 2551
cur table: 2617
epoch: 1000
next table: 1814
cur table: 1835
epoch: 1000
next table: 2601
cur table: 2551
epoch: 1000
next table: 1819
cur table: 1814
epoch: 1000
next table: 2567
cur table: 2601
epoch: 1000
next table: 2632
cur table: 2567
epoch: 1000
next table: 1822
cur table: 1819
epoch: 1000
next table: 2584
cur table: 2632
epoch: 1000
next table: 1810
cur table: 1822
epoch: 1000
next table: 2564
cur table: 2584
epoch: 1000
next table: 1833
cur table: 1810
epoch: 1000
next table: 2645
cur table: 2564
epoch: 1000
next table: 1782
cur table: 1833
epoch: 1000
next table: 2650
cur table: 2645
epoch: 1000
next table: 1815
cur table: 1782
epoch: 1000
next table: 2619
cur table: 2650
epoch: 1000
next table: 1802
cur table: 1815
epoch: 1000
next table: 2530
cur table: 2619
epoch: 1000
next table: 1871
cur table: 1802
epoch: 1000
next table: 2616
cur table: 2530
epoch: 1000
next table: 1797
cur table: 1871
epoch: 1000
next table: 2534
cur table: 2616
epoch: 1000
next table: 1853
cur table: 1797
epoch: 1000
next table: 2557
cur table: 2534
epoch: 1000
next table: 1846
cur table: 1853
epoch: 1000
next table: 2560
cur table: 2557
epoch: 1000
next table: 1845
cur table: 1846
epoch: 1000
next table: 2515
cur table: 2560
epoch: 1000
next table: 1836
cur table: 1845
epoch: 1000
next table: 2612
cur table: 2515
epoch: 1000
next table: 1833
cur table: 1836
epoch: 1000
next table: 2538
cur table: 2612
epoch: 1000
next table: 1824
cur table: 1833
epoch: 1000
next table: 2604
cur table: 2538
epoch: 1000
next table: 1848
cur table: 1824
epoch: 1000
next table: 2558
cur table: 2604
epoch: 1000
next table: 1842
cur table: 1848
epoch: 1000
next table: 2564
cur table: 2558
epoch: 1000
next table: 1826
cur table: 1842
epoch: 1000
next table: 2522
cur table: 2564
epoch: 1000
next table: 1834
cur table: 1826
epoch: 1000
next table: 2622
cur table: 2522
epoch: 1000
next table: 2496
cur table: 2622
epoch: 1000
next table: 1868
cur table: 1834
epoch: 1000
next table: 2528
cur table: 2496
epoch: 1000
next table: 1829
cur table: 1868
epoch: 1000
next table: 2537
cur table: 2528
epoch: 1000
next table: 1835
cur table: 1829
epoch: 1000
next table: 2567
cur table: 2537
epoch: 1000
next table: 1823
cur table: 1835
epoch: 1000
next table: 2569
cur table: 2567
epoch: 1000
next table: 1839
cur table: 1823
epoch: 1000
next table: 2526
cur table: 2569
epoch: 1000
next table: 1828
cur table: 1839
epoch: 1000
next table: 2597
cur table: 2526
epoch: 1000
next table: 1832
cur table: 1828
epoch: 1000
next table: 2560
cur table: 2597
epoch: 1000
next table: 1813
cur table: 1832
epoch: 1000
next table: 2600
cur table: 2560
epoch: 1000
next table: 1824
cur table: 1813
epoch: 1000
next table: 2578
cur table: 2600
epoch: 1000
next table: 1830
cur table: 1824
epoch: 1000
next table: 2584
cur table: 2578
epoch: 1000
next table: 1874
cur table: 1830
epoch: 1000
next table: 2522
cur table: 2584
epoch: 1000
next table: 1836
cur table: 1874
epoch: 1000
next table: 2590
cur table: 2522
epoch: 1000
next table: 1850
cur table: 1836
epoch: 1000
next table: 2515
cur table: 2590
epoch: 1000
next table: 1864
cur table: 1850
epoch: 1000
next table: 2545
cur table: 2515
epoch: 1000
next table: 1831
cur table: 1864
epoch: 1000
next table: 2552
cur table: 2545
epoch: 1000
next table: 1882
cur table: 1831
epoch: 1000
next table: 2511
cur table: 2552
epoch: 1000
next table: 1814
cur table: 1882
epoch: 1000
next table: 2579
cur table: 2511
epoch: 1000
next table: 2529
cur table: 2579
epoch: 1000
next table: 1880
cur table: 1814
epoch: 1000
next table: 2609
cur table: 2529
epoch: 1000
next table: 1814
cur table: 1880
epoch: 1000
next table: 2534
cur table: 2609
epoch: 1000
next table: 1824
cur table: 1814
epoch: 1000
next table: 2589
cur table: 2534
epoch: 1000
next table: 1796
cur table: 1824
epoch: 1000
next table: 2570
cur table: 2589
epoch: 1000
next table: 1846
cur table: 1796
epoch: 1000
next table: 2523
cur table: 2570
epoch: 1000
next table: 1882
cur table: 1846
epoch: 1000
next table: 2528
cur table: 2523
epoch: 1000
next table: 1824
cur table: 1882
epoch: 1000
next table: 2508
cur table: 2528
epoch: 1000
next table: 1879
cur table: 1824
epoch: 1000
next table: 2569
cur table: 2508
epoch: 1000
next table: 1858
cur table: 1879
epoch: 1000
next table: 2563
cur table: 2569
epoch: 1000
next table: 1820
cur table: 1858
epoch: 1000
next table: 2595
cur table: 2563
epoch: 1000
next table: 1794
cur table: 1820
epoch: 1000
next table: 2633
cur table: 2595
epoch: 1000
next table: 1857
cur table: 1794
epoch: 1000
next table: 2554
cur table: 2633
epoch: 1000
next table: 1794
cur table: 1857
epoch: 1000
next table: 2620
cur table: 2554
epoch: 1000
next table: 1818
cur table: 1794
epoch: 1000
next table: 2622
cur table: 2620
epoch: 1000
next table: 1788
cur table: 1818
epoch: 1000
next table: 2594
cur table: 2622
epoch: 1000
next table: 1811
cur table: 1788
epoch: 1000
next table: 2602
cur table: 2594
epoch: 1000
next table: 1816
cur table: 1811
epoch: 1000
next table: 2624
cur table: 2602
epoch: 1000
next table: 1828
cur table: 1816
epoch: 1000
next table: 2583
cur table: 2624
epoch: 1000
next table: 1776
cur table: 1828
epoch: 1000
next table: 2654
cur table: 2583
epoch: 1000
next table: 1787
cur table: 1776
epoch: 1000
next table: 2646
cur table: 2654
epoch: 1000
next table: 1817
cur table: 1787
epoch: 1000
next table: 2619
cur table: 2646
epoch: 1000
next table: 1823
cur table: 1817
epoch: 1000
next table: 2572
cur table: 2619
epoch: 1000
next table: 1789
cur table: 1823
epoch: 1000
next table: 2603
cur table: 2572
epoch: 1000
next table: 1802
cur table: 1789
epoch: 1000
next table: 2664
cur table: 2603
epoch: 1000
next table: 1806
cur table: 1802
epoch: 1000
next table: 2623
cur table: 2664
epoch: 1000
next table: 1807
cur table: 1806
epoch: 1000
next table: 2579
cur table: 2623
epoch: 1000
next table: 1801
cur table: 1807
epoch: 1000
next table: 2622
cur table: 2579
epoch: 1000
next table: 1791
cur table: 1801
epoch: 1000
next table: 2608
cur table: 2622
epoch: 1000
next table: 2609
cur table: 2608
epoch: 1000
next table: 1797
cur table: 1791
epoch: 1000
next table: 2614
cur table: 2609
epoch: 1000
next table: 1834
cur table: 1797
epoch: 1000
next table: 2566
cur table: 2614
epoch: 1000
next table: 1843
cur table: 1834
epoch: 1000
next table: 2594
cur table: 2566
epoch: 1000
next table: 1810
cur table: 1843
epoch: 1000
next table: 2581
cur table: 2594
epoch: 1000
next table: 1838
cur table: 1810
epoch: 1000
next table: 2574
cur table: 2581
epoch: 1000
next table: 1849
cur table: 1838
epoch: 1000
next table: 2619
cur table: 2574
epoch: 1000
next table: 1797
cur table: 1849
epoch: 1000
next table: 2529
cur table: 2619
epoch: 1000
next table: 1850
cur table: 1797
epoch: 1000
next table: 2543
cur table: 2529
epoch: 1000
next table: 1863
cur table: 1850
epoch: 1000
next table: 2482
cur table: 2543
epoch: 1000
next table: 1863
cur table: 1863
epoch: 1000
next table: 2501
cur table: 2482
epoch: 1000
next table: 1946
cur table: 1863
epoch: 1000
next table: 2417
cur table: 2501
epoch: 1000
next table: 1871
cur table: 1946
epoch: 1000
next table: 2518
cur table: 2417
epoch: 1000
next table: 1838
cur table: 1871
epoch: 1000
next table: 2547
cur table: 2518
epoch: 1000
next table: 1850
cur table: 1838
epoch: 1000
next table: 2583
cur table: 2547
epoch: 1000
next table: 1854
cur table: 1850
epoch: 1000
next table: 2559
cur table: 2583
epoch: 1000
next table: 2400
cur table: 2559
epoch: 1000
next table: 1965
cur table: 1854
epoch: 1000
next table: 2412
cur table: 2400
epoch: 1000
next table: 2018
cur table: 1965
epoch: 1000
next table: 2407
cur table: 2412
epoch: 1000
next table: 1873
cur table: 2018
epoch: 1000
next table: 2510
cur table: 2407
epoch: 1000
next table: 1860
cur table: 1873
epoch: 1000
next table: 2506
cur table: 2510
epoch: 1000
next table: 1851
cur table: 1860
epoch: 1000
next table: 2539
cur table: 2506
epoch: 1000
next table: 1873
cur table: 1851
epoch: 1000
next table: 2573
cur table: 2539
epoch: 1000
next table: 1824
cur table: 1873
epoch: 1000
next table: 2603
cur table: 2573
epoch: 1000
next table: 1824
cur table: 1824
epoch: 1000
next table: 2580
cur table: 2603
epoch: 1000
next table: 1833
cur table: 1824
epoch: 1000
next table: 2595
cur table: 2580
epoch: 1000
next table: 1853
cur table: 1833
epoch: 1000
next table: 2576
cur table: 2595
epoch: 1000
next table: 1809
cur table: 1853
epoch: 1000
next table: 2572
cur table: 2576
epoch: 1000
next table: 1839
cur table: 1809
epoch: 1000
next table: 2563
cur table: 2572
epoch: 1000
next table: 1836
cur table: 1839
epoch: 1000
next table: 2567
cur table: 2563
epoch: 1000
next table: 2600
cur table: 2567
epoch: 1000
next table: 1815
cur table: 1836
epoch: 1000
next table: 2510
cur table: 2600
epoch: 1000
next table: 1860
cur table: 1815
epoch: 1000
next table: 2515
cur table: 2510
epoch: 1000
next table: 1851
cur table: 1860
epoch: 1000
next table: 2525
cur table: 2515
epoch: 1000
next table: 1853
cur table: 1851
epoch: 1000
next table: 2442
cur table: 2525
epoch: 1000
next table: 1922
cur table: 1853
epoch: 1000
next table: 2538
cur table: 2442
epoch: 1000
next table: 1836
cur table: 1922
epoch: 1000
next table: 2480
cur table: 2538
epoch: 1000
next table: 1843
cur table: 1836
epoch: 1000
next table: 2619
cur table: 2480
epoch: 1000
next table: 1782
cur table: 1843
epoch: 1000
next table: 2603
cur table: 2619
epoch: 1000
next table: 1825
cur table: 1782
epoch: 1000
next table: 2604
cur table: 2603
epoch: 1000
next table: 1830
cur table: 1825
epoch: 1000
next table: 2589
cur table: 2604
epoch: 1000
next table: 1843
cur table: 1830
epoch: 1000
next table: 2595
cur table: 2589
epoch: 1000
next table: 1800
cur table: 1843
epoch: 1000
next table: 2567
cur table: 2595
epoch: 1000
next table: 1820
cur table: 1800
epoch: 1000
next table: 2633
cur table: 2567
epoch: 1000
next table: 1851
cur table: 1820
epoch: 1000
next table: 2574
cur table: 2633
epoch: 1000
next table: 1792
cur table: 1851
epoch: 1000
next table: 2620
cur table: 2574
epoch: 1000
next table: 1811
cur table: 1792
epoch: 1000
next table: 2626
cur table: 2620
epoch: 1000
next table: 1824
cur table: 1811
epoch: 1000
next table: 2601
cur table: 2626
epoch: 1000
next table: 1846
cur table: 1824
epoch: 1000
next table: 2567
cur table: 2601
epoch: 1000
next table: 1797
cur table: 1846
epoch: 1000
next table: 2611
cur table: 2567
epoch: 1000
next table: 2548
cur table: 2611
epoch: 1000
next table: 1832
cur table: 1797
epoch: 1000
next table: 2437
cur table: 2548
epoch: 1000
next table: 1936
cur table: 1832
epoch: 1000
next table: 2547
cur table: 2437
epoch: 1000
next table: 1847
cur table: 1936
epoch: 1000
next table: 2499
cur table: 2547
epoch: 1000
next table: 1857
cur table: 1847
epoch: 1000
next table: 2570
cur table: 2499
epoch: 1000
next table: 1833
cur table: 1857
epoch: 1000
next table: 2570
cur table: 2570
epoch: 1000
next table: 1847
cur table: 1833
epoch: 1000
next table: 2561
cur table: 2570
epoch: 1000
next table: 1808
cur table: 1847
epoch: 1000
next table: 2667
cur table: 2561
epoch: 1000
next table: 1853
cur table: 1808
epoch: 1000
next table: 2622
cur table: 2667
epoch: 1000
next table: 1762
cur table: 1853
epoch: 1000
next table: 2661
cur table: 2622
epoch: 1000
next table: 1797
cur table: 1762
epoch: 1000
next table: 2672
cur table: 2661
epoch: 1000
next table: 1790
cur table: 1797
epoch: 1000
next table: 2620
cur table: 2672
epoch: 1000
next table: 1813
cur table: 1790
epoch: 1000
next table: 2624
cur table: 2620
epoch: 1000
next table: 1803
cur table: 1813
epoch: 1000
next table: 2564
cur table: 2624
epoch: 1000
next table: 1841
cur table: 1803
epoch: 1000
next table: 2583
cur table: 2564
epoch: 1000
next table: 1837
cur table: 1841
epoch: 1000
next table: 2665
cur table: 2583
epoch: 1000
next table: 1788
cur table: 1837
epoch: 1000
next table: 2599
cur table: 2665
epoch: 1000
next table: 1798
cur table: 1788
epoch: 1000
next table: 2634
cur table: 2599
epoch: 1000
next table: 1835
cur table: 1798
epoch: 1000
next table: 2618
cur table: 2634
epoch: 1000
next table: 1814
cur table: 1835
epoch: 1000
next table: 2589
cur table: 2618
epoch: 1000
next table: 1850
cur table: 1814
epoch: 1000
next table: 2661
cur table: 2589
epoch: 1000
next table: 1782
cur table: 1850
epoch: 1000
next table: 2621
cur table: 2661
epoch: 1000
next table: 1772
cur table: 1782
epoch: 1000
next table: 2665
cur table: 2621
epoch: 1000
next table: 1826
cur table: 1772
epoch: 1000
next table: 2559
cur table: 2665
epoch: 1000
next table: 1813
cur table: 1826
epoch: 1000
next table: 2572
cur table: 2559
epoch: 1000
next table: 1836
cur table: 1813
epoch: 1000
next table: 2510
cur table: 2572
epoch: 1000
next table: 1868
cur table: 1836
epoch: 1000
next table: 2524
cur table: 2510
epoch: 1000
next table: 2583
cur table: 2524
epoch: 1000
next table: 1805
cur table: 1868
epoch: 1000
next table: 2502
cur table: 2583
epoch: 1000
next table: 1865
cur table: 1805
epoch: 1000
next table: 2553
cur table: 2502
epoch: 1000
next table: 1827
cur table: 1865
epoch: 1000
next table: 2531
cur table: 2553
epoch: 1000
next table: 1814
cur table: 1827
epoch: 1000
next table: 2625
cur table: 2531
epoch: 1000
next table: 1811
cur table: 1814
epoch: 1000
next table: 2574
cur table: 2625
epoch: 1000
next table: 1856
cur table: 1811
epoch: 1000
next table: 2603
cur table: 2574
epoch: 1000
next table: 1827
cur table: 1856
epoch: 1000
next table: 2515
cur table: 2603
epoch: 1000
next table: 1846
cur table: 1827
epoch: 1000
next table: 2533
cur table: 2515
epoch: 1000
next table: 1872
cur table: 1846
epoch: 1000
next table: 2525
cur table: 2533
epoch: 1000
next table: 1849
cur table: 1872
epoch: 1000
next table: 2566
cur table: 2525
epoch: 1000
next table: 1806
cur table: 1849
epoch: 1000
next table: 2602
cur table: 2566
epoch: 1000
next table: 1840
cur table: 1806
epoch: 1000
next table: 2556
cur table: 2602
epoch: 1000
next table: 1832
cur table: 1840
epoch: 1000
next table: 2566
cur table: 2556
epoch: 1000
next table: 1845
cur table: 1832
epoch: 1000
next table: 2551
cur table: 2566
epoch: 1000
next table: 1812
cur table: 1845
epoch: 1000
next table: 2576
cur table: 2551
epoch: 1000
next table: 1891
cur table: 1812
epoch: 1000
next table: 2538
cur table: 2576
epoch: 1000
next table: 1820
cur table: 1891
epoch: 1000
next table: 2591
cur table: 2538
epoch: 1000
next table: 1825
cur table: 1820
epoch: 1000
next table: 2521
cur table: 2591
epoch: 1000
next table: 1785
cur table: 1825
epoch: 1000
next table: 2647
cur table: 2521
epoch: 1000
next table: 1807
cur table: 1785
epoch: 1000
next table: 2592
cur table: 2647
epoch: 1000
next table: 1810
cur table: 1807
epoch: 1000
next table: 2594
cur table: 2592
epoch: 1000
next table: 2524
cur table: 2594
epoch: 1000
next table: 1848
cur table: 1810
epoch: 1000
next table: 2522
cur table: 2524
epoch: 1000
next table: 1838
cur table: 1848
epoch: 1000
next table: 2592
cur table: 2522
epoch: 1000
next table: 1830
cur table: 1838
epoch: 1000
next table: 2570
cur table: 2592
epoch: 1000
next table: 1860
cur table: 1830
epoch: 1000
next table: 2555
cur table: 2570
epoch: 1000
next table: 1827
cur table: 1860
epoch: 1000
next table: 2568
cur table: 2555
epoch: 1000
next table: 1874
cur table: 1827
epoch: 1000
next table: 2505
cur table: 2568
epoch: 1000
next table: 1811
cur table: 1874
epoch: 1000
next table: 2577
cur table: 2505
epoch: 1000
next table: 1860
cur table: 1811
epoch: 1000
next table: 2516
cur table: 2577
epoch: 1000
next table: 1850
cur table: 1860
epoch: 1000
next table: 2599
cur table: 2516
epoch: 1000
next table: 1805
cur table: 1850
epoch: 1000
next table: 2607
cur table: 2599
epoch: 1000
next table: 1792
cur table: 1805
epoch: 1000
next table: 2639
cur table: 2607
epoch: 1000
next table: 1831
cur table: 1792
epoch: 1000
next table: 2596
cur table: 2639
epoch: 1000
next table: 1816
cur table: 1831
epoch: 1000
next table: 2640
cur table: 2596
epoch: 1000
next table: 1796
cur table: 1816
epoch: 1000
next table: 2629
cur table: 2640
epoch: 1000
next table: 1791
cur table: 1796
epoch: 1000
next table: 2650
cur table: 2629
epoch: 1000
next table: 1832
cur table: 1791
epoch: 1000
next table: 2585
cur table: 2650
epoch: 1000
next table: 1816
cur table: 1832
epoch: 1000
next table: 2573
cur table: 2585
epoch: 1000
next table: 1870
cur table: 1816
epoch: 1000
next table: 2500
cur table: 2573
epoch: 1000
next table: 1855
cur table: 1870
epoch: 1000
next table: 2577
cur table: 2500
epoch: 1000
next table: 1815
cur table: 1855
epoch: 1000
next table: 2569
cur table: 2577
epoch: 1000
next table: 1852
cur table: 1815
epoch: 1000
next table: 2504
cur table: 2569
epoch: 1000
next table: 2596
cur table: 2504
epoch: 1000
next table: 1819
cur table: 1852
epoch: 1000
next table: 2618
cur table: 2596
epoch: 1000
next table: 1826
cur table: 1819
epoch: 1000
next table: 2621
cur table: 2618
epoch: 1000
next table: 1802
cur table: 1826
epoch: 1000
next table: 2609
cur table: 2621
epoch: 1000
next table: 1808
cur table: 1802
epoch: 1000
next table: 2598
cur table: 2609
epoch: 1000
next table: 1818
cur table: 1808
epoch: 1000
next table: 2564
cur table: 2598
epoch: 1000
next table: 1791
cur table: 1818
epoch: 1000
next table: 2620
cur table: 2564
epoch: 1000
next table: 1821
cur table: 1791
epoch: 1000
next table: 2594
cur table: 2620
epoch: 1000
next table: 1848
cur table: 1821
epoch: 1000
next table: 2606
cur table: 2594
epoch: 1000
next table: 1824
cur table: 1848
epoch: 1000
next table: 2539
cur table: 2606
epoch: 1000
next table: 1820
cur table: 1824
epoch: 1000
next table: 2558
cur table: 2539
epoch: 1000
next table: 1851
cur table: 1820
epoch: 1000
next table: 2528
cur table: 2558
epoch: 1000
next table: 1836
cur table: 1851
epoch: 1000
next table: 2608
cur table: 2528
epoch: 1000
next table: 1791
cur table: 1836
epoch: 1000
next table: 2586
cur table: 2608
epoch: 1000
next table: 1810
cur table: 1791
epoch: 1000
next table: 2624
cur table: 2586
epoch: 1000
next table: 1804
cur table: 1810
epoch: 1000
next table: 2611
cur table: 2624
epoch: 1000
next table: 1815
cur table: 1804
epoch: 1000
next table: 2615
cur table: 2611
epoch: 1000
next table: 1806
cur table: 1815
epoch: 1000
next table: 2605
cur table: 2615
epoch: 1000
next table: 1811
cur table: 1806
epoch: 1000
next table: 2589
cur table: 2605
epoch: 1000
next table: 1856
cur table: 1811
epoch: 1000
next table: 2495
cur table: 2589
epoch: 1000
next table: 1861
cur table: 1856
epoch: 1000
next table: 2546
cur table: 2495
epoch: 1000
next table: 1857
cur table: 1861
epoch: 1000
next table: 2491
cur table: 2546
epoch: 1000
next table: 1830
cur table: 1857
epoch: 1000
next table: 2569
cur table: 2491
epoch: 1000
next table: 1823
cur table: 1830
epoch: 1000
next table: 2573
cur table: 2569
epoch: 1000
next table: 1809
cur table: 1823
epoch: 1000
next table: 2591
cur table: 2573
epoch: 1000
next table: 2579
cur table: 2591
epoch: 1000
next table: 1863
cur table: 1809
epoch: 1000
next table: 2518
cur table: 2579
epoch: 1000
next table: 1882
cur table: 1863
epoch: 1000
next table: 2486
cur table: 2518
epoch: 1000
next table: 1854
cur table: 1882
epoch: 1000
next table: 2626
cur table: 2486
epoch: 1000
next table: 1821
cur table: 1854
epoch: 1000
next table: 2532
cur table: 2626
epoch: 1000
next table: 1876
cur table: 1821
epoch: 1000
next table: 2517
cur table: 2532
epoch: 1000
next table: 1842
cur table: 1876
epoch: 1000
next table: 2555
cur table: 2517
epoch: 1000
next table: 1796
cur table: 1842
epoch: 1000
next table: 2610
cur table: 2555
epoch: 1000
next table: 1839
cur table: 1796
epoch: 1000
next table: 2559
cur table: 2610
epoch: 1000
next table: 1822
cur table: 1839
epoch: 1000
next table: 2564
cur table: 2559
epoch: 1000
next table: 1859
cur table: 1822
epoch: 1000
next table: 2451
cur table: 2564
epoch: 1000
next table: 1842
cur table: 1859
epoch: 1000
next table: 2533
cur table: 2451
epoch: 1000
next table: 1925
cur table: 1842
epoch: 1000
next table: 2501
cur table: 2533
epoch: 1000
next table: 1846
cur table: 1925
epoch: 1000
next table: 2501
cur table: 2501
epoch: 1000
next table: 1857
cur table: 1846
epoch: 1000
next table: 2547
cur table: 2501
epoch: 1000
next table: 1820
cur table: 1857
epoch: 1000
next table: 2539
cur table: 2547
epoch: 1000
next table: 2470
cur table: 2539
epoch: 1000
next table: 1878
cur table: 1820
epoch: 1000
next table: 2514
cur table: 2470
epoch: 1000
next table: 1867
cur table: 1878
epoch: 1000
next table: 2509
cur table: 2514
epoch: 1000
next table: 1848
cur table: 1867
epoch: 1000
next table: 2626
cur table: 2509
epoch: 1000
next table: 1821
cur table: 1848
epoch: 1000
next table: 2565
cur table: 2626
epoch: 1000
next table: 1825
cur table: 1821
epoch: 1000
next table: 2571
cur table: 2565
epoch: 1000
next table: 1820
cur table: 1825
epoch: 1000
next table: 2603
cur table: 2571
epoch: 1000
next table: 1837
cur table: 1820
epoch: 1000
next table: 2542
cur table: 2603
epoch: 1000
next table: 1811
cur table: 1837
epoch: 1000
next table: 2550
cur table: 2542
epoch: 1000
next table: 1824
cur table: 1811
epoch: 1000
next table: 2593
cur table: 2550
epoch: 1000
next table: 1816
cur table: 1824
epoch: 1000
next table: 2548
cur table: 2593
epoch: 1000
next table: 1830
cur table: 1816
epoch: 1000
next table: 2522
cur table: 2548
epoch: 1000
next table: 1816
cur table: 1830
epoch: 1000
next table: 2626
cur table: 2522
epoch: 1000
next table: 1839
cur table: 1816
epoch: 1000
next table: 2500
cur table: 2626
epoch: 1000
next table: 1837
cur table: 1839
epoch: 1000
next table: 2571
cur table: 2500
epoch: 1000
next table: 1815
cur table: 1837
epoch: 1000
next table: 2588
cur table: 2571
epoch: 1000
next table: 1864
cur table: 1815
epoch: 1000
next table: 2543
cur table: 2588
epoch: 1000
next table: 1815
cur table: 1864
epoch: 1000
next table: 2575
cur table: 2543
epoch: 1000
next table: 1815
cur table: 1815
epoch: 1000
next table: 2523
cur table: 2575
epoch: 1000
next table: 1836
cur table: 1815
epoch: 1000
next table: 2567
cur table: 2523
epoch: 1000
next table: 1837
cur table: 1836
epoch: 1000
next table: 2532
cur table: 2567
epoch: 1000
next table: 1845
cur table: 1837
epoch: 1000
next table: 2501
cur table: 2532
epoch: 1000
next table: 2477
cur table: 2501
epoch: 1000
next table: 1862
cur table: 1845
epoch: 1000
next table: 2498
cur table: 2477
epoch: 1000
next table: 1868
cur table: 1862
epoch: 1000
next table: 2610
cur table: 2498
epoch: 1000
next table: 1815
cur table: 1868
epoch: 1000
next table: 2577
cur table: 2610
epoch: 1000
next table: 1829
cur table: 1815
epoch: 1000
next table: 2626
cur table: 2577
epoch: 1000
next table: 1793
cur table: 1829
epoch: 1000
next table: 2565
cur table: 2626
epoch: 1000
next table: 1851
cur table: 1793
epoch: 1000
next table: 2507
cur table: 2565
epoch: 1000
next table: 1836
cur table: 1851
epoch: 1000
next table: 2627
cur table: 2507
epoch: 1000
next table: 1814
cur table: 1836
epoch: 1000
next table: 2567
cur table: 2627
epoch: 1000
next table: 1823
cur table: 1814
epoch: 1000
next table: 2596
cur table: 2567
epoch: 1000
next table: 1818
cur table: 1823
epoch: 1000
next table: 2587
cur table: 2596
epoch: 1000
next table: 1869
cur table: 1818
epoch: 1000
next table: 2505
cur table: 2587
epoch: 1000
next table: 1850
cur table: 1869
epoch: 1000
next table: 2497
cur table: 2505
epoch: 1000
next table: 1842
cur table: 1850
epoch: 1000
next table: 2506
cur table: 2497
epoch: 1000
next table: 1835
cur table: 1842
epoch: 1000
next table: 2543
cur table: 2506
epoch: 1000
next table: 1861
cur table: 1835
epoch: 1000
next table: 2612
cur table: 2543
epoch: 1000
next table: 1784
cur table: 1861
epoch: 1000
next table: 2603
cur table: 2612
epoch: 1000
next table: 1825
cur table: 1784
epoch: 1000
next table: 2603
cur table: 2603
epoch: 1000
next table: 1826
cur table: 1825
epoch: 1000
next table: 2595
cur table: 2603
epoch: 1000
next table: 1832
cur table: 1826
epoch: 1000
next table: 2592
cur table: 2595
epoch: 1000
next table: 2523
cur table: 2592
epoch: 1000
next table: 1829
cur table: 1832
epoch: 1000
next table: 2593
cur table: 2523
epoch: 1000
next table: 1829
cur table: 1829
epoch: 1000
next table: 2567
cur table: 2593
epoch: 1000
next table: 1848
cur table: 1829
epoch: 1000
next table: 2527
cur table: 2567
epoch: 1000
next table: 1795
cur table: 1848
epoch: 1000
next table: 2595
cur table: 2527
epoch: 1000
next table: 1845
cur table: 1795
epoch: 1000
next table: 2456
cur table: 2595
epoch: 1000
next table: 1947
cur table: 1845
epoch: 1000
next table: 2548
cur table: 2456
epoch: 1000
next table: 1875
cur table: 1947
epoch: 1000
next table: 2515
cur table: 2548
epoch: 1000
next table: 1834
cur table: 1875
epoch: 1000
next table: 2536
cur table: 2515
epoch: 1000
next table: 1902
cur table: 1834
epoch: 1000
next table: 2508
cur table: 2536
epoch: 1000
next table: 1819
cur table: 1902
epoch: 1000
next table: 2519
cur table: 2508
epoch: 1000
next table: 1917
cur table: 1819
epoch: 1000
next table: 2471
cur table: 2519
epoch: 1000
next table: 1830
cur table: 1917
epoch: 1000
next table: 2602
cur table: 2471
epoch: 1000
next table: 1833
cur table: 1830
epoch: 1000
next table: 2576
cur table: 2602
epoch: 1000
next table: 1800
cur table: 1833
epoch: 1000
next table: 2625
cur table: 2576
epoch: 1000
next table: 1806
cur table: 1800
epoch: 1000
next table: 2603
cur table: 2625
epoch: 1000
next table: 1856
cur table: 1806
epoch: 1000
next table: 2538
cur table: 2603
epoch: 1000
next table: 1823
cur table: 1856
epoch: 1000
next table: 2600
cur table: 2538
epoch: 1000
next table: 2589
cur table: 2600
epoch: 1000
next table: 1819
cur table: 1823
epoch: 1000
next table: 2635
cur table: 2589
epoch: 1000
next table: 1826
cur table: 1819
epoch: 1000
next table: 2495
cur table: 2635
epoch: 1000
next table: 1886
cur table: 1826
epoch: 1000
next table: 2505
cur table: 2495
epoch: 1000
next table: 1874
cur table: 1886
epoch: 1000
next table: 2495
cur table: 2505
epoch: 1000
next table: 1874
cur table: 1874
epoch: 1000
next table: 2503
cur table: 2495
epoch: 1000
next table: 1889
cur table: 1874
epoch: 1000
next table: 2492
cur table: 2503
epoch: 1000
next table: 1856
[...]
next table: 2549
cur table: 3670
epoch: 1000
next table: 1819
cur table: 1818
epoch: 1000
next table: 4108
cur table: 2549
epoch: 1000
next table: 1785
cur table: 1819
epoch: 1000
next table: 2980
cur table: 4108
epoch: 1000
next table: 1768
cur table: 1785
epoch: 1000
next table: 3035
cur table: 2980
epoch: 1000
next table: 1768
cur table: 1768
epoch: 1000
next table: 3110
cur table: 3035
epoch: 1000
next table: 1778
cur table: 1768
epoch: 1000
next table: 3426
cur table: 3110
epoch: 1000
next table: 1804
cur table: 1778
epoch: 1000
next table: 2586
cur table: 3426
epoch: 1000
next table: 1798
cur table: 1804
epoch: 1000
next table: 2676
cur table: 2586
epoch: 1000
next table: 1794
cur table: 1798
epoch: 1000
next table: 2995
cur table: 2676
epoch: 1000
next table: 1916
cur table: 1794
epoch: 1000
next table: 3556
cur table: 2995
epoch: 1000
next table: 2687
cur table: 3556
epoch: 1000
next table: 1942
cur table: 1916
epoch: 1000
next table: 3001
cur table: 2687
epoch: 1000
next table: 1881
cur table: 1942
epoch: 1000
next table: 2879
cur table: 3001
epoch: 1000
next table: 1871
cur table: 1881
epoch: 1000
next table: 2543
cur table: 2879
epoch: 1000
next table: 1910
cur table: 1871
epoch: 1000
next table: 2409
cur table: 2543
epoch: 1000
next table: 1964
cur table: 1910
epoch: 1000
next table: 2444
cur table: 2409
epoch: 1000
next table: 1879
cur table: 1964
epoch: 1000
next table: 2787
cur table: 2444
epoch: 1000
next table: 1896
cur table: 1879
epoch: 1000
next table: 2447
cur table: 2787
epoch: 1000
next table: 3678
cur table: 2447
epoch: 1000
next table: 1914
cur table: 1896
epoch: 1000
next table: 2825
cur table: 3678
epoch: 1000
next table: 1939
cur table: 1914
epoch: 1000
next table: 2494
cur table: 2825
epoch: 1000
next table: 1913
cur table: 1939
epoch: 1000
next table: 2916
cur table: 2494
epoch: 1000
next table: 1884
cur table: 1913
epoch: 1000
next table: 2919
cur table: 2916
epoch: 1000
next table: 1842
cur table: 1884
epoch: 1000
next table: 2521
cur table: 2919
epoch: 1000
next table: 1870
cur table: 1842
epoch: 1000
next table: 3015
cur table: 2521
epoch: 1000
next table: 1853
cur table: 1870
epoch: 1000
next table: 2536
cur table: 3015
epoch: 1000
next table: 1825
cur table: 1853
epoch: 1000
next table: 3572
cur table: 2536
epoch: 1000
next table: 1808
cur table: 1825
epoch: 1000
next table: 2931
cur table: 3572
epoch: 1000
next table: 1782
cur table: 1808
epoch: 1000
next table: 3462
cur table: 2931
epoch: 1000
next table: 1770
cur table: 1782
epoch: 1000
next table: 3015
cur table: 3462
epoch: 1000
next table: 1761
cur table: 1770
epoch: 1000
next table: 3741
cur table: 3015
epoch: 1000
next table: 1770
cur table: 1761
epoch: 1000
next table: 2655
cur table: 3741
epoch: 1000
next table: 1754
cur table: 1770
epoch: 1000
next table: 2999
cur table: 2655
epoch: 1000
next table: 1777
cur table: 1754
epoch: 1000
next table: 2689
cur table: 2999
epoch: 1000
next table: 1795
cur table: 1777
epoch: 1000
next table: 2856
cur table: 2689
epoch: 1000
next table: 1771
cur table: 1795
epoch: 1000
next table: 3414
cur table: 2856
epoch: 1000
next table: 1809
cur table: 1771
epoch: 1000
next table: 3987
cur table: 3414
epoch: 1000
next table: 3687
cur table: 3987
epoch: 1000
next table: 1785
cur table: 1809
epoch: 1000
next table: 2860
cur table: 3687
epoch: 1000
next table: 1811
cur table: 1785
Heartbeat CPU 0 instructions: 100000000 cycles: 116535213 heartbeat IPC: 0.485268 cumulative IPC: 0.490365 (Simulation time: 1 hr 14 min 51 sec) 
Finished CPU 0 instructions: 50000001 cycles: 101964843 cumulative IPC: 0.490365 (Simulation time: 1 hr 14 min 51 sec) 

ChampSim completed all CPUs

Region of Interest Statistics

CPU 0 cumulative IPC: 0.490365 instructions: 50000001 cycles: 101964843
ITLB TOTAL     ACCESS:    6711795  HIT:    6711795  MISS:          0  HIT %:        100  MISS %:          0   MPKI: 0
ITLB LOAD TRANSLATION ACCESS:    6711795  HIT:    6711795  MISS:          0  HIT %:        100  MISS %:          0   MPKI: 0
ITLB PREFETCH  REQUESTED:          0  ISSUED:          0  USEFUL:          0  USELESS:          0
ITLB USEFUL LOAD PREFETCHES:          0 PREFETCH ISSUED TO LOWER LEVEL:          0  ACCURACY: -nan
ITLB TIMELY PREFETCHES:          0 LATE PREFETCHES: 0 DROPPED PREFETCHES: 0
ITLB PREFETCHES SAME FILL-ORIGIN LEVEL: 0 DIFFERENT FILL-ORIGIN LEVEL: 0
ITLB AVERAGE MISS LATENCY: -nan cycles
ITLB RQ	ACCESS:    8676167	FORWARD:          0	MERGED:    1964372	TO_CACHE:    6711795

Revised Interactions: positive negative neutral
ITLB_interactions 0 0 0 -nan -nan -nan
DTLB TOTAL     ACCESS:    9565992  HIT:    9497335  MISS:      68657  HIT %:    99.2823  MISS %:    0.71772   MPKI: 1.37314
DTLB LOAD TRANSLATION ACCESS:    9565992  HIT:    9497335  MISS:      68657  HIT %:    99.2823  MISS %:    0.71772   MPKI: 1.37314
DTLB PREFETCH  REQUESTED:          0  ISSUED:          0  USEFUL:          0  USELESS:          0
DTLB USEFUL LOAD PREFETCHES:          0 PREFETCH ISSUED TO LOWER LEVEL:          0  ACCURACY: -nan
DTLB TIMELY PREFETCHES:          0 LATE PREFETCHES: 0 DROPPED PREFETCHES: 0
DTLB PREFETCHES SAME FILL-ORIGIN LEVEL: 0 DIFFERENT FILL-ORIGIN LEVEL: 0
DTLB AVERAGE MISS LATENCY: 111.124 cycles
DTLB RQ	ACCESS:   13944193	FORWARD:          0	MERGED:    4348467	TO_CACHE:    9595726

Revised Interactions: positive negative neutral
DTLB_interactions 0 0 0 -nan -nan -nan
STLB TOTAL     ACCESS:      68657  HIT:      31401  MISS:      37256  HIT %:    45.7361  MISS %:    54.2639   MPKI: 0.74512
STLB LOAD TRANSLATION ACCESS:      68657  HIT:      31401  MISS:      37256  HIT %:    45.7361  MISS %:    54.2639   MPKI: 0.74512
STLB PREFETCH  REQUESTED:          0  ISSUED:          0  USEFUL:          0  USELESS:          0
STLB USEFUL LOAD PREFETCHES:          0 PREFETCH ISSUED TO LOWER LEVEL:          0  ACCURACY: -nan
STLB TIMELY PREFETCHES:          0 LATE PREFETCHES: 0 DROPPED PREFETCHES: 0
STLB PREFETCHES SAME FILL-ORIGIN LEVEL: 0 DIFFERENT FILL-ORIGIN LEVEL: 0
STLB AVERAGE MISS LATENCY: 187.461 cycles
STLB RQ	ACCESS:      68657	FORWARD:          0	MERGED:          0	TO_CACHE:      68657

Revised Interactions: positive negative neutral
STLB_interactions 0 0 0 -nan -nan -nan
STLB Hit, L1D data hit: 0
STLB Hit, L2C data hit: 0
STLB Hit, LLC data hit: 0
STLB Hit, LLC data miss: 0
STLB STLB hints to L2: 0
L1D TOTAL     ACCESS:   13816221  HIT:    9883134  MISS:    3933087  HIT %:    71.5328  MISS %:    28.4672   MPKI: 78.6617
L1D LOAD      ACCESS:    4890865  HIT:    4294902  MISS:     595963  HIT %:    87.8148  MISS %:    12.1852   MPKI: 11.9193
L1D RFO       ACCESS:    8925356  HIT:    5588232  MISS:    3337124  HIT %:    62.6107  MISS %:    37.3893   MPKI: 66.7425
L1D PREFETCH  REQUESTED:          0  ISSUED:          0  USEFUL:          0  USELESS:          0
L1D USEFUL LOAD PREFETCHES:          0 PREFETCH ISSUED TO LOWER LEVEL:          0  ACCURACY: -nan
L1D TIMELY PREFETCHES:          0 LATE PREFETCHES: 0 DROPPED PREFETCHES: 0
L1D PREFETCHES SAME FILL-ORIGIN LEVEL: 0 DIFFERENT FILL-ORIGIN LEVEL: 0
L1D AVERAGE MISS LATENCY: 343.478 cycles
L1D RQ	ACCESS:   12383390	FORWARD:          0	MERGED:    6543071	TO_CACHE:    4957984
L1D WQ	ACCESS:    9219579	FORWARD:     882335	MERGED:     233370	TO_CACHE:    8986209

Revised Interactions: positive negative neutral
L1D_interactions 0 0 0 -nan -nan -nan
L1D UNIQUE REGIONS ACCESSED: 0
L1D REGIONS CONFLICTS: 0
L1D Cross Page Prefetch Requests: 0
L1D Same Page Prefetch Requests: 0
L1D ROI Sum of L1D PQ occupancy: 0
L1D PREFETCHES PUSHED FROM L2C: 0
L1I TOTAL     ACCESS:    8676165  HIT:    8676165  MISS:          0  HIT %:        100  MISS %:          0   MPKI: 0
L1I LOAD      ACCESS:    8676165  HIT:    8676165  MISS:          0  HIT %:        100  MISS %:          0   MPKI: 0
L1I PREFETCH  REQUESTED:          0  ISSUED:          0  USEFUL:          0  USELESS:          0
L1I USEFUL LOAD PREFETCHES:          0 PREFETCH ISSUED TO LOWER LEVEL:          0  ACCURACY: -nan
L1I TIMELY PREFETCHES:          0 LATE PREFETCHES: 0 DROPPED PREFETCHES: 0
L1I PREFETCHES SAME FILL-ORIGIN LEVEL: 0 DIFFERENT FILL-ORIGIN LEVEL: 0
L1I AVERAGE MISS LATENCY: -nan cycles
L1I RQ	ACCESS:   12455206	FORWARD:          0	MERGED:    3779039	TO_CACHE:    8676167

Revised Interactions: positive negative neutral
L1I_interactions 0 0 0 -nan -nan -nan
BTB TOTAL     ACCESS:     899011  HIT:     899005  MISS:          6  HIT %:    99.9993  MISS %:  0.0006674   MPKI: 0.00012
BTB BRANCH_DIRECT_JUMP	ACCESS:     146381  HIT:     146380  MISS:          1
BTB BRANCH_INDIRECT	ACCESS:          0  HIT:          0  MISS:          0
BTB BRANCH_CONDITIONAL	ACCESS:     752630  HIT:     752625  MISS:          5
BTB BRANCH_DIRECT_CALL	ACCESS:          0  HIT:          0  MISS:          0
BTB BRANCH_INDIRECT_CALL	ACCESS:          0  HIT:          0  MISS:          0
BTB BRANCH_RETURN	ACCESS:          0  HIT:          0  MISS:          0
BTB BRANCH_OTHER ACCESS:          0  HIT:          0  MISS:          0

L2C TOTAL     ACCESS:    7854936  HIT:    5278926  MISS:    2576010  HIT %:    67.2052  MISS %:    32.7948   MPKI: 51.5202
L2C LOAD      ACCESS:     595963  HIT:     529609  MISS:      66354  HIT %:    88.8661  MISS %:    11.1339   MPKI: 1.32708
L2C DATA LOAD MPKI: 1.32708
L2C INSTRUCTION LOAD MPKI: 0
L2C RFO       ACCESS:    3337122  HIT:    1412819  MISS:    1924303  HIT %:    42.3365  MISS %:    57.6635   MPKI: 38.4861
L2C PREFETCH  ACCESS:     547467  HIT:      16816  MISS:     530651  HIT %:     3.0716  MISS %:    96.9284   MPKI: 10.613
L2C DATA PREFETCH MPKI: 10.613
L2C INSTRUCTION PREFETCH MPKI: 0
L2C WRITEBACK ACCESS:    3337126  HIT:    3287213  MISS:      49913  HIT %:    98.5043  MISS %:    1.49569   MPKI: 0.99826
L2C LOAD TRANSLATION ACCESS:      37258  HIT:      32469  MISS:       4789  HIT %:    87.1464  MISS %:    12.8536   MPKI: 0.09578
L2C PREFETCH  REQUESTED:     595253  ISSUED:     595253  USEFUL:     529607  USELESS:       1035
L2C USEFUL LOAD PREFETCHES:     529607 PREFETCH ISSUED TO LOWER LEVEL:     565937  ACCURACY: 93.5806
L2C TIMELY PREFETCHES:     529607 LATE PREFETCHES: 35286 DROPPED PREFETCHES: 0
L2C PREFETCHES SAME FILL-ORIGIN LEVEL: 565937 DIFFERENT FILL-ORIGIN LEVEL: 0
L2C AVERAGE MISS LATENCY: 647.779 cycles
L2C RQ	ACCESS:    3970353	FORWARD:          0	MERGED:          0	TO_CACHE:    3970352
L2C WQ	ACCESS:    3337126	FORWARD:          1	MERGED:          0	TO_CACHE:    3337126
L2C PQ	ACCESS:     595253	FORWARD:          0	MERGED:          0	TO_CACHE:     595253

Revised Interactions: positive negative neutral
L2C_interactions 505531 883 24763 95.1719 0.166235 4.66191
L2C Instructions Evicting Data 0
L2C Translations Evicting Data 4771
L2C Data Evicting Data 2516642
L2C Instructions Evicting Instructions 0
L2C Translations Evicting Instructions 0
L2C Data Evicting Instructions 0
L2C Instructions Evicting Translations 0
L2C Translations Evicting Translations 18
L2C Data Evicting Translations 4666
L2C Dense regions hint from L2: 0
PSCL5 TOTAL     ACCESS:      37256  HIT:      37256  MISS:          0  HIT %:        100  MISS %:          0   MPKI: 0
PSCL5 LOAD TRANSLATION ACCESS:      37256  HIT:      37256  MISS:          0  HIT %:        100  MISS %:          0   MPKI: 0
PSCL5 PREFETCH  REQUESTED:          0  ISSUED:          0  USEFUL:          0  USELESS:          0
PSCL5 USEFUL LOAD PREFETCHES:          0 PREFETCH ISSUED TO LOWER LEVEL:          0  ACCURACY: -nan
PSCL5 TIMELY PREFETCHES:          0 LATE PREFETCHES: 0 DROPPED PREFETCHES: 0
PSCL5 PREFETCHES SAME FILL-ORIGIN LEVEL: 0 DIFFERENT FILL-ORIGIN LEVEL: 0

Revised Interactions: positive negative neutral
PSCL5_interactions 0 0 0 -nan -nan -nan
PSCL4 TOTAL     ACCESS:      37256  HIT:      37256  MISS:          0  HIT %:        100  MISS %:          0   MPKI: 0
PSCL4 LOAD TRANSLATION ACCESS:      37256  HIT:      37256  MISS:          0  HIT %:        100  MISS %:          0   MPKI: 0
PSCL4 PREFETCH  REQUESTED:          0  ISSUED:          0  USEFUL:          0  USELESS:          0
PSCL4 USEFUL LOAD PREFETCHES:          0 PREFETCH ISSUED TO LOWER LEVEL:          0  ACCURACY: -nan
PSCL4 TIMELY PREFETCHES:          0 LATE PREFETCHES: 0 DROPPED PREFETCHES: 0
PSCL4 PREFETCHES SAME FILL-ORIGIN LEVEL: 0 DIFFERENT FILL-ORIGIN LEVEL: 0

Revised Interactions: positive negative neutral
PSCL4_interactions 0 0 0 -nan -nan -nan
PSCL3 TOTAL     ACCESS:      37256  HIT:      37256  MISS:          0  HIT %:        100  MISS %:          0   MPKI: 0
PSCL3 LOAD TRANSLATION ACCESS:      37256  HIT:      37256  MISS:          0  HIT %:        100  MISS %:          0   MPKI: 0
PSCL3 PREFETCH  REQUESTED:          0  ISSUED:          0  USEFUL:          0  USELESS:          0
PSCL3 USEFUL LOAD PREFETCHES:          0 PREFETCH ISSUED TO LOWER LEVEL:          0  ACCURACY: -nan
PSCL3 TIMELY PREFETCHES:          0 LATE PREFETCHES: 0 DROPPED PREFETCHES: 0
PSCL3 PREFETCHES SAME FILL-ORIGIN LEVEL: 0 DIFFERENT FILL-ORIGIN LEVEL: 0

Revised Interactions: positive negative neutral
PSCL3_interactions 0 0 0 -nan -nan -nan
PSCL2 TOTAL     ACCESS:      37256  HIT:      37217  MISS:         39  HIT %:    99.8953  MISS %:   0.104681   MPKI: 0.00078
PSCL2 LOAD TRANSLATION ACCESS:      37256  HIT:      37217  MISS:         39  HIT %:    99.8953  MISS %:   0.104681   MPKI: 0.00078
PSCL2 PREFETCH  REQUESTED:          0  ISSUED:          0  USEFUL:          0  USELESS:          0
PSCL2 USEFUL LOAD PREFETCHES:          0 PREFETCH ISSUED TO LOWER LEVEL:          0  ACCURACY: -nan
PSCL2 TIMELY PREFETCHES:          0 LATE PREFETCHES: 0 DROPPED PREFETCHES: 0
PSCL2 PREFETCHES SAME FILL-ORIGIN LEVEL: 0 DIFFERENT FILL-ORIGIN LEVEL: 0

Revised Interactions: positive negative neutral
PSCL2_interactions 0 0 0 -nan -nan -nan
LLC TOTAL     ACCESS:    4450329  HIT:     607927  MISS:    3842402  HIT %:    13.6603  MISS %:    86.3397   MPKI: 76.848
LLC LOAD      ACCESS:      31068  HIT:        111  MISS:      30957  HIT %:   0.357281  MISS %:    99.6427   MPKI: 0.61914
LLC RFO       ACCESS:    1924247  HIT:     138230  MISS:    1786017  HIT %:    7.18359  MISS %:    92.8164   MPKI: 35.7203
LLC PREFETCH  ACCESS:     565937  HIT:        553  MISS:     565384  HIT %:  0.0977141  MISS %:    99.9023   MPKI: 11.3077
LLC WRITEBACK ACCESS:    1924288  HIT:     468921  MISS:    1455367  HIT %:    24.3685  MISS %:    75.6315   MPKI: 29.1073
LLC LOAD TRANSLATION ACCESS:       4789  HIT:        112  MISS:       4677  HIT %:    2.33869  MISS %:    97.6613   MPKI: 0.09354
LLC PREFETCH  REQUESTED:          0  ISSUED:          0  USEFUL:         64  USELESS:     565189
LLC USEFUL LOAD PREFETCHES:         64 PREFETCH ISSUED TO LOWER LEVEL:     565384  ACCURACY: 0.0113197
LLC TIMELY PREFETCHES:         64 LATE PREFETCHES: 0 DROPPED PREFETCHES: 0
LLC PREFETCHES SAME FILL-ORIGIN LEVEL: 0 DIFFERENT FILL-ORIGIN LEVEL: 0
LLC AVERAGE MISS LATENCY: 418.01 cycles
LLC RQ	ACCESS:    1960169	FORWARD:          0	MERGED:          0	TO_CACHE:    1960113
LLC WQ	ACCESS:    1924288	FORWARD:         56	MERGED:          0	TO_CACHE:    1924288
LLC PQ	ACCESS:     565937	FORWARD:          0	MERGED:          0	TO_CACHE:     565937

Revised Interactions: positive negative neutral
LLC_interactions 201 565060 253399 0.0245523 69.0225 30.9529
LLC Dense regions hint to LLC: 0

RAW hits: 661611
Loads Generated: 13045002
Loads sent to L1D: 12383390
Stores Generated: 9219571
Stores sent to L1D: 9219579
Major fault: 0 Minor fault: 40295
Allocated PAGES: 40295
[Bingo] PHT Access: 19902
[Bingo] PHT Hit PC+Addr: 106
[Bingo] PHT Hit PC+Offs: 19735
[Bingo] PHT Miss: 61
[Bingo] Prefetch PC+Addr: 0
[Bingo] Prefetch PC+Offs: 0
[Bingo] Useful PC+Addr: 0
[Bingo] Useful PC+Offs: 0
[Bingo] Useless PC+Addr: 0
[Bingo] Useless PC+Offs: 0
[Bingo] L1 Prefetch per Region: 0
[Bingo] L2 Prefetch per Region: 31.059
[Bingo] L3 Prefetch per Region: 0
[Bingo] No Prefetch per Region: 0.941031
[Bingo] Number of Voters Mean: 15.632
[Bingo] Number of Voters SD: 15.6451
PHT read accesses: 309226
PHT write accesses: 19876
AT read accesses: 595937
AT write accesses: 595926
FT read accesses: 59632
FT write accesses: 19902
PS read accesses: 109897
PS write accesses: 19841
PHT tag read accesses: 944507
PHT tag write accesses: 19982
AT tag read accesses: 51458183
AT tag write accesses: 615802
FT tag read accesses: 42508674
FT tag write accesses: 59669
PS tag read accesses: 10188036
PS tag write accesses: 129613

DRAM Statistics
 CHANNEL 0
 RQ ROW_BUFFER_HIT:     348702  ROW_BUFFER_MISS:    2037006
 DBUS_CONGESTED:          0
 WQ ROW_BUFFER_HIT:     302244  ROW_BUFFER_MISS:    1483867  FULL:       8211

 AVG_CONGESTED_CYCLE: -
 All warmup complete: 2
Channel 0 Bank busy for read cycles: 0
Channel 0 Bank busy for write cycles: 0
Channel 0
Rank 0
0banks busy for read cycles: 12574
0banks busy for write cycles: 0
1banks busy for read cycles: 847787
1banks busy for write cycles: 174287
2banks busy for read cycles: 1474250
2banks busy for write cycles: 174283
3banks busy for read cycles: 2854677
3banks busy for write cycles: 174281
4banks busy for read cycles: 4187691
4banks busy for write cycles: 174281
5banks busy for read cycles: 9312426
5banks busy for write cycles: 174298
6banks busy for read cycles: 11012439
6banks busy for write cycles: 184829
7banks busy for read cycles: 12112163
7banks busy for write cycles: 2246625
8banks busy for read cycles: 18567258
8banks busy for write cycles: 38280695

CPU 0 Branch Prediction Accuracy: 94.9437% MPKI: 0.90914 Average ROB Occupancy at Mispredict: 163.548
Branch types
NOT_BRANCH: 49100650 98.2013%
BRANCH_DIRECT_JUMP: 146381 0.292762%
BRANCH_INDIRECT: 0 0%
BRANCH_CONDITIONAL: 752642 1.50528%
BRANCH_DIRECT_CALL: 0 0%
BRANCH_INDIRECT_CALL: 0 0%
BRANCH_RETURN: 0 0%
BRANCH_OTHER: 0 0%

@sumon_overall_L1D         0         0         0         0         0         0         0
@Sumon_Early_by_class_L1D         0         0         0         0
@Sumon_Late_by_class_L1D         0         0         0         0

@Sumon_Early_by_cycle_L1D         0         0         0         0         0         0         0         0         0         0         0         0
@Sumon_Late_by_cycle_L1D         0         0         0         0         0         0
@Sumon_Early_stream_L1D         0         0         0         0         0         0         0         0         0         0         0         0
@Sumon_Early_CS_L1D         0         0         0         0         0         0         0         0         0         0         0         0
@Sumon_Early_CPLX_L1D         0         0         0         0         0         0         0         0         0         0         0         0
@Sumon_Late_stream_L1D         0         0         0         0         0         0
@Sumon_Late_CS_L1D         0         0         0         0         0         0
@Sumon_Late_CPLX_L1D         0         0         0         0         0         0
@sumon_overall_L2C    529607     35286         0      1035    530651    595253    595253
@Sumon_Early_by_class_L2C         0         0         0         0
@Sumon_Late_by_class_L2C         0         0         0         0

@Sumon_Early_by_cycle_L2C      9606      9066     13531     29588     18874    261146    186702      1090         0         0         3         1
@Sumon_Late_by_cycle_L2C       510       776      3663      1797     12836     15704
@Sumon_Early_stream_L2C         0         0         0         0         0         0         0         0         0         0         0         0
@Sumon_Early_CS_L2C         0         0         0         0         0         0         0         0         0         0         0         0
@Sumon_Early_CPLX_L2C         0         0         0         0         0         0         0         0         0         0         0         0
@Sumon_Late_stream_L2C         0         0         0         0         0         0
@Sumon_Late_CS_L2C         0         0         0         0         0         0
@Sumon_Late_CPLX_L2C         0         0         0         0         0         0
DRAM PAGES: 1048576
Allocated PAGES: 40295
