
*** ChampSim Multicore Out-of-Order Simulator ***

Warmup Instructions: 50000000
Simulation Instructions: 50000000
Number of CPUs: 1
LLC sets: 2048
LLC ways: 16
Off-chip DRAM Size: 4096 MB Channels: 1 Width: 64-bit Data Rate: 6400 MT/s
CPU 0 runs ../../biswa/SPEC2017Traces/620.omnetpp_s-141B.champsimtrace.xz
.xz
CPU 0 Bimodal branch predictor
BTB has LRU replacement policy
ITLB has LRU replacement policy
DTLB has LRU replacement policy
STLB has LRU replacement policy
L1I has LRU replacement policy
L1D has LRU replacement policy
Bingo PHT WAYS: 16 and PHT_SIZE: 16384
Initialize DRRIP state for L2C
Initialize SRRIP state
epoch: 1000
next table: 2694
cur table: 9872
epoch: 1000
next table: 2567
cur table: 2694
epoch: 1000
next table: 2105
cur table: 2567
epoch: 1000
next table: 2031
cur table: 2105
epoch: 1000
next table: 2051
cur table: 2031
epoch: 1000
next table: 2008
cur table: 2051
epoch: 1000
next table: 2157
cur table: 2008
epoch: 1000
next table: 1967
cur table: 2157
epoch: 1000
next table: 1960
cur table: 1967
epoch: 1000
next table: 1973
cur table: 1960
epoch: 1000
next table: 1995
cur table: 1973
epoch: 1000
next table: 1916
cur table: 1995
epoch: 1000
next table: 2020
cur table: 1916
epoch: 1000
next table: 2087
cur table: 2020
epoch: 1000
next table: 1936
cur table: 2087
epoch: 1000
next table: 1964
cur table: 1936
epoch: 1000
next table: 2019
cur table: 1964
epoch: 1000
next table: 1985
cur table: 2019
epoch: 1000
next table: 1967
cur table: 1985
epoch: 1000
next table: 1878
cur table: 1967
epoch: 1000
next table: 1950
cur table: 1878
epoch: 1000
next table: 1857
cur table: 1950
epoch: 1000
next table: 2112
cur table: 1857
epoch: 1000
next table: 1909
cur table: 2112
epoch: 1000
next table: 3241
cur table: 18495
epoch: 1000
next table: 2078
cur table: 1909
epoch: 1000
next table: 1921
cur table: 2078
epoch: 1000
next table: 1947
cur table: 1921
epoch: 1000
next table: 1937
cur table: 1947
epoch: 1000
next table: 2513
cur table: 3241
epoch: 1000
next table: 2111
cur table: 1937
epoch: 1000
next table: 1925
cur table: 2111
epoch: 1000
next table: 2332
cur table: 2513
epoch: 1000
next table: 1943
cur table: 1925
epoch: 1000
next table: 1946
cur table: 1943
epoch: 1000
next table: 1983
cur table: 2332
epoch: 1000
next table: 1989
cur table: 1946
epoch: 1000
next table: 1941
cur table: 1989
epoch: 1000
next table: 1754
cur table: 1983
epoch: 1000
next table: 1975
cur table: 1941
epoch: 1000
next table: 1916
cur table: 1975
epoch: 1000
next table: 1675
cur table: 1754
epoch: 1000
next table: 1951
cur table: 1916
epoch: 1000
next table: 1699
cur table: 1675
epoch: 1000
next table: 1947
cur table: 1951
epoch: 1000
next table: 1969
cur table: 1947
epoch: 1000
next table: 1678
cur table: 1699
epoch: 1000
next table: 1877
cur table: 1969
epoch: 1000
next table: 1982
cur table: 1877
epoch: 1000
next table: 1751
cur table: 1678
epoch: 1000
next table: 1918
cur table: 1982
epoch: 1000
next table: 1766
cur table: 1751
epoch: 1000
next table: 2029
cur table: 1918
epoch: 1000
next table: 1865
cur table: 2029
epoch: 1000
next table: 1800
cur table: 1766
epoch: 1000
next table: 1978
cur table: 1865
epoch: 1000
next table: 1724
cur table: 1800
epoch: 1000
next table: 1925
cur table: 1978
epoch: 1000
next table: 2064
cur table: 1925
epoch: 1000
next table: 1806
cur table: 1724
epoch: 1000
next table: 1938
cur table: 2064
epoch: 1000
next table: 1786
cur table: 1806
epoch: 1000
next table: 1957
cur table: 1938
epoch: 1000
next table: 2058
cur table: 1957
epoch: 1000
next table: 1850
cur table: 1786
epoch: 1000
next table: 2012
cur table: 2058
epoch: 1000
next table: 1663
cur table: 1850
epoch: 1000
next table: 1909
cur table: 2012
epoch: 1000
next table: 1736
cur table: 1663
epoch: 1000
next table: 2046
cur table: 1909
epoch: 1000
next table: 1921
cur table: 2046
epoch: 1000
next table: 1664
cur table: 1736
epoch: 1000
next table: 1899
cur table: 1921
epoch: 1000
next table: 1905
cur table: 1899
epoch: 1000
next table: 1665
cur table: 1664
epoch: 1000
next table: 1883
cur table: 1905
epoch: 1000
next table: 1622
cur table: 1665
epoch: 1000
next table: 1972
cur table: 1883
epoch: 1000
next table: 1731
cur table: 1622
epoch: 1000
next table: 1946
cur table: 1972
epoch: 1000
next table: 1903
cur table: 1946
epoch: 1000
next table: 1557
cur table: 1731
epoch: 1000
next table: 1968
cur table: 1903
epoch: 1000
next table: 1651
cur table: 1557
epoch: 1000
next table: 1960
cur table: 1968
epoch: 1000
next table: 1637
cur table: 1651
epoch: 1000
next table: 1915
cur table: 1960
epoch: 1000
next table: 2006
cur table: 1915
epoch: 1000
next table: 1689
cur table: 1637
epoch: 1000
next table: 1917
cur table: 2006
epoch: 1000
next table: 1646
cur table: 1689
epoch: 1000
next table: 1907
cur table: 1917
epoch: 1000
next table: 1941
cur table: 1907
epoch: 1000
next table: 1686
cur table: 1646
epoch: 1000
next table: 2066
cur table: 1941
epoch: 1000
next table: 1709
cur table: 1686
epoch: 1000
next table: 1927
cur table: 2066
epoch: 1000
next table: 1687
cur table: 1709
epoch: 1000
next table: 1947
cur table: 1927
epoch: 1000
next table: 2060
cur table: 1947
epoch: 1000
next table: 1760
cur table: 1687
epoch: 1000
next table: 1950
cur table: 2060
epoch: 1000
next table: 1700
cur table: 1760
epoch: 1000
next table: 1987
cur table: 1950
epoch: 1000
next table: 1961
cur table: 1987
epoch: 1000
next table: 1684
cur table: 1700
epoch: 1000
next table: 1928
cur table: 1961
epoch: 1000
next table: 1614
cur table: 1684
epoch: 1000
next table: 1961
cur table: 1928
epoch: 1000
next table: 1654
cur table: 1614
epoch: 1000
next table: 1947
cur table: 1961
epoch: 1000
next table: 1965
cur table: 1947
epoch: 1000
next table: 1561
cur table: 1654
epoch: 1000
next table: 1948
cur table: 1965
epoch: 1000
next table: 1616
cur table: 1561
epoch: 1000
next table: 1881
cur table: 1948
epoch: 1000
next table: 1598
cur table: 1616
epoch: 1000
next table: 2023
cur table: 1881
epoch: 1000
next table: 1913
cur table: 2023
epoch: 1000
next table: 1725
cur table: 1598
epoch: 1000
next table: 2055
cur table: 1913
epoch: 1000
next table: 1617
cur table: 1725
epoch: 1000
next table: 1878
cur table: 2055
epoch: 1000
next table: 1937
cur table: 1878
epoch: 1000
next table: 1613
cur table: 1617
epoch: 1000
next table: 1924
cur table: 1937
epoch: 1000
next table: 1617
cur table: 1613
epoch: 1000
next table: 1971
cur table: 1924
epoch: 1000
next table: 1890
cur table: 1971
epoch: 1000
next table: 1615
cur table: 1617
epoch: 1000
next table: 1867
cur table: 1890
epoch: 1000
next table: 1601
cur table: 1615
epoch: 1000
next table: 1898
cur table: 1867
epoch: 1000
next table: 1689
cur table: 1601
epoch: 1000
next table: 2047
cur table: 1898
epoch: 1000
next table: 1926
cur table: 2047
epoch: 1000
next table: 1620
cur table: 1689
epoch: 1000
next table: 1870
cur table: 1926
epoch: 1000
next table: 1674
cur table: 1620
epoch: 1000
next table: 1978
cur table: 1870
epoch: 1000
next table: 1636
cur table: 1674
epoch: 1000
next table: 2250
cur table: 1978
epoch: 1000
next table: 1665
cur table: 1636
epoch: 1000
next table: 1918
cur table: 2250
epoch: 1000
next table: 1954
cur table: 1918
epoch: 1000
next table: 1662
cur table: 1665
epoch: 1000
next table: 1889
cur table: 1954
epoch: 1000
next table: 1609
cur table: 1662
epoch: 1000
next table: 1923
cur table: 1889
epoch: 1000
next table: 1948
cur table: 1923
epoch: 1000
next table: 1697
cur table: 1609
epoch: 1000
next table: 1968
cur table: 1948
epoch: 1000
next table: 1653
cur table: 1697
epoch: 1000
next table: 1885
cur table: 1968
epoch: 1000
next table: 1644
cur table: 1653
epoch: 1000
next table: 1922
cur table: 1885
epoch: 1000
next table: 1977
cur table: 1922
epoch: 1000
next table: 1616
cur table: 1644
epoch: 1000
next table: 1851
cur table: 1977
epoch: 1000
next table: 1645
cur table: 1616
epoch: 1000
next table: 1908
cur table: 1851
epoch: 1000
next table: 1952
cur table: 1908
epoch: 1000
next table: 1586
cur table: 1645
epoch: 1000
next table: 1943
cur table: 1952
epoch: 1000
next table: 1646
cur table: 1586
epoch: 1000
next table: 1944
cur table: 1943
epoch: 1000
next table: 1647
cur table: 1646
epoch: 1000
next table: 1995
cur table: 1944
epoch: 1000
next table: 1840
cur table: 1995
epoch: 1000
next table: 1507
cur table: 1647
epoch: 1000
next table: 1865
cur table: 1840
epoch: 1000
next table: 1664
cur table: 1507
epoch: 1000
next table: 2063
cur table: 1865
epoch: 1000
next table: 1702
cur table: 1664
epoch: 1000
next table: 1947
cur table: 2063
epoch: 1000
next table: 2097
cur table: 1947
epoch: 1000
next table: 1784
cur table: 1702
epoch: 1000
next table: 1907
cur table: 2097
epoch: 1000
next table: 1630
cur table: 1784
epoch: 1000
next table: 1958
cur table: 1907
epoch: 1000
next table: 1729
cur table: 1630
epoch: 1000
next table: 2086
cur table: 1958
epoch: 1000
next table: 1899
cur table: 2086
epoch: 1000
next table: 1672
cur table: 1729
epoch: 1000
next table: 1760
cur table: 1899
epoch: 1000
next table: 1696
cur table: 1672
epoch: 1000
next table: 1781
cur table: 1760
epoch: 1000
next table: 1666
cur table: 1696
epoch: 1000
next table: 1743
cur table: 1781
epoch: 1000
next table: 1671
cur table: 1666
epoch: 1000
next table: 1762
cur table: 1743
epoch: 1000
next table: 1714
cur table: 1671
epoch: 1000
next table: 1773
cur table: 1762
epoch: 1000
next table: 1824
cur table: 1773
epoch: 1000
next table: 2013
cur table: 1714
epoch: 1000
next table: 2047
cur table: 1824
epoch: 1000
next table: 2273
cur table: 2047
epoch: 1000
next table: 1931
cur table: 2013
epoch: 1000
next table: 1812
cur table: 2273
epoch: 1000
next table: 1657
cur table: 1931
epoch: 1000
next table: 1890
cur table: 1812
epoch: 1000
next table: 1589
cur table: 1657
epoch: 1000
next table: 1909
cur table: 1890
epoch: 1000
next table: 1873
cur table: 1909
epoch: 1000
next table: 1639
cur table: 1589
epoch: 1000
next table: 1958
cur table: 1873
epoch: 1000
next table: 1643
cur table: 1639
epoch: 1000
next table: 1934
cur table: 1958
epoch: 1000
next table: 1875
cur table: 1934
epoch: 1000
next table: 1675
cur table: 1643
epoch: 1000
next table: 1849
cur table: 1875
epoch: 1000
next table: 1622
cur table: 1675
epoch: 1000
next table: 1881
cur table: 1849
epoch: 1000
next table: 1607
cur table: 1622
epoch: 1000
next table: 1943
cur table: 1881
epoch: 1000
next table: 1853
cur table: 1943
epoch: 1000
next table: 1510
cur table: 1607
epoch: 1000
next table: 1963
cur table: 1853
epoch: 1000
next table: 1660
cur table: 1510
epoch: 1000
next table: 1920
cur table: 1963
epoch: 1000
next table: 1629
cur table: 1660
epoch: 1000
next table: 1892
cur table: 1920
epoch: 1000
next table: 1927
cur table: 1892
epoch: 1000
next table: 1626
cur table: 1629
epoch: 1000
next table: 1995
cur table: 1927
epoch: 1000
next table: 1660
cur table: 1626
epoch: 1000
next table: 1846
cur table: 1995
epoch: 1000
next table: 1886
cur table: 1846
epoch: 1000
next table: 1557
cur table: 1660
epoch: 1000
next table: 1965
cur table: 1886
epoch: 1000
next table: 1647
cur table: 1557
epoch: 1000
next table: 1927
cur table: 1965
epoch: 1000
next table: 1676
cur table: 1647
epoch: 1000
next table: 2075
cur table: 1927
epoch: 1000
next table: 1796
cur table: 2075
epoch: 1000
next table: 1564
cur table: 1676
epoch: 1000
next table: 1964
cur table: 1796
epoch: 1000
next table: 1716
cur table: 1564
epoch: 1000
next table: 1993
cur table: 1964
epoch: 1000
next table: 1565
cur table: 1716
epoch: 1000
next table: 1849
cur table: 1993
epoch: 1000
next table: 2061
cur table: 1849
epoch: 1000
next table: 1666
cur table: 1565
epoch: 1000
next table: 1879
cur table: 2061
epoch: 1000
next table: 1650
cur table: 1666
epoch: 1000
next table: 1900
cur table: 1879
epoch: 1000
next table: 1909
cur table: 1900
epoch: 1000
next table: 1697
cur table: 1650
epoch: 1000
next table: 1989
cur table: 1909
epoch: 1000
next table: 1711
cur table: 1697
epoch: 1000
next table: 1962
cur table: 1989
epoch: 1000
next table: 1657
cur table: 1711
epoch: 1000
next table: 1874
cur table: 1962
epoch: 1000
next table: 1878
cur table: 1874
epoch: 1000
next table: 1671
cur table: 1657
epoch: 1000
next table: 1961
cur table: 1878
epoch: 1000
next table: 1519
cur table: 1671
epoch: 1000
next table: 1885
cur table: 1961
epoch: 1000
next table: 1942
cur table: 1885
epoch: 1000
next table: 1586
cur table: 1519
epoch: 1000
next table: 1901
cur table: 1942
epoch: 1000
next table: 1537
cur table: 1586
epoch: 1000
next table: 1958
cur table: 1901
epoch: 1000
next table: 1621
cur table: 1537
epoch: 1000
next table: 1840
cur table: 1958
epoch: 1000
next table: 2132
cur table: 1840
epoch: 1000
next table: 1743
cur table: 1621
epoch: 1000
next table: 1909
cur table: 2132
epoch: 1000
next table: 1590
cur table: 1743
epoch: 1000
next table: 1947
cur table: 1909
epoch: 1000
next table: 1612
cur table: 1590
epoch: 1000
next table: 1974
cur table: 1947
epoch: 1000
next table: 2014
cur table: 1974
epoch: 1000
next table: 1635
cur table: 1612
epoch: 1000
next table: 1918
cur table: 2014
epoch: 1000
next table: 1659
cur table: 1635
epoch: 1000
next table: 1915
cur table: 1918
epoch: 1000
next table: 1600
cur table: 1659
epoch: 1000
next table: 1921
cur table: 1915
epoch: 1000
next table: 2037
cur table: 1921
epoch: 1000
next table: 1659
cur table: 1600
epoch: 1000
next table: 1935
cur table: 2037
epoch: 1000
next table: 1643
cur table: 1659
epoch: 1000
next table: 1920
cur table: 1935
epoch: 1000
next table: 1946
cur table: 1920
epoch: 1000
next table: 1660
cur table: 1643
epoch: 1000
next table: 1874
cur table: 1946
epoch: 1000
next table: 1659
cur table: 1660
epoch: 1000
next table: 1898
cur table: 1874
epoch: 1000
next table: 1639
cur table: 1659
epoch: 1000
next table: 1864
cur table: 1898
epoch: 1000
next table: 2200
cur table: 1864
epoch: 1000
next table: 1713
cur table: 1639
epoch: 1000
next table: 1839
cur table: 2200
epoch: 1000
next table: 1543
cur table: 1713
epoch: 1000
next table: 1892
cur table: 1839
epoch: 1000
next table: 1622
cur table: 1543
epoch: 1000
next table: 1942
cur table: 1892
epoch: 1000
next table: 1905
cur table: 1942
epoch: 1000
next table: 1600
cur table: 1622
epoch: 1000
next table: 1834
cur table: 1905
epoch: 1000
next table: 1659
cur table: 1600
epoch: 1000
next table: 1957
cur table: 1834
epoch: 1000
next table: 1956
cur table: 1957
epoch: 1000
next table: 1775
cur table: 1659
epoch: 1000
next table: 1939
cur table: 1956
epoch: 1000
next table: 1663
cur table: 1775
epoch: 1000
next table: 1876
cur table: 1939
epoch: 1000
next table: 1966
cur table: 1876
epoch: 1000
next table: 1699
cur table: 1663
epoch: 1000
next table: 1836
cur table: 1966
epoch: 1000
next table: 1662
cur table: 1699
epoch: 1000
next table: 2065
cur table: 1836
epoch: 1000
next table: 1628
cur table: 1662
epoch: 1000
next table: 1889
cur table: 2065
epoch: 1000
next table: 1957
cur table: 1889
epoch: 1000
next table: 1568
cur table: 1628
epoch: 1000
next table: 1914
cur table: 1957
epoch: 1000
next table: 1627
cur table: 1568
epoch: 1000
next table: 1907
cur table: 1914
epoch: 1000
next table: 1627
cur table: 1627
epoch: 1000
next table: 2059
cur table: 1907
epoch: 1000
next table: 1928
cur table: 2059
epoch: 1000
next table: 2181
cur table: 1627
epoch: 1000
next table: 2198
cur table: 1928
epoch: 1000
next table: 1778
cur table: 2181
epoch: 1000
next table: 2335
cur table: 2198
epoch: 1000
next table: 1865
cur table: 2335
epoch: 1000
next table: 1671
cur table: 1778
epoch: 1000
next table: 1929
cur table: 1865
epoch: 1000
next table: 1611
cur table: 1671
epoch: 1000
next table: 2066
cur table: 1929
epoch: 1000
next table: 1642
cur table: 1611
epoch: 1000
next table: 2025
cur table: 2066
epoch: 1000
next table: 1906
cur table: 2025
epoch: 1000
next table: 1580
cur table: 1642
epoch: 1000
next table: 1852
cur table: 1906
epoch: 1000
next table: 1641
cur table: 1580
epoch: 1000
next table: 1944
cur table: 1852
epoch: 1000
next table: 2007
cur table: 1944
epoch: 1000
next table: 1661
cur table: 1641
epoch: 1000
next table: 1921
cur table: 2007
epoch: 1000
next table: 1628
cur table: 1661
epoch: 1000
next table: 1869
cur table: 1921
epoch: 1000
next table: 1931
cur table: 1869
epoch: 1000
next table: 1666
cur table: 1628
epoch: 1000
next table: 1905
cur table: 1931
epoch: 1000
next table: 1648
cur table: 1666
epoch: 1000
next table: 1955
cur table: 1905
epoch: 1000
next table: 1650
cur table: 1648
epoch: 1000
next table: 1842
cur table: 1955
epoch: 1000
next table: 1943
cur table: 1842
epoch: 1000
next table: 1583
cur table: 1650
epoch: 1000
next table: 1898
cur table: 1943
epoch: 1000
next table: 1635
cur table: 1583
epoch: 1000
next table: 1943
cur table: 1898
epoch: 1000
next table: 1613
cur table: 1635
epoch: 1000
next table: 1943
cur table: 1943
epoch: 1000
next table: 1972
cur table: 1943
epoch: 1000
next table: 1661
cur table: 1613
epoch: 1000
next table: 1836
cur table: 1972
epoch: 1000
next table: 1744
cur table: 1661
epoch: 1000
next table: 2082
cur table: 1836
epoch: 1000
next table: 1897
cur table: 2082
epoch: 1000
next table: 1638
cur table: 1744
epoch: 1000
next table: 1893
cur table: 1897
epoch: 1000
next table: 1664
cur table: 1638
epoch: 1000
next table: 1940
cur table: 1893
epoch: 1000
next table: 1525
cur table: 1664
epoch: 1000
next table: 1898
cur table: 1940
epoch: 1000
next table: 1893
cur table: 1898
epoch: 1000
next table: 1647
cur table: 1525
epoch: 1000
next table: 1903
cur table: 1893
epoch: 1000
next table: 1591
cur table: 1647
epoch: 1000
next table: 1928
cur table: 1903
epoch: 1000
next table: 1915
cur table: 1928
epoch: 1000
next table: 1604
cur table: 1591
epoch: 1000
next table: 1884
cur table: 1915
epoch: 1000
next table: 1648
cur table: 1604
epoch: 1000
next table: 1958
cur table: 1884
epoch: 1000
next table: 1728
cur table: 1648
epoch: 1000
next table: 1950
cur table: 1958
epoch: 1000
next table: 1904
cur table: 1950
epoch: 1000
next table: 1534
cur table: 1728
epoch: 1000
next table: 2005
cur table: 1904
epoch: 1000
next table: 1582
cur table: 1534
epoch: 1000
next table: 1970
cur table: 2005
epoch: 1000
next table: 1911
cur table: 1970
epoch: 1000
next table: 1548
cur table: 1582
epoch: 1000
next table: 1936
cur table: 1911
epoch: 1000
next table: 1642
cur table: 1548
epoch: 1000
next table: 1837
cur table: 1936
epoch: 1000
next table: 1636
cur table: 1642
epoch: 1000
next table: 1969
cur table: 1837
epoch: 1000
next table: 1906
cur table: 1969
epoch: 1000
next table: 1533
cur table: 1636
epoch: 1000
next table: 1882
cur table: 1906
epoch: 1000
next table: 1522
cur table: 1533
epoch: 1000
next table: 1942
cur table: 1882
epoch: 1000
next table: 1644
cur table: 1522
epoch: 1000
next table: 1970
cur table: 1942
epoch: 1000
next table: 1895
cur table: 1970
epoch: 1000
next table: 1656
cur table: 1644
epoch: 1000
next table: 1906
cur table: 1895
epoch: 1000
next table: 1596
cur table: 1656
epoch: 1000
next table: 1938
cur table: 1906
epoch: 1000
next table: 1701
cur table: 1596
epoch: 1000
next table: 1950
cur table: 1938
epoch: 1000
next table: 2105
cur table: 1950
epoch: 1000
next table: 1757
cur table: 1701
epoch: 1000
next table: 1946
cur table: 2105
epoch: 1000
next table: 1656
cur table: 1757
epoch: 1000
next table: 1939
cur table: 1946
epoch: 1000
next table: 1873
cur table: 1939
epoch: 1000
next table: 1668
cur table: 1656
epoch: 1000
next table: 2110
cur table: 1873
epoch: 1000
next table: 1694
cur table: 1668
epoch: 1000
next table: 1964
cur table: 2110
epoch: 1000
next table: 1953
cur table: 1964
epoch: 1000
next table: 1797
cur table: 1694
epoch: 1000
next table: 1963
cur table: 1953
epoch: 1000
next table: 1675
cur table: 1797
epoch: 1000
next table: 1856
cur table: 1963
epoch: 1000
next table: 1524
cur table: 1675
epoch: 1000
next table: 1848
cur table: 1856
epoch: 1000
next table: 1942
cur table: 1848
epoch: 1000
next table: 1650
cur table: 1524
epoch: 1000
next table: 1990
cur table: 1942
Heartbeat CPU 0 instructions: 10000001 cycles: 3909864 heartbeat IPC: 2.55763 cumulative IPC: 2.55763 (Simulation time: 0 hr 6 min 27 sec) 
epoch: 1000
next table: 1673
cur table: 1650
epoch: 1000
next table: 1865
cur table: 1990
epoch: 1000
next table: 1977
cur table: 1865
epoch: 1000
next table: 1572
cur table: 1673
epoch: 1000
next table: 1934
cur table: 1977
epoch: 1000
next table: 1696
cur table: 1572
epoch: 1000
next table: 1916
cur table: 1934
epoch: 1000
next table: 1610
cur table: 1696
epoch: 1000
next table: 1900
cur table: 1916
epoch: 1000
next table: 1920
cur table: 1900
epoch: 1000
next table: 1577
cur table: 1610
epoch: 1000
next table: 1957
cur table: 1920
epoch: 1000
next table: 1743
cur table: 1577
epoch: 1000
next table: 2052
cur table: 1957
epoch: 1000
next table: 1544
cur table: 1743
epoch: 1000
next table: 2029
cur table: 2052
epoch: 1000
next table: 1975
cur table: 2029
epoch: 1000
next table: 1612
cur table: 1544
epoch: 1000
next table: 1918
cur table: 1975
epoch: 1000
next table: 1584
cur table: 1612
epoch: 1000
next table: 1894
cur table: 1918
epoch: 1000
next table: 1925
cur table: 1894
epoch: 1000
next table: 1763
cur table: 1584
epoch: 1000
next table: 1979
cur table: 1925
epoch: 1000
next table: 1631
cur table: 1763
epoch: 1000
next table: 1961
cur table: 1979
epoch: 1000
next table: 1876
cur table: 1961
epoch: 1000
next table: 1633
cur table: 1631
epoch: 1000
next table: 2013
cur table: 1876
epoch: 1000
next table: 1701
cur table: 1633
epoch: 1000
next table: 2244
cur table: 2013
epoch: 1000
next table: 1738
cur table: 1701
epoch: 1000
next table: 1946
cur table: 2244
epoch: 1000
next table: 1925
cur table: 1946
epoch: 1000
next table: 1623
cur table: 1738
epoch: 1000
next table: 1859
cur table: 1925
epoch: 1000
next table: 1660
cur table: 1623
epoch: 1000
next table: 1999
cur table: 1859
epoch: 1000
next table: 1652
cur table: 1660
epoch: 1000
next table: 1918
cur table: 1999
epoch: 1000
next table: 1837
cur table: 1918
epoch: 1000
next table: 1702
cur table: 1652
epoch: 1000
next table: 1956
cur table: 1837
epoch: 1000
next table: 1549
cur table: 1702
epoch: 1000
next table: 1868
cur table: 1956
epoch: 1000
next table: 2048
cur table: 1868
epoch: 1000
next table: 1740
cur table: 1549
epoch: 1000
next table: 1971
cur table: 2048
epoch: 1000
next table: 1667
cur table: 1740
epoch: 1000
next table: 1922
cur table: 1971
epoch: 1000
next table: 1698
cur table: 1667
epoch: 1000
next table: 1895
cur table: 1922
epoch: 1000
next table: 2018
cur table: 1895
epoch: 1000
next table: 1675
cur table: 1698
epoch: 1000
next table: 1922
cur table: 2018
epoch: 1000
next table: 1638
cur table: 1675
epoch: 1000
next table: 1864
cur table: 1922
epoch: 1000
next table: 1911
cur table: 1864
epoch: 1000
next table: 1567
cur table: 1638
epoch: 1000
next table: 1923
cur table: 1911
epoch: 1000
next table: 1633
cur table: 1567
epoch: 1000
next table: 2004
cur table: 1923
epoch: 1000
next table: 1605
cur table: 1633
epoch: 1000
next table: 2014
cur table: 2004
epoch: 1000
next table: 1937
cur table: 2014
epoch: 1000
next table: 1654
cur table: 1605
epoch: 1000
next table: 1877
cur table: 1937
epoch: 1000
next table: 1580
cur table: 1654
epoch: 1000
next table: 1936
cur table: 1877
epoch: 1000
next table: 1899
cur table: 1936
epoch: 1000
next table: 1637
cur table: 1580
epoch: 1000
next table: 1845
cur table: 1899
epoch: 1000
next table: 1604
cur table: 1637
epoch: 1000
next table: 1915
cur table: 1845
epoch: 1000
next table: 1717
cur table: 1604
epoch: 1000
next table: 2066
cur table: 1915
epoch: 1000
next table: 1943
cur table: 2066
epoch: 1000
next table: 1558
cur table: 1717
epoch: 1000
next table: 1941
cur table: 1943
epoch: 1000
next table: 1656
cur table: 1558
epoch: 1000
next table: 1901
cur table: 1941
epoch: 1000
next table: 1563
cur table: 1656
epoch: 1000
next table: 2154
cur table: 1901
epoch: 1000
next table: 1912
cur table: 2154
epoch: 1000
next table: 1628
cur table: 1563
epoch: 1000
next table: 1933
cur table: 1912
epoch: 1000
next table: 1603
cur table: 1628
epoch: 1000
next table: 1915
cur table: 1933
epoch: 1000
next table: 1667
cur table: 1603
epoch: 1000
next table: 1959
cur table: 1915
epoch: 1000
next table: 1836
cur table: 1959
epoch: 1000
next table: 1641
cur table: 1667
epoch: 1000
next table: 2041
cur table: 1836
epoch: 1000
next table: 1646
cur table: 1641
epoch: 1000
next table: 1795
cur table: 2041
epoch: 1000
next table: 1910
cur table: 1795
epoch: 1000
next table: 1637
cur table: 1646
epoch: 1000
next table: 2009
cur table: 1910
epoch: 1000
next table: 1728
cur table: 1637
epoch: 1000
next table: 2050
cur table: 2009
epoch: 1000
next table: 1678
cur table: 1728
epoch: 1000
next table: 2023
cur table: 2050
epoch: 1000
next table: 1845
cur table: 2023
epoch: 1000
next table: 1612
cur table: 1678
epoch: 1000
next table: 1903
cur table: 1845
epoch: 1000
next table: 1669
cur table: 1612
epoch: 1000
next table: 1834
cur table: 1903
epoch: 1000
next table: 1888
cur table: 1834
epoch: 1000
next table: 1637
cur table: 1669
epoch: 1000
next table: 1999
cur table: 1888
epoch: 1000
next table: 1703
cur table: 1637
epoch: 1000
next table: 1958
cur table: 1999
epoch: 1000
next table: 2108
cur table: 1958
epoch: 1000
next table: 1749
cur table: 1703
epoch: 1000
next table: 1880
cur table: 2108
epoch: 1000
next table: 1589
cur table: 1749
epoch: 1000
next table: 1950
cur table: 1880
epoch: 1000
next table: 1671
cur table: 1589
epoch: 1000
next table: 1920
cur table: 1950
epoch: 1000
next table: 1907
cur table: 1920
epoch: 1000
next table: 1596
cur table: 1671
epoch: 1000
next table: 2000
cur table: 1907
epoch: 1000
next table: 1592
cur table: 1596
epoch: 1000
next table: 1883
cur table: 2000
epoch: 1000
next table: 1965
cur table: 1883
epoch: 1000
next table: 1622
cur table: 1592
epoch: 1000
next table: 1954
cur table: 1965
epoch: 1000
next table: 1623
cur table: 1622
epoch: 1000
next table: 1942
cur table: 1954
epoch: 1000
next table: 1751
cur table: 1623
epoch: 1000
next table: 2109
cur table: 1942
epoch: 1000
next table: 1960
cur table: 2109
epoch: 1000
next table: 1577
cur table: 1751
epoch: 1000
next table: 1970
cur table: 1960
epoch: 1000
next table: 1712
cur table: 1577
epoch: 1000
next table: 1996
cur table: 1970
epoch: 1000
next table: 1747
cur table: 1712
epoch: 1000
next table: 1927
cur table: 1996
epoch: 1000
next table: 2114
cur table: 1927
epoch: 1000
next table: 1682
cur table: 1747
epoch: 1000
next table: 1909
cur table: 2114
epoch: 1000
next table: 1678
cur table: 1682
epoch: 1000
next table: 1957
cur table: 1909
epoch: 1000
next table: 1902
cur table: 1957
epoch: 1000
next table: 1654
cur table: 1678
epoch: 1000
next table: 1883
cur table: 1902
epoch: 1000
next table: 1616
cur table: 1654
epoch: 1000
next table: 1864
cur table: 1883
epoch: 1000
next table: 1572
cur table: 1616
epoch: 1000
next table: 1895
cur table: 1864
epoch: 1000
next table: 2123
cur table: 1895
epoch: 1000
next table: 1665
cur table: 1572
epoch: 1000
next table: 1896
cur table: 2123
epoch: 1000
next table: 1651
cur table: 1665
epoch: 1000
next table: 1938
cur table: 1896
epoch: 1000
next table: 1831
cur table: 1938
epoch: 1000
next table: 1647
cur table: 1651
epoch: 1000
next table: 2046
cur table: 1831
epoch: 1000
next table: 2081
cur table: 2046
epoch: 1000
next table: 2269
cur table: 2081
epoch: 1000
next table: 3285
cur table: 1647
epoch: 1000
next table: 2126
cur table: 2269
epoch: 1000
next table: 1621
cur table: 3285
epoch: 1000
next table: 1877
cur table: 2126
epoch: 1000
next table: 1655
cur table: 1621
epoch: 1000
next table: 1964
cur table: 1877
epoch: 1000
next table: 1968
cur table: 1964
epoch: 1000
next table: 1637
cur table: 1655
epoch: 1000
next table: 1905
cur table: 1968
epoch: 1000
next table: 1632
cur table: 1637
epoch: 1000
next table: 2002
cur table: 1905
epoch: 1000
next table: 1986
cur table: 2002
epoch: 1000
next table: 1696
cur table: 1632
epoch: 1000
next table: 1873
cur table: 1986
epoch: 1000
next table: 1600
cur table: 1696
epoch: 1000
next table: 1946
cur table: 1873
epoch: 1000
next table: 1668
cur table: 1600
epoch: 1000
next table: 2148
cur table: 1946
epoch: 1000
next table: 1934
cur table: 2148
epoch: 1000
next table: 1821
cur table: 1668
epoch: 1000
next table: 1937
cur table: 1934
epoch: 1000
next table: 1769
cur table: 1821
epoch: 1000
next table: 2061
cur table: 1937
epoch: 1000
next table: 1912
cur table: 2061
epoch: 1000
next table: 1623
cur table: 1769
epoch: 1000
next table: 1892
cur table: 1912
epoch: 1000
next table: 1594
cur table: 1623
epoch: 1000
next table: 1923
cur table: 1892
epoch: 1000
next table: 1607
cur table: 1594
epoch: 1000
next table: 1913
cur table: 1923
epoch: 1000
next table: 1897
cur table: 1913
epoch: 1000
next table: 1637
cur table: 1607
epoch: 1000
next table: 1946
cur table: 1897
epoch: 1000
next table: 1717
cur table: 1637
epoch: 1000
next table: 1951
cur table: 1946
epoch: 1000
next table: 1931
cur table: 1951
epoch: 1000
next table: 1704
cur table: 1717
epoch: 1000
next table: 1851
cur table: 1931
epoch: 1000
next table: 1724
cur table: 1704
epoch: 1000
next table: 2133
cur table: 1851
epoch: 1000
next table: 1933
cur table: 2133
epoch: 1000
next table: 1674
cur table: 1724
epoch: 1000
next table: 1939
cur table: 1933
epoch: 1000
next table: 1658
cur table: 1674
epoch: 1000
next table: 1883
cur table: 1939
epoch: 1000
next table: 1959
cur table: 1883
epoch: 1000
next table: 1619
cur table: 1658
epoch: 1000
next table: 2128
cur table: 1959
epoch: 1000
next table: 1665
cur table: 1619
epoch: 1000
next table: 1932
cur table: 2128
epoch: 1000
next table: 1663
cur table: 1665
epoch: 1000
next table: 1978
cur table: 1932
epoch: 1000
next table: 1936
cur table: 1978
epoch: 1000
next table: 1604
cur table: 1663
epoch: 1000
next table: 1957
cur table: 1936
epoch: 1000
next table: 1613
cur table: 1604
epoch: 1000
next table: 1869
cur table: 1957
epoch: 1000
next table: 1895
cur table: 1869
epoch: 1000
next table: 1582
cur table: 1613
epoch: 1000
next table: 1943
cur table: 1895
epoch: 1000
next table: 1611
cur table: 1582
epoch: 1000
next table: 1934
cur table: 1943
epoch: 1000
next table: 1582
cur table: 1611
epoch: 1000
next table: 1857
cur table: 1934
epoch: 1000
next table: 1940
cur table: 1857
epoch: 1000
next table: 1621
cur table: 1582
epoch: 1000
next table: 1967
cur table: 1940
epoch: 1000
next table: 1754
cur table: 1621
epoch: 1000
next table: 2071
cur table: 1967
epoch: 1000
next table: 1898
cur table: 2071
epoch: 1000
next table: 1691
cur table: 1754
epoch: 1000
next table: 1879
cur table: 1898
epoch: 1000
next table: 1609
cur table: 1691
epoch: 1000
next table: 2291
cur table: 1879
epoch: 1000
next table: 1741
cur table: 1609
epoch: 1000
next table: 1960
cur table: 2291
epoch: 1000
next table: 1967
cur table: 1960
epoch: 1000
next table: 1652
cur table: 1741
epoch: 1000
next table: 2077
cur table: 1967
epoch: 1000
next table: 1759
cur table: 1652
epoch: 1000
next table: 1935
cur table: 2077
epoch: 1000
next table: 1911
cur table: 1935
epoch: 1000
next table: 1733
cur table: 1759
epoch: 1000
next table: 1885
cur table: 1911
epoch: 1000
next table: 1628
cur table: 1733
epoch: 1000
next table: 2178
cur table: 1885
epoch: 1000
next table: 1665
cur table: 1628
epoch: 1000
next table: 1894
cur table: 2178
epoch: 1000
next table: 1907
cur table: 1894
epoch: 1000
next table: 1655
cur table: 1665
epoch: 1000
next table: 1850
cur table: 1907
epoch: 1000
next table: 1530
cur table: 1655
epoch: 1000
next table: 2259
cur table: 1850
epoch: 1000
next table: 1723
cur table: 1530
epoch: 1000
next table: 1888
cur table: 2259
epoch: 1000
next table: 1652
cur table: 1723
epoch: 1000
next table: 2006
cur table: 1888
epoch: 1000
next table: 1976
cur table: 2006
epoch: 1000
next table: 1663
cur table: 1652
epoch: 1000
next table: 1851
cur table: 1976
epoch: 1000
next table: 1651
cur table: 1663
epoch: 1000
next table: 1915
cur table: 1851
epoch: 1000
next table: 1894
cur table: 1915
epoch: 1000
next table: 1673
cur table: 1651
epoch: 1000
next table: 2150
cur table: 1894
epoch: 1000
next table: 1650
cur table: 1673
epoch: 1000
next table: 1922
cur table: 2150
epoch: 1000
next table: 1981
cur table: 1922
epoch: 1000
next table: 1682
cur table: 1650
epoch: 1000
next table: 1905
cur table: 1981
epoch: 1000
next table: 1652
cur table: 1682
epoch: 1000
next table: 2025
cur table: 1905
epoch: 1000
next table: 1579
cur table: 1652
epoch: 1000
next table: 1778
cur table: 2025
epoch: 1000
next table: 1513
cur table: 1579
epoch: 1000
next table: 2339
cur table: 1778
epoch: 1000
next table: 1957
cur table: 2339
epoch: 1000
next table: 1652
cur table: 1513
epoch: 1000
next table: 1950
cur table: 1957
epoch: 1000
next table: 1680
cur table: 1652
epoch: 1000
next table: 1881
cur table: 1950
epoch: 1000
next table: 1918
cur table: 1881
epoch: 1000
next table: 1619
cur table: 1680
epoch: 1000
next table: 1857
cur table: 1918
epoch: 1000
next table: 1618
cur table: 1619
epoch: 1000
next table: 1958
cur table: 1857
epoch: 1000
next table: 1619
cur table: 1618
epoch: 1000
next table: 1912
cur table: 1958
epoch: 1000
next table: 1925
cur table: 1912
epoch: 1000
next table: 1658
cur table: 1619
epoch: 1000
next table: 1894
cur table: 1925
epoch: 1000
next table: 1621
cur table: 1658
epoch: 1000
next table: 1913
cur table: 1894
epoch: 1000
next table: 1958
cur table: 1913
epoch: 1000
next table: 1704
cur table: 1621
epoch: 1000
next table: 1898
cur table: 1958
epoch: 1000
next table: 1633
cur table: 1704
epoch: 1000
next table: 2174
cur table: 1898
epoch: 1000
next table: 1604
cur table: 1633
epoch: 1000
next table: 1928
cur table: 2174
epoch: 1000
next table: 1974
cur table: 1928
epoch: 1000
next table: 1704
cur table: 1604
epoch: 1000
next table: 1905
cur table: 1974
epoch: 1000
next table: 1629
cur table: 1704
epoch: 1000
next table: 1941
cur table: 1905
epoch: 1000
next table: 1935
cur table: 1941
epoch: 1000
next table: 1599
cur table: 1629
epoch: 1000
next table: 1899
cur table: 1935
epoch: 1000
next table: 1708
cur table: 1599
epoch: 1000
next table: 1959
cur table: 1899
epoch: 1000
next table: 1990
cur table: 1959
epoch: 1000
next table: 1696
cur table: 1708
epoch: 1000
next table: 1899
cur table: 1990
epoch: 1000
next table: 1597
cur table: 1696
epoch: 1000
next table: 1965
cur table: 1899
epoch: 1000
next table: 1621
cur table: 1597
epoch: 1000
next table: 1849
cur table: 1965
epoch: 1000
next table: 2007
cur table: 1849
epoch: 1000
next table: 1694
cur table: 1621
epoch: 1000
next table: 1964
cur table: 2007
epoch: 1000
next table: 1623
cur table: 1694
epoch: 1000
next table: 1947
cur table: 1964
epoch: 1000
next table: 1624
cur table: 1623
epoch: 1000
next table: 1971
cur table: 1947
epoch: 1000
next table: 2016
cur table: 1971
epoch: 1000
next table: 1680
cur table: 1624
epoch: 1000
next table: 1880
cur table: 2016
epoch: 1000
next table: 1638
cur table: 1680
epoch: 1000
next table: 1921
cur table: 1880
epoch: 1000
next table: 2085
cur table: 1921
epoch: 1000
next table: 1704
cur table: 1638
epoch: 1000
next table: 1932
cur table: 2085
epoch: 1000
next table: 1632
cur table: 1704
epoch: 1000
next table: 1882
cur table: 1932
epoch: 1000
next table: 1613
cur table: 1632
epoch: 1000
next table: 2051
cur table: 1882
epoch: 1000
next table: 1966
cur table: 2051
epoch: 1000
next table: 1646
cur table: 1613
epoch: 1000
next table: 1927
cur table: 1966
epoch: 1000
next table: 1635
cur table: 1646
epoch: 1000
next table: 2032
cur table: 1927
epoch: 1000
next table: 1703
cur table: 1635
epoch: 1000
next table: 1857
cur table: 2032
epoch: 1000
next table: 1930
cur table: 1857
epoch: 1000
next table: 1661
cur table: 1703
epoch: 1000
next table: 2038
cur table: 1930
epoch: 1000
next table: 2268
cur table: 2038
epoch: 1000
next table: 2823
cur table: 1661
epoch: 1000
next table: 2144
cur table: 2268
epoch: 1000
next table: 1947
cur table: 2144
epoch: 1000
next table: 1717
cur table: 2823
epoch: 1000
next table: 1887
cur table: 1947
epoch: 1000
next table: 1718
cur table: 1717
epoch: 1000
next table: 1972
cur table: 1887
epoch: 1000
next table: 2008
cur table: 1972
epoch: 1000
next table: 1686
cur table: 1718
epoch: 1000
next table: 1967
cur table: 2008
epoch: 1000
next table: 1610
cur table: 1686
epoch: 1000
next table: 1976
cur table: 1967
epoch: 1000
next table: 1902
cur table: 1976
epoch: 1000
next table: 1634
cur table: 1610
epoch: 1000
next table: 1918
cur table: 1902
epoch: 1000
next table: 1651
cur table: 1634
epoch: 1000
next table: 1963
cur table: 1918
epoch: 1000
next table: 1975
cur table: 1963
epoch: 1000
next table: 1680
cur table: 1651
epoch: 1000
next table: 1977
cur table: 1975
epoch: 1000
next table: 1653
cur table: 1680
epoch: 1000
next table: 1965
cur table: 1977
epoch: 1000
next table: 1684
cur table: 1653
epoch: 1000
next table: 1917
cur table: 1965
epoch: 1000
next table: 2036
cur table: 1917
epoch: 1000
next table: 1670
cur table: 1684
epoch: 1000
next table: 1953
cur table: 2036
epoch: 1000
next table: 1562
cur table: 1670
epoch: 1000
next table: 1923
cur table: 1953
epoch: 1000
next table: 1684
cur table: 1562
epoch: 1000
next table: 2017
cur table: 1923
epoch: 1000
next table: 1954
cur table: 2017
epoch: 1000
next table: 1576
cur table: 1684
epoch: 1000
next table: 2019
cur table: 1954
epoch: 1000
next table: 1738
cur table: 1576
epoch: 1000
next table: 1955
cur table: 2019
epoch: 1000
next table: 1909
cur table: 1955
epoch: 1000
next table: 1648
cur table: 1738
epoch: 1000
next table: 2120
cur table: 1909
epoch: 1000
next table: 1769
cur table: 1648
epoch: 1000
next table: 2038
cur table: 2120
epoch: 1000
next table: 1563
cur table: 1769
epoch: 1000
next table: 1966
cur table: 2038
epoch: 1000
next table: 1917
cur table: 1966
epoch: 1000
next table: 1721
cur table: 1563
epoch: 1000
next table: 2059
cur table: 1917
epoch: 1000
next table: 1676
cur table: 1721
epoch: 1000
next table: 1919
cur table: 2059
epoch: 1000
next table: 1872
cur table: 1919
epoch: 1000
next table: 1673
cur table: 1676
epoch: 1000
next table: 1937
cur table: 1872
epoch: 1000
next table: 1643
cur table: 1673
epoch: 1000
next table: 1920
cur table: 1937
epoch: 1000
next table: 1909
cur table: 1920
epoch: 1000
next table: 1613
cur table: 1643
epoch: 1000
next table: 1950
cur table: 1909
epoch: 1000
next table: 1663
cur table: 1613
epoch: 1000
next table: 1892
cur table: 1950
epoch: 1000
next table: 1582
cur table: 1663
epoch: 1000
next table: 1918
cur table: 1892
epoch: 1000
next table: 1957
cur table: 1918
epoch: 1000
next table: 1666
cur table: 1582
epoch: 1000
next table: 1910
cur table: 1957
epoch: 1000
next table: 1503
cur table: 1666
epoch: 1000
next table: 1918
cur table: 1910
epoch: 1000
next table: 1454
cur table: 1503
epoch: 1000
next table: 1885
cur table: 1918
epoch: 1000
next table: 1402
cur table: 1454
epoch: 1000
next table: 1949
cur table: 1885
epoch: 1000
next table: 1462
cur table: 1402
epoch: 1000
next table: 1995
cur table: 1949
epoch: 1000
next table: 1901
cur table: 1995
epoch: 1000
next table: 1518
cur table: 1462
epoch: 1000
next table: 1884
cur table: 1901
epoch: 1000
next table: 1586
cur table: 1518
epoch: 1000
next table: 1904
cur table: 1884
epoch: 1000
next table: 1831
cur table: 1904
epoch: 1000
next table: 1589
cur table: 1586
epoch: 1000
next table: 1894
cur table: 1831
epoch: 1000
next table: 1532
cur table: 1589
epoch: 1000
next table: 1882
cur table: 1894
epoch: 1000
next table: 1536
cur table: 1532
epoch: 1000
next table: 1893
cur table: 1882
epoch: 1000
next table: 1870
cur table: 1893
epoch: 1000
next table: 1511
cur table: 1536
epoch: 1000
next table: 1868
cur table: 1870
epoch: 1000
next table: 1598
cur table: 1511
epoch: 1000
next table: 1877
cur table: 1868
epoch: 1000
next table: 1939
cur table: 1877
epoch: 1000
next table: 1740
cur table: 1598
epoch: 1000
next table: 1998
cur table: 1939
epoch: 1000
next table: 1646
cur table: 1740
epoch: 1000
next table: 1961
cur table: 1998
epoch: 1000
next table: 1607
cur table: 1646
epoch: 1000
next table: 1902
cur table: 1961
epoch: 1000
next table: 1794
cur table: 1902
epoch: 1000
next table: 1608
cur table: 1607
epoch: 1000
next table: 2000
cur table: 1794
epoch: 1000
next table: 1690
cur table: 1608
epoch: 1000
next table: 1887
cur table: 2000
epoch: 1000
next table: 1972
cur table: 1887
epoch: 1000
next table: 1671
cur table: 1690
epoch: 1000
next table: 1899
cur table: 1972
epoch: 1000
next table: 1561
cur table: 1671
epoch: 1000
next table: 1839
cur table: 1899
epoch: 1000
next table: 1614
cur table: 1561
epoch: 1000
next table: 1940
cur table: 1839
epoch: 1000
next table: 1888
cur table: 1940
epoch: 1000
next table: 1633
cur table: 1614
epoch: 1000
next table: 1887
cur table: 1888
epoch: 1000
next table: 1598
cur table: 1633
epoch: 1000
next table: 2019
cur table: 1887
epoch: 1000
next table: 1657
cur table: 1598
epoch: 1000
next table: 1895
cur table: 2019
epoch: 1000
next table: 1853
cur table: 1895
epoch: 1000
next table: 1641
cur table: 1657
epoch: 1000
next table: 1979
cur table: 1853
epoch: 1000
next table: 1686
cur table: 1641
epoch: 1000
next table: 1953
cur table: 1979
epoch: 1000
next table: 1670
cur table: 1686
epoch: 1000
next table: 2120
cur table: 1953
epoch: 1000
next table: 1860
cur table: 2120
epoch: 1000
next table: 1569
cur table: 1670
epoch: 1000
next table: 1957
cur table: 1860
epoch: 1000
next table: 1667
cur table: 1569
epoch: 1000
next table: 1957
cur table: 1957
epoch: 1000
next table: 1927
cur table: 1957
epoch: 1000
next table: 1627
cur table: 1667
Heartbeat CPU 0 instructions: 20000003 cycles: 7830585 heartbeat IPC: 2.55055 cumulative IPC: 2.55409 (Simulation time: 0 hr 12 min 36 sec) 
epoch: 1000
next table: 1916
cur table: 1927
epoch: 1000
next table: 1607
cur table: 1627
epoch: 1000
next table: 1892
cur table: 1916
epoch: 1000
next table: 1588
cur table: 1607
epoch: 1000
next table: 1931
cur table: 1892
epoch: 1000
next table: 1910
cur table: 1931
epoch: 1000
next table: 1582
cur table: 1588
epoch: 1000
next table: 1821
cur table: 1910
epoch: 1000
next table: 1703
cur table: 1582
epoch: 1000
next table: 2048
cur table: 1821
epoch: 1000
next table: 1917
cur table: 2048
epoch: 1000
next table: 1629
cur table: 1703
epoch: 1000
next table: 2022
cur table: 1917
epoch: 1000
next table: 1644
cur table: 1629
epoch: 1000
next table: 1911
cur table: 2022
epoch: 1000
next table: 1561
cur table: 1644
epoch: 1000
next table: 1934
cur table: 1911
epoch: 1000
next table: 1728
cur table: 1561
epoch: 1000
next table: 1985
cur table: 1934
epoch: 1000
next table: 2046
cur table: 1985
epoch: 1000
next table: 1744
cur table: 1728
epoch: 1000
next table: 1886
cur table: 2046
epoch: 1000
next table: 1711
cur table: 1744
epoch: 1000
next table: 1959
cur table: 1886
epoch: 1000
next table: 1869
cur table: 1959
epoch: 1000
next table: 1569
cur table: 1711
epoch: 1000
next table: 1882
cur table: 1869
epoch: 1000
next table: 1644
cur table: 1569
epoch: 1000
next table: 1906
cur table: 1882
epoch: 1000
next table: 1931
cur table: 1906
epoch: 1000
next table: 1623
cur table: 1644
epoch: 1000
next table: 2115
cur table: 1931
epoch: 1000
next table: 1621
cur table: 1623
epoch: 1000
next table: 1914
cur table: 2115
epoch: 1000
next table: 1569
cur table: 1621
epoch: 1000
next table: 1889
cur table: 1914
epoch: 1000
next table: 1882
cur table: 1889
epoch: 1000
next table: 1590
cur table: 1569
epoch: 1000
next table: 1951
cur table: 1882
epoch: 1000
next table: 1633
cur table: 1590
epoch: 1000
next table: 1976
cur table: 1951
epoch: 1000
next table: 1980
cur table: 1976
epoch: 1000
next table: 1723
cur table: 1633
epoch: 1000
next table: 1914
cur table: 1980
epoch: 1000
next table: 1615
cur table: 1723
epoch: 1000
next table: 1860
cur table: 1914
epoch: 1000
next table: 1936
cur table: 1860
epoch: 1000
next table: 1601
cur table: 1615
epoch: 1000
next table: 2116
cur table: 1936
epoch: 1000
next table: 1616
cur table: 1601
epoch: 1000
next table: 1936
cur table: 2116
epoch: 1000
next table: 1536
cur table: 1616
epoch: 1000
next table: 1931
cur table: 1936
epoch: 1000
next table: 2018
cur table: 1931
epoch: 1000
next table: 1650
cur table: 1536
epoch: 1000
next table: 1951
cur table: 2018
epoch: 1000
next table: 1657
cur table: 1650
epoch: 1000
next table: 1980
cur table: 1951
epoch: 1000
next table: 1668
cur table: 1657
epoch: 1000
next table: 1928
cur table: 1980
epoch: 1000
next table: 1943
cur table: 1928
epoch: 1000
next table: 1744
cur table: 1668
epoch: 1000
next table: 1928
cur table: 1943
epoch: 1000
next table: 1698
cur table: 1744
epoch: 1000
next table: 1935
cur table: 1928
epoch: 1000
next table: 1690
cur table: 1698
epoch: 1000
next table: 2073
cur table: 1935
epoch: 1000
next table: 1982
cur table: 2073
epoch: 1000
next table: 1674
cur table: 1690
epoch: 1000
next table: 1886
cur table: 1982
epoch: 1000
next table: 1611
cur table: 1674
epoch: 1000
next table: 1903
cur table: 1886
epoch: 1000
next table: 2019
cur table: 1903
epoch: 1000
next table: 1731
cur table: 1611
epoch: 1000
next table: 1945
cur table: 2019
epoch: 1000
next table: 1619
cur table: 1731
epoch: 1000
next table: 1897
cur table: 1945
epoch: 1000
next table: 2174
cur table: 1897
epoch: 1000
next table: 1744
cur table: 1619
epoch: 1000
next table: 1958
cur table: 2174
epoch: 1000
next table: 1666
cur table: 1744
epoch: 1000
next table: 1925
cur table: 1958
epoch: 1000
next table: 1944
cur table: 1925
epoch: 1000
next table: 1634
cur table: 1666
epoch: 1000
next table: 1924
cur table: 1944
epoch: 1000
next table: 1757
cur table: 1634
epoch: 1000
next table: 2086
cur table: 1924
epoch: 1000
next table: 1677
cur table: 1757
epoch: 1000
next table: 1928
cur table: 2086
epoch: 1000
next table: 1910
cur table: 1928
epoch: 1000
next table: 1590
cur table: 1677
epoch: 1000
next table: 1960
cur table: 1910
epoch: 1000
next table: 1698
cur table: 1590
epoch: 1000
next table: 1958
cur table: 1960
epoch: 1000
next table: 1954
cur table: 1958
epoch: 1000
next table: 1692
cur table: 1698
epoch: 1000
next table: 1902
cur table: 1954
epoch: 1000
next table: 1541
cur table: 1692
epoch: 1000
next table: 1943
cur table: 1902
epoch: 1000
next table: 1957
cur table: 1943
epoch: 1000
next table: 1637
cur table: 1541
epoch: 1000
next table: 1886
cur table: 1957
epoch: 1000
next table: 1666
cur table: 1637
epoch: 1000
next table: 1918
cur table: 1886
epoch: 1000
next table: 1769
cur table: 1666
epoch: 1000
next table: 2117
cur table: 1918
epoch: 1000
next table: 1866
cur table: 2117
epoch: 1000
next table: 1569
cur table: 1769
epoch: 1000
next table: 1950
cur table: 1866
epoch: 1000
next table: 1676
cur table: 1569
epoch: 1000
next table: 1895
cur table: 1950
epoch: 1000
next table: 1629
cur table: 1676
epoch: 1000
next table: 1844
cur table: 1895
epoch: 1000
next table: 2212
cur table: 1844
epoch: 1000
next table: 1687
cur table: 1629
epoch: 1000
next table: 1966
cur table: 2212
epoch: 1000
next table: 1698
cur table: 1687
epoch: 1000
next table: 2032
cur table: 1966
epoch: 1000
next table: 1652
cur table: 1698
epoch: 1000
next table: 1940
cur table: 2032
epoch: 1000
next table: 1908
cur table: 1940
epoch: 1000
next table: 1709
cur table: 1652
epoch: 1000
next table: 1935
cur table: 1908
epoch: 1000
next table: 1652
cur table: 1709
epoch: 1000
next table: 1913
cur table: 1935
epoch: 1000
next table: 1917
cur table: 1913
epoch: 1000
next table: 1671
cur table: 1652
epoch: 1000
next table: 1932
cur table: 1917
epoch: 1000
next table: 1733
cur table: 1671
epoch: 1000
next table: 1979
cur table: 1932
epoch: 1000
next table: 2028
cur table: 1979
epoch: 1000
next table: 1753
cur table: 1733
epoch: 1000
next table: 1921
cur table: 2028
epoch: 1000
next table: 1569
cur table: 1753
epoch: 1000
next table: 1940
cur table: 1921
epoch: 1000
next table: 1719
cur table: 1569
epoch: 1000
next table: 2055
cur table: 1940
epoch: 1000
next table: 2015
cur table: 2055
epoch: 1000
next table: 1679
cur table: 1719
epoch: 1000
next table: 2011
cur table: 2015
epoch: 1000
next table: 1643
cur table: 1679
epoch: 1000
next table: 1940
cur table: 2011
epoch: 1000
next table: 1659
cur table: 1643
epoch: 1000
next table: 1943
cur table: 1940
epoch: 1000
next table: 2067
cur table: 1943
epoch: 1000
next table: 1649
cur table: 1659
epoch: 1000
next table: 1915
cur table: 2067
epoch: 1000
next table: 1638
cur table: 1649
epoch: 1000
next table: 1956
cur table: 1915
epoch: 1000
next table: 1652
cur table: 1638
epoch: 1000
next table: 1986
cur table: 1956
epoch: 1000
next table: 1924
cur table: 1986
epoch: 1000
next table: 1689
cur table: 1652
epoch: 1000
next table: 1868
cur table: 1924
epoch: 1000
next table: 1586
cur table: 1689
epoch: 1000
next table: 1906
cur table: 1868
epoch: 1000
next table: 1635
cur table: 1586
epoch: 1000
next table: 2048
cur table: 1906
epoch: 1000
next table: 1920
cur table: 2048
epoch: 1000
next table: 1707
cur table: 1635
epoch: 1000
next table: 1953
cur table: 1920
epoch: 1000
next table: 1681
cur table: 1707
epoch: 1000
next table: 1847
cur table: 1953
epoch: 1000
next table: 2069
cur table: 1847
epoch: 1000
next table: 1665
cur table: 1681
epoch: 1000
next table: 1888
cur table: 2069
epoch: 1000
next table: 1592
cur table: 1665
epoch: 1000
next table: 1898
cur table: 1888
epoch: 1000
next table: 1668
cur table: 1592
epoch: 1000
next table: 1913
cur table: 1898
epoch: 1000
next table: 1931
cur table: 1913
epoch: 1000
next table: 1554
cur table: 1668
epoch: 1000
next table: 1790
cur table: 1931
epoch: 1000
next table: 1603
cur table: 1554
epoch: 1000
next table: 1890
cur table: 1790
epoch: 1000
next table: 1627
cur table: 1603
epoch: 1000
next table: 2225
cur table: 1890
epoch: 1000
next table: 2158
cur table: 2225
epoch: 1000
next table: 1621
cur table: 1627
epoch: 1000
next table: 1934
cur table: 2158
epoch: 1000
next table: 1642
cur table: 1621
epoch: 1000
next table: 1863
cur table: 1934
epoch: 1000
next table: 1538
cur table: 1642
epoch: 1000
next table: 1859
cur table: 1863
epoch: 1000
next table: 1959
cur table: 1859
epoch: 1000
next table: 1686
cur table: 1538
epoch: 1000
next table: 1920
cur table: 1959
epoch: 1000
next table: 1645
cur table: 1686
epoch: 1000
next table: 1899
cur table: 1920
epoch: 1000
next table: 1681
cur table: 1645
epoch: 1000
next table: 2038
cur table: 1899
epoch: 1000
next table: 1928
cur table: 2038
epoch: 1000
next table: 1687
cur table: 1681
epoch: 1000
next table: 1823
cur table: 1928
epoch: 1000
next table: 1692
cur table: 1687
epoch: 1000
next table: 1961
cur table: 1823
epoch: 1000
next table: 2017
cur table: 1961
epoch: 1000
next table: 1740
cur table: 1692
epoch: 1000
next table: 1876
cur table: 2017
epoch: 1000
next table: 1622
cur table: 1740
epoch: 1000
next table: 1885
cur table: 1876
epoch: 1000
next table: 1920
cur table: 1885
epoch: 1000
next table: 1676
cur table: 1622
epoch: 1000
next table: 2088
cur table: 1920
epoch: 1000
next table: 1684
cur table: 1676
epoch: 1000
next table: 1873
cur table: 2088
epoch: 1000
next table: 1580
cur table: 1684
epoch: 1000
next table: 1812
cur table: 1873
epoch: 1000
next table: 1909
cur table: 1812
epoch: 1000
next table: 1657
cur table: 1580
epoch: 1000
next table: 2170
cur table: 1909
epoch: 1000
next table: 1713
cur table: 1657
epoch: 1000
next table: 1936
cur table: 2170
epoch: 1000
next table: 1651
cur table: 1713
epoch: 1000
next table: 1883
cur table: 1936
epoch: 1000
next table: 1947
cur table: 1883
epoch: 1000
next table: 1605
cur table: 1651
epoch: 1000
next table: 1875
cur table: 1947
epoch: 1000
next table: 1611
cur table: 1605
epoch: 1000
next table: 1970
cur table: 1875
epoch: 1000
next table: 1945
cur table: 1970
epoch: 1000
next table: 1632
cur table: 1611
epoch: 1000
next table: 1861
cur table: 1945
epoch: 1000
next table: 1653
cur table: 1632
epoch: 1000
next table: 2017
cur table: 1861
epoch: 1000
next table: 1664
cur table: 1653
epoch: 1000
next table: 1986
cur table: 2017
epoch: 1000
next table: 1857
cur table: 1986
epoch: 1000
next table: 1577
cur table: 1664
epoch: 1000
next table: 1927
cur table: 1857
epoch: 1000
next table: 1658
cur table: 1577
epoch: 1000
next table: 1909
cur table: 1927
epoch: 1000
next table: 1904
cur table: 1909
epoch: 1000
next table: 1623
cur table: 1658
epoch: 1000
next table: 1913
cur table: 1904
epoch: 1000
next table: 1681
cur table: 1623
epoch: 1000
next table: 1931
cur table: 1913
epoch: 1000
next table: 2018
cur table: 1931
epoch: 1000
next table: 1701
cur table: 1681
epoch: 1000
next table: 1924
cur table: 2018
epoch: 1000
next table: 1642
cur table: 1701
epoch: 1000
next table: 1980
cur table: 1924
epoch: 1000
next table: 1609
cur table: 1642
epoch: 1000
next table: 2001
cur table: 1980
epoch: 1000
next table: 1922
cur table: 2001
epoch: 1000
next table: 1627
cur table: 1609
epoch: 1000
next table: 1991
cur table: 1922
epoch: 1000
next table: 1658
cur table: 1627
epoch: 1000
next table: 1921
cur table: 1991
epoch: 1000
next table: 1623
cur table: 1658
epoch: 1000
next table: 1990
cur table: 1921
epoch: 1000
next table: 1895
cur table: 1990
epoch: 1000
next table: 1605
cur table: 1623
epoch: 1000
next table: 1893
cur table: 1895
epoch: 1000
next table: 1654
cur table: 1605
epoch: 1000
next table: 1915
cur table: 1893
epoch: 1000
next table: 1595
cur table: 1654
epoch: 1000
next table: 1844
cur table: 1915
epoch: 1000
next table: 1910
cur table: 1844
epoch: 1000
next table: 1669
cur table: 1595
epoch: 1000
next table: 1897
cur table: 1910
epoch: 1000
next table: 1640
cur table: 1669
epoch: 1000
next table: 1841
cur table: 1897
epoch: 1000
next table: 2060
cur table: 1841
epoch: 1000
next table: 1650
cur table: 1640
epoch: 1000
next table: 1909
cur table: 2060
epoch: 1000
next table: 1610
cur table: 1650
epoch: 1000
next table: 1867
cur table: 1909
epoch: 1000
next table: 1896
cur table: 1867
epoch: 1000
next table: 1660
cur table: 1610
epoch: 1000
next table: 1951
cur table: 1896
epoch: 1000
next table: 1583
cur table: 1660
epoch: 1000
next table: 1951
cur table: 1951
epoch: 1000
next table: 1619
cur table: 1583
epoch: 1000
next table: 1926
cur table: 1951
epoch: 1000
next table: 1893
cur table: 1926
epoch: 1000
next table: 1682
cur table: 1619
epoch: 1000
next table: 1945
cur table: 1893
epoch: 1000
next table: 1650
cur table: 1682
epoch: 1000
next table: 2058
cur table: 1945
epoch: 1000
next table: 1978
cur table: 2058
epoch: 1000
next table: 1614
cur table: 1650
epoch: 1000
next table: 1948
cur table: 1978
epoch: 1000
next table: 1608
cur table: 1614
epoch: 1000
next table: 1947
cur table: 1948
epoch: 1000
next table: 1636
cur table: 1608
epoch: 1000
next table: 1931
cur table: 1947
epoch: 1000
next table: 1950
cur table: 1931
epoch: 1000
next table: 1630
cur table: 1636
epoch: 1000
next table: 1923
cur table: 1950
epoch: 1000
next table: 1671
cur table: 1630
epoch: 1000
next table: 1935
cur table: 1923
epoch: 1000
next table: 1977
cur table: 1935
epoch: 1000
next table: 1654
cur table: 1671
epoch: 1000
next table: 1940
cur table: 1977
epoch: 1000
next table: 1612
cur table: 1654
epoch: 1000
next table: 1886
cur table: 1940
epoch: 1000
next table: 1608
cur table: 1612
epoch: 1000
next table: 1940
cur table: 1886
epoch: 1000
next table: 2067
cur table: 1940
epoch: 1000
next table: 1700
cur table: 1608
epoch: 1000
next table: 1950
cur table: 2067
epoch: 1000
next table: 1594
cur table: 1700
epoch: 1000
next table: 1834
cur table: 1950
epoch: 1000
next table: 1851
cur table: 1834
epoch: 1000
next table: 1681
cur table: 1594
epoch: 1000
next table: 1930
cur table: 1851
epoch: 1000
next table: 1642
cur table: 1681
epoch: 1000
next table: 1955
cur table: 1930
epoch: 1000
next table: 1878
cur table: 1955
epoch: 1000
next table: 1577
cur table: 1642
epoch: 1000
next table: 1986
cur table: 1878
epoch: 1000
next table: 1657
cur table: 1577
epoch: 1000
next table: 1880
cur table: 1986
epoch: 1000
next table: 1949
cur table: 1880
epoch: 1000
next table: 1662
cur table: 1657
epoch: 1000
next table: 1880
cur table: 1949
epoch: 1000
next table: 1741
cur table: 1662
epoch: 1000
next table: 2096
cur table: 1880
epoch: 1000
next table: 1610
cur table: 1741
epoch: 1000
next table: 1973
cur table: 2096
epoch: 1000
next table: 1926
cur table: 1973
epoch: 1000
next table: 1556
cur table: 1610
epoch: 1000
next table: 1915
cur table: 1926
epoch: 1000
next table: 1673
cur table: 1556
epoch: 1000
next table: 2024
cur table: 1915
epoch: 1000
next table: 1976
cur table: 2024
epoch: 1000
next table: 1635
cur table: 1673
epoch: 1000
next table: 1968
cur table: 1976
epoch: 1000
next table: 1589
cur table: 1635
epoch: 1000
next table: 1874
cur table: 1968
epoch: 1000
next table: 1641
cur table: 1589
epoch: 1000
next table: 1956
cur table: 1874
epoch: 1000
next table: 1853
cur table: 1956
epoch: 1000
next table: 1570
cur table: 1641
epoch: 1000
next table: 1876
cur table: 1853
epoch: 1000
next table: 1675
cur table: 1570
epoch: 1000
next table: 2017
cur table: 1876
epoch: 1000
next table: 1670
cur table: 1675
epoch: 1000
next table: 1849
cur table: 2017
epoch: 1000
next table: 1859
cur table: 1849
epoch: 1000
next table: 1684
cur table: 1670
epoch: 1000
next table: 2037
cur table: 1859
epoch: 1000
next table: 1702
cur table: 1684
epoch: 1000
next table: 2116
cur table: 2037
epoch: 1000
next table: 1651
cur table: 1702
epoch: 1000
next table: 1935
cur table: 2116
epoch: 1000
next table: 1883
cur table: 1935
epoch: 1000
next table: 1628
cur table: 1651
epoch: 1000
next table: 1818
cur table: 1883
epoch: 1000
next table: 1601
cur table: 1628
epoch: 1000
next table: 1959
cur table: 1818
epoch: 1000
next table: 2107
cur table: 1959
epoch: 1000
next table: 1651
cur table: 1601
epoch: 1000
next table: 1858
cur table: 2107
epoch: 1000
next table: 1640
cur table: 1651
epoch: 1000
next table: 1962
cur table: 1858
epoch: 1000
next table: 1942
cur table: 1962
epoch: 1000
next table: 1683
cur table: 1640
epoch: 1000
next table: 1888
cur table: 1942
epoch: 1000
next table: 1587
cur table: 1683
epoch: 1000
next table: 1944
cur table: 1888
epoch: 1000
next table: 1538
cur table: 1587
epoch: 1000
next table: 1762
cur table: 1944
epoch: 1000
next table: 2109
cur table: 1762
epoch: 1000
next table: 1629
cur table: 1538
epoch: 1000
next table: 1911
cur table: 2109
epoch: 1000
next table: 1623
cur table: 1629
epoch: 1000
next table: 1907
cur table: 1911
epoch: 1000
next table: 1922
cur table: 1907
epoch: 1000
next table: 1656
cur table: 1623
epoch: 1000
next table: 1916
cur table: 1922
epoch: 1000
next table: 1625
cur table: 1656
epoch: 1000
next table: 1950
cur table: 1916
epoch: 1000
next table: 1963
cur table: 1950
epoch: 1000
next table: 1714
cur table: 1625
epoch: 1000
next table: 1930
cur table: 1963
epoch: 1000
next table: 1651
cur table: 1714
epoch: 1000
next table: 1928
cur table: 1930
epoch: 1000
next table: 1660
cur table: 1651
epoch: 1000
next table: 2001
cur table: 1928
epoch: 1000
next table: 1921
cur table: 2001
epoch: 1000
next table: 1638
cur table: 1660
epoch: 1000
next table: 1935
cur table: 1921
epoch: 1000
next table: 1566
cur table: 1638
epoch: 1000
next table: 1931
cur table: 1935
epoch: 1000
next table: 1956
cur table: 1931
epoch: 1000
next table: 1785
cur table: 1566
epoch: 1000
next table: 1907
cur table: 1956
epoch: 1000
next table: 1670
cur table: 1785
epoch: 1000
next table: 1951
cur table: 1907
epoch: 1000
next table: 1937
cur table: 1951
epoch: 1000
next table: 1528
cur table: 1670
epoch: 1000
next table: 1964
cur table: 1937
epoch: 1000
next table: 1631
cur table: 1528
epoch: 1000
next table: 1942
cur table: 1964
epoch: 1000
next table: 1790
cur table: 1631
epoch: 1000
next table: 2003
cur table: 1942
epoch: 1000
next table: 2134
cur table: 2003
epoch: 1000
next table: 1731
cur table: 1790
epoch: 1000
next table: 1902
cur table: 2134
epoch: 1000
next table: 1680
cur table: 1731
epoch: 1000
next table: 1972
cur table: 1902
epoch: 1000
next table: 1925
cur table: 1972
epoch: 1000
next table: 1714
cur table: 1680
epoch: 1000
next table: 1976
cur table: 1925
epoch: 1000
next table: 1700
cur table: 1714
epoch: 1000
next table: 1941
cur table: 1976
epoch: 1000
next table: 1878
cur table: 1941
epoch: 1000
next table: 1585
cur table: 1700
epoch: 1000
next table: 1903
cur table: 1878
epoch: 1000
next table: 1581
cur table: 1585
epoch: 1000
next table: 1901
cur table: 1903
epoch: 1000
next table: 1622
cur table: 1581
epoch: 1000
next table: 1961
cur table: 1901
epoch: 1000
next table: 1938
cur table: 1961
epoch: 1000
next table: 1562
cur table: 1622
epoch: 1000
next table: 1880
cur table: 1938
epoch: 1000
next table: 1609
cur table: 1562
epoch: 1000
next table: 1955
cur table: 1880
epoch: 1000
next table: 1910
cur table: 1955
epoch: 1000
next table: 1707
cur table: 1609
epoch: 1000
next table: 1960
cur table: 1910
epoch: 1000
next table: 1559
cur table: 1707
epoch: 1000
next table: 1901
cur table: 1960
epoch: 1000
next table: 1625
cur table: 1559
epoch: 1000
next table: 1937
cur table: 1901
epoch: 1000
next table: 2031
cur table: 1937
epoch: 1000
next table: 1656
cur table: 1625
epoch: 1000
next table: 1918
cur table: 2031
epoch: 1000
next table: 1768
cur table: 1656
epoch: 1000
next table: 2032
cur table: 1918
epoch: 1000
next table: 1874
cur table: 2032
epoch: 1000
next table: 1644
cur table: 1768
epoch: 1000
next table: 1936
cur table: 1874
epoch: 1000
next table: 1645
cur table: 1644
epoch: 1000
next table: 2099
cur table: 1936
epoch: 1000
next table: 1735
cur table: 1645
epoch: 1000
next table: 2005
cur table: 2099
epoch: 1000
next table: 1992
cur table: 2005
epoch: 1000
next table: 1759
cur table: 1735
epoch: 1000
next table: 1900
cur table: 1992
epoch: 1000
next table: 1731
cur table: 1759
epoch: 1000
next table: 1950
cur table: 1900
epoch: 1000
next table: 1969
cur table: 1950
epoch: 1000
next table: 1748
cur table: 1731
epoch: 1000
next table: 2034
cur table: 1969
epoch: 1000
next table: 1808
cur table: 1748
epoch: 1000
next table: 1906
cur table: 2034
epoch: 1000
next table: 2085
cur table: 1906
epoch: 1000
next table: 1770
cur table: 1808
epoch: 1000
next table: 1876
cur table: 2085
epoch: 1000
next table: 1656
cur table: 1770
epoch: 1000
next table: 1972
cur table: 1876
epoch: 1000
next table: 1998
cur table: 1972
epoch: 1000
next table: 1680
cur table: 1656
epoch: 1000
next table: 2126
cur table: 1998
epoch: 1000
next table: 1702
cur table: 1680
epoch: 1000
next table: 2008
cur table: 2126
epoch: 1000
next table: 1678
cur table: 1702
epoch: 1000
next table: 1920
cur table: 2008
epoch: 1000
next table: 2080
cur table: 1920
epoch: 1000
next table: 1697
cur table: 1678
epoch: 1000
next table: 1967
cur table: 2080
Heartbeat CPU 0 instructions: 30000000 cycles: 11756145 heartbeat IPC: 2.54741 cumulative IPC: 2.55186 (Simulation time: 0 hr 18 min 41 sec) 
epoch: 1000
next table: 1630
cur table: 1697
epoch: 1000
next table: 1863
cur table: 1967
epoch: 1000
next table: 1929
cur table: 1863
epoch: 1000
next table: 1733
cur table: 1630
epoch: 1000
next table: 2133
cur table: 1929
epoch: 1000
next table: 1649
cur table: 1733
epoch: 1000
next table: 1864
cur table: 2133
epoch: 1000
next table: 1648
cur table: 1649
epoch: 1000
next table: 1992
cur table: 1864
epoch: 1000
next table: 1924
cur table: 1992
epoch: 1000
next table: 1684
cur table: 1648
epoch: 1000
next table: 1994
cur table: 1924
epoch: 1000
next table: 1645
cur table: 1684
epoch: 1000
next table: 1926
cur table: 1994
epoch: 1000
next table: 2040
cur table: 1926
epoch: 1000
next table: 1661
cur table: 1645
epoch: 1000
next table: 1924
cur table: 2040
epoch: 1000
next table: 1603
cur table: 1661
epoch: 1000
next table: 1882
cur table: 1924
epoch: 1000
next table: 1693
cur table: 1603
epoch: 1000
next table: 2018
cur table: 1882
epoch: 1000
next table: 1844
cur table: 2018
epoch: 1000
next table: 1594
cur table: 1693
epoch: 1000
next table: 1957
cur table: 1844
epoch: 1000
next table: 1584
cur table: 1594
epoch: 1000
next table: 2192
cur table: 1957
epoch: 1000
next table: 1664
cur table: 1584
epoch: 1000
next table: 1942
cur table: 2192
epoch: 1000
next table: 1919
cur table: 1942
epoch: 1000
next table: 1607
cur table: 1664
epoch: 1000
next table: 1904
cur table: 1919
epoch: 1000
next table: 1658
cur table: 1607
epoch: 1000
next table: 1958
cur table: 1904
epoch: 1000
next table: 1932
cur table: 1958
epoch: 1000
next table: 1639
cur table: 1658
epoch: 1000
next table: 1944
cur table: 1932
epoch: 1000
next table: 1688
cur table: 1639
epoch: 1000
next table: 1879
cur table: 1944
epoch: 1000
next table: 1980
cur table: 1879
epoch: 1000
next table: 1586
cur table: 1688
epoch: 1000
next table: 1913
cur table: 1980
epoch: 1000
next table: 1498
cur table: 1586
epoch: 1000
next table: 1908
cur table: 1913
epoch: 1000
next table: 1692
cur table: 1498
epoch: 1000
next table: 2005
cur table: 1908
epoch: 1000
next table: 1954
cur table: 2005
epoch: 1000
next table: 1665
cur table: 1692
epoch: 1000
next table: 2000
cur table: 1954
epoch: 1000
next table: 1685
cur table: 1665
epoch: 1000
next table: 1929
cur table: 2000
epoch: 1000
next table: 1900
cur table: 1929
epoch: 1000
next table: 1684
cur table: 1685
epoch: 1000
next table: 1980
cur table: 1900
epoch: 1000
next table: 1743
cur table: 1684
epoch: 1000
next table: 1920
cur table: 1980
epoch: 1000
next table: 1780
cur table: 1920
epoch: 1000
next table: 1879
cur table: 1743
epoch: 1000
next table: 1782
cur table: 1780
epoch: 1000
next table: 1905
cur table: 1879
epoch: 1000
next table: 1742
cur table: 1782
epoch: 1000
next table: 1817
cur table: 1905
epoch: 1000
next table: 1785
cur table: 1742
epoch: 1000
next table: 1837
cur table: 1785
epoch: 1000
next table: 1958
cur table: 1817
epoch: 1000
next table: 1921
cur table: 1837
epoch: 1000
next table: 2198
cur table: 1921
epoch: 1000
next table: 2147
cur table: 1958
epoch: 1000
next table: 1933
cur table: 2198
epoch: 1000
next table: 1812
cur table: 2147
epoch: 1000
next table: 1852
cur table: 1933
epoch: 1000
next table: 1969
cur table: 1852
epoch: 1000
next table: 1658
cur table: 1812
epoch: 1000
next table: 1935
cur table: 1969
epoch: 1000
next table: 1587
cur table: 1658
epoch: 1000
next table: 1838
cur table: 1935
epoch: 1000
next table: 1849
cur table: 1838
epoch: 1000
next table: 1557
cur table: 1587
epoch: 1000
next table: 1903
cur table: 1849
epoch: 1000
next table: 1686
cur table: 1557
epoch: 1000
next table: 1910
cur table: 1903
epoch: 1000
next table: 1748
cur table: 1686
epoch: 1000
next table: 1909
cur table: 1910
epoch: 1000
next table: 1911
cur table: 1909
epoch: 1000
next table: 1591
cur table: 1748
epoch: 1000
next table: 1928
cur table: 1911
epoch: 1000
next table: 1556
cur table: 1591
epoch: 1000
next table: 1879
cur table: 1928
epoch: 1000
next table: 1819
cur table: 1879
epoch: 1000
next table: 1651
cur table: 1556
epoch: 1000
next table: 2059
cur table: 1819
epoch: 1000
next table: 1645
cur table: 1651
epoch: 1000
next table: 2003
cur table: 2059
epoch: 1000
next table: 1595
cur table: 1645
epoch: 1000
next table: 1886
cur table: 2003
epoch: 1000
next table: 1925
cur table: 1886
epoch: 1000
next table: 1583
cur table: 1595
epoch: 1000
next table: 1871
cur table: 1925
epoch: 1000
next table: 1623
cur table: 1583
epoch: 1000
next table: 1891
cur table: 1871
epoch: 1000
next table: 1581
cur table: 1623
epoch: 1000
next table: 1878
cur table: 1891
epoch: 1000
next table: 1897
cur table: 1878
epoch: 1000
next table: 1668
cur table: 1581
epoch: 1000
next table: 1945
cur table: 1897
epoch: 1000
next table: 1689
cur table: 1668
epoch: 1000
next table: 1918
cur table: 1945
epoch: 1000
next table: 1882
cur table: 1918
epoch: 1000
next table: 1760
cur table: 1689
epoch: 1000
next table: 1992
cur table: 1882
epoch: 1000
next table: 1670
cur table: 1760
epoch: 1000
next table: 1968
cur table: 1992
epoch: 1000
next table: 1867
cur table: 1968
epoch: 1000
next table: 1570
cur table: 1670
epoch: 1000
next table: 1908
cur table: 1867
epoch: 1000
next table: 1551
cur table: 1570
epoch: 1000
next table: 1896
cur table: 1908
epoch: 1000
next table: 1845
cur table: 1896
epoch: 1000
next table: 1617
cur table: 1551
epoch: 1000
next table: 1939
cur table: 1845
epoch: 1000
next table: 1601
cur table: 1617
epoch: 1000
next table: 1903
cur table: 1939
epoch: 1000
next table: 1605
cur table: 1601
epoch: 1000
next table: 1888
cur table: 1903
epoch: 1000
next table: 2028
cur table: 1888
epoch: 1000
next table: 1747
cur table: 1605
epoch: 1000
next table: 1909
cur table: 2028
epoch: 1000
next table: 1657
cur table: 1747
epoch: 1000
next table: 1969
cur table: 1909
epoch: 1000
next table: 1906
cur table: 1969
epoch: 1000
next table: 1658
cur table: 1657
epoch: 1000
next table: 1825
cur table: 1906
epoch: 1000
next table: 1702
cur table: 1658
epoch: 1000
next table: 2050
cur table: 1825
epoch: 1000
next table: 1603
cur table: 1702
epoch: 1000
next table: 1884
cur table: 2050
epoch: 1000
next table: 1900
cur table: 1884
epoch: 1000
next table: 1728
cur table: 1603
epoch: 1000
next table: 1943
cur table: 1900
epoch: 1000
next table: 1533
cur table: 1728
epoch: 1000
next table: 1902
cur table: 1943
epoch: 1000
next table: 1951
cur table: 1902
epoch: 1000
next table: 1633
cur table: 1533
epoch: 1000
next table: 1954
cur table: 1951
epoch: 1000
next table: 1657
cur table: 1633
epoch: 1000
next table: 1960
cur table: 1954
epoch: 1000
next table: 1944
cur table: 1960
epoch: 1000
next table: 1697
cur table: 1657
epoch: 1000
next table: 1889
cur table: 1944
epoch: 1000
next table: 1770
cur table: 1697
epoch: 1000
next table: 2049
cur table: 1889
epoch: 1000
next table: 1924
cur table: 2049
epoch: 1000
next table: 1611
cur table: 1770
epoch: 1000
next table: 2016
cur table: 1924
epoch: 1000
next table: 1584
cur table: 1611
epoch: 1000
next table: 1991
cur table: 2016
epoch: 1000
next table: 1736
cur table: 1584
epoch: 1000
next table: 1944
cur table: 1991
epoch: 1000
next table: 1962
cur table: 1944
epoch: 1000
next table: 1682
cur table: 1736
epoch: 1000
next table: 1877
cur table: 1962
epoch: 1000
next table: 1558
cur table: 1682
epoch: 1000
next table: 1869
cur table: 1877
epoch: 1000
next table: 1887
cur table: 1869
epoch: 1000
next table: 1656
cur table: 1558
epoch: 1000
next table: 1981
cur table: 1887
epoch: 1000
next table: 1755
cur table: 1656
epoch: 1000
next table: 1891
cur table: 1981
epoch: 1000
next table: 2237
cur table: 1891
epoch: 1000
next table: 1690
cur table: 1755
epoch: 1000
next table: 1945
cur table: 2237
epoch: 1000
next table: 1715
cur table: 1690
epoch: 1000
next table: 1947
cur table: 1945
epoch: 1000
next table: 1628
cur table: 1715
epoch: 1000
next table: 1864
cur table: 1947
epoch: 1000
next table: 1872
cur table: 1864
epoch: 1000
next table: 1624
cur table: 1628
epoch: 1000
next table: 1823
cur table: 1872
epoch: 1000
next table: 1785
cur table: 1624
epoch: 1000
next table: 2288
cur table: 1823
epoch: 1000
next table: 1930
cur table: 2288
epoch: 1000
next table: 1576
cur table: 1785
epoch: 1000
next table: 2017
cur table: 1930
epoch: 1000
next table: 1700
cur table: 1576
epoch: 1000
next table: 1854
cur table: 2017
epoch: 1000
next table: 1591
cur table: 1700
epoch: 1000
next table: 1839
cur table: 1854
epoch: 1000
next table: 1905
cur table: 1839
epoch: 1000
next table: 1614
cur table: 1591
epoch: 1000
next table: 1872
cur table: 1905
epoch: 1000
next table: 1669
cur table: 1614
epoch: 1000
next table: 2153
cur table: 1872
epoch: 1000
next table: 1947
cur table: 2153
epoch: 1000
next table: 1625
cur table: 1669
epoch: 1000
next table: 1910
cur table: 1947
epoch: 1000
next table: 1678
cur table: 1625
epoch: 1000
next table: 1935
cur table: 1910
epoch: 1000
next table: 2156
cur table: 1935
epoch: 1000
next table: 1679
cur table: 1678
epoch: 1000
next table: 1923
cur table: 2156
epoch: 1000
next table: 1662
cur table: 1679
epoch: 1000
next table: 1877
cur table: 1923
epoch: 1000
next table: 1552
cur table: 1662
epoch: 1000
next table: 1862
cur table: 1877
epoch: 1000
next table: 2166
cur table: 1862
epoch: 1000
next table: 1666
cur table: 1552
epoch: 1000
next table: 1868
cur table: 2166
epoch: 1000
next table: 1685
cur table: 1666
epoch: 1000
next table: 1926
cur table: 1868
epoch: 1000
next table: 1648
cur table: 1685
epoch: 1000
next table: 1988
cur table: 1926
epoch: 1000
next table: 1835
cur table: 1988
epoch: 1000
next table: 1567
cur table: 1648
epoch: 1000
next table: 1977
cur table: 1835
epoch: 1000
next table: 1835
cur table: 1567
epoch: 1000
next table: 1896
cur table: 1977
epoch: 1000
next table: 1918
cur table: 1896
epoch: 1000
next table: 1584
cur table: 1835
epoch: 1000
next table: 1905
cur table: 1918
epoch: 1000
next table: 1627
cur table: 1584
epoch: 1000
next table: 1941
cur table: 1905
epoch: 1000
next table: 2049
cur table: 1941
epoch: 1000
next table: 1735
cur table: 1627
epoch: 1000
next table: 1964
cur table: 2049
epoch: 1000
next table: 1580
cur table: 1735
epoch: 1000
next table: 1897
cur table: 1964
epoch: 1000
next table: 1902
cur table: 1897
epoch: 1000
next table: 1680
cur table: 1580
epoch: 1000
next table: 2057
cur table: 1902
epoch: 1000
next table: 1699
cur table: 1680
epoch: 1000
next table: 1916
cur table: 2057
epoch: 1000
next table: 1858
cur table: 1916
epoch: 1000
next table: 1639
cur table: 1699
epoch: 1000
next table: 1864
cur table: 1858
epoch: 1000
next table: 1566
cur table: 1639
epoch: 1000
next table: 1884
cur table: 1864
epoch: 1000
next table: 1647
cur table: 1566
epoch: 1000
next table: 1798
cur table: 1884
epoch: 1000
next table: 2299
cur table: 1798
epoch: 1000
next table: 1682
cur table: 1647
epoch: 1000
next table: 1871
cur table: 2299
epoch: 1000
next table: 1622
cur table: 1682
epoch: 1000
next table: 1974
cur table: 1871
epoch: 1000
next table: 1981
cur table: 1974
epoch: 1000
next table: 1700
cur table: 1622
epoch: 1000
next table: 1964
cur table: 1981
epoch: 1000
next table: 1631
cur table: 1700
epoch: 1000
next table: 1911
cur table: 1964
epoch: 1000
next table: 2006
cur table: 1911
epoch: 1000
next table: 1658
cur table: 1631
epoch: 1000
next table: 1890
cur table: 2006
epoch: 1000
next table: 1604
cur table: 1658
epoch: 1000
next table: 1945
cur table: 1890
epoch: 1000
next table: 1949
cur table: 1945
epoch: 1000
next table: 1592
cur table: 1604
epoch: 1000
next table: 1939
cur table: 1949
epoch: 1000
next table: 1603
cur table: 1592
epoch: 1000
next table: 2026
cur table: 1939
epoch: 1000
next table: 1668
cur table: 1603
epoch: 1000
next table: 1881
cur table: 2026
epoch: 1000
next table: 1842
cur table: 1881
epoch: 1000
next table: 1564
cur table: 1668
epoch: 1000
next table: 1875
cur table: 1842
epoch: 1000
next table: 1603
cur table: 1564
epoch: 1000
next table: 1916
cur table: 1875
epoch: 1000
next table: 1945
cur table: 1916
epoch: 1000
next table: 1615
cur table: 1603
epoch: 1000
next table: 1759
cur table: 1945
epoch: 1000
next table: 1644
cur table: 1615
epoch: 1000
next table: 2335
cur table: 1759
epoch: 1000
next table: 1626
cur table: 1644
epoch: 1000
next table: 1972
cur table: 2335
epoch: 1000
next table: 1912
cur table: 1972
epoch: 1000
next table: 1617
cur table: 1626
epoch: 1000
next table: 1898
cur table: 1912
epoch: 1000
next table: 1674
cur table: 1617
epoch: 1000
next table: 2012
cur table: 1898
epoch: 1000
next table: 1861
cur table: 2012
epoch: 1000
next table: 1749
cur table: 1674
epoch: 1000
next table: 1914
cur table: 1861
epoch: 1000
next table: 1735
cur table: 1749
epoch: 1000
next table: 1895
cur table: 1914
epoch: 1000
next table: 1770
cur table: 1735
epoch: 1000
next table: 1887
cur table: 1895
epoch: 1000
next table: 2027
cur table: 1887
epoch: 1000
next table: 1660
cur table: 1770
epoch: 1000
next table: 1868
cur table: 2027
epoch: 1000
next table: 1688
cur table: 1660
epoch: 1000
next table: 1925
cur table: 1868
epoch: 1000
next table: 1928
cur table: 1925
epoch: 1000
next table: 1653
cur table: 1688
epoch: 1000
next table: 2101
cur table: 1928
epoch: 1000
next table: 1800
cur table: 1653
epoch: 1000
next table: 1968
cur table: 2101
epoch: 1000
next table: 1869
cur table: 1968
epoch: 1000
next table: 1748
cur table: 1800
epoch: 1000
next table: 1901
cur table: 1869
epoch: 1000
next table: 1654
cur table: 1748
epoch: 1000
next table: 1908
cur table: 1901
epoch: 1000
next table: 1749
cur table: 1654
epoch: 1000
next table: 1910
cur table: 1908
epoch: 1000
next table: 1992
cur table: 1910
epoch: 1000
next table: 1574
cur table: 1749
epoch: 1000
next table: 1923
cur table: 1992
epoch: 1000
next table: 1779
cur table: 1574
epoch: 1000
next table: 1882
cur table: 1923
epoch: 1000
next table: 1819
cur table: 1882
epoch: 1000
next table: 1595
cur table: 1779
epoch: 1000
next table: 1995
cur table: 1819
epoch: 1000
next table: 1731
cur table: 1595
epoch: 1000
next table: 1905
cur table: 1995
epoch: 1000
next table: 1929
cur table: 1905
epoch: 1000
next table: 1660
cur table: 1731
epoch: 1000
next table: 1924
cur table: 1929
epoch: 1000
next table: 1629
cur table: 1660
epoch: 1000
next table: 1936
cur table: 1924
epoch: 1000
next table: 1895
cur table: 1936
epoch: 1000
next table: 1627
cur table: 1629
epoch: 1000
next table: 2037
cur table: 1895
epoch: 1000
next table: 1765
cur table: 1627
epoch: 1000
next table: 1889
cur table: 2037
epoch: 1000
next table: 1973
cur table: 1889
epoch: 1000
next table: 1691
cur table: 1765
epoch: 1000
next table: 1941
cur table: 1973
epoch: 1000
next table: 1661
cur table: 1691
epoch: 1000
next table: 1942
cur table: 1941
epoch: 1000
next table: 1697
cur table: 1661
epoch: 1000
next table: 1957
cur table: 1942
epoch: 1000
next table: 1905
cur table: 1957
epoch: 1000
next table: 1670
cur table: 1697
epoch: 1000
next table: 1940
cur table: 1905
epoch: 1000
next table: 1573
cur table: 1670
epoch: 1000
next table: 1878
cur table: 1940
epoch: 1000
next table: 1963
cur table: 1878
epoch: 1000
next table: 1659
cur table: 1573
epoch: 1000
next table: 1973
cur table: 1963
epoch: 1000
next table: 1645
cur table: 1659
epoch: 1000
next table: 1941
cur table: 1973
epoch: 1000
next table: 1653
cur table: 1645
epoch: 1000
next table: 1919
cur table: 1941
epoch: 1000
next table: 1982
cur table: 1919
epoch: 1000
next table: 1739
cur table: 1653
epoch: 1000
next table: 2093
cur table: 1982
epoch: 1000
next table: 1636
cur table: 1739
epoch: 1000
next table: 1831
cur table: 2093
epoch: 1000
next table: 1668
cur table: 1636
epoch: 1000
next table: 1906
cur table: 1831
epoch: 1000
next table: 2252
cur table: 1906
epoch: 1000
next table: 1627
cur table: 1668
epoch: 1000
next table: 1933
cur table: 2252
epoch: 1000
next table: 1665
cur table: 1627
epoch: 1000
next table: 1842
cur table: 1933
epoch: 1000
next table: 1700
cur table: 1665
epoch: 1000
next table: 1991
cur table: 1842
epoch: 1000
next table: 1961
cur table: 1991
epoch: 1000
next table: 1671
cur table: 1700
epoch: 1000
next table: 1881
cur table: 1961
epoch: 1000
next table: 1745
cur table: 1671
epoch: 1000
next table: 2113
cur table: 1881
epoch: 1000
next table: 1890
cur table: 2113
epoch: 1000
next table: 1647
cur table: 1745
epoch: 1000
next table: 1886
cur table: 1890
epoch: 1000
next table: 1627
cur table: 1647
epoch: 1000
next table: 1925
cur table: 1886
epoch: 1000
next table: 1879
cur table: 1925
epoch: 1000
next table: 1634
cur table: 1627
epoch: 1000
next table: 1959
cur table: 1879
epoch: 1000
next table: 1663
cur table: 1634
epoch: 1000
next table: 1927
cur table: 1959
epoch: 1000
next table: 1911
cur table: 1927
epoch: 1000
next table: 1635
cur table: 1663
epoch: 1000
next table: 1859
cur table: 1911
epoch: 1000
next table: 1643
cur table: 1635
epoch: 1000
next table: 1934
cur table: 1859
epoch: 1000
next table: 1719
cur table: 1643
epoch: 1000
next table: 2120
cur table: 1934
epoch: 1000
next table: 1881
cur table: 2120
epoch: 1000
next table: 1692
cur table: 1719
epoch: 1000
next table: 1978
cur table: 1881
epoch: 1000
next table: 1730
cur table: 1692
epoch: 1000
next table: 1903
cur table: 1978
epoch: 1000
next table: 1711
cur table: 1730
epoch: 1000
next table: 2130
cur table: 1903
epoch: 1000
next table: 1903
cur table: 2130
epoch: 1000
next table: 1633
cur table: 1711
epoch: 1000
next table: 2000
cur table: 1903
epoch: 1000
next table: 1735
cur table: 1633
epoch: 1000
next table: 1939
cur table: 2000
epoch: 1000
[...]
epoch: 1000
next table: 1962
cur table: 1886
epoch: 1000
next table: 1897
cur table: 1962
epoch: 1000
next table: 1621
cur table: 1684
epoch: 1000
next table: 1895
cur table: 1897
epoch: 1000
next table: 1668
cur table: 1621
epoch: 1000
next table: 2110
cur table: 1895
epoch: 1000
next table: 1686
cur table: 1668
epoch: 1000
next table: 2019
cur table: 2110
epoch: 1000
next table: 1840
cur table: 2019
epoch: 1000
next table: 1634
cur table: 1686
epoch: 1000
next table: 1989
cur table: 1840
epoch: 1000
next table: 1750
cur table: 1634
epoch: 1000
next table: 1978
cur table: 1989
epoch: 1000
next table: 1910
cur table: 1978
epoch: 1000
next table: 1668
cur table: 1750
epoch: 1000
next table: 1827
cur table: 1910
epoch: 1000
next table: 1626
cur table: 1668
epoch: 1000
next table: 1944
cur table: 1827
epoch: 1000
next table: 2015
cur table: 1944
epoch: 1000
next table: 1754
cur table: 1626
epoch: 1000
next table: 1912
cur table: 2015
epoch: 1000
next table: 1689
cur table: 1754
epoch: 1000
next table: 1931
cur table: 1912
epoch: 1000
next table: 1913
cur table: 1931
epoch: 1000
next table: 1608
cur table: 1689
epoch: 1000
next table: 1987
cur table: 1913
epoch: 1000
next table: 1679
cur table: 1608
epoch: 1000
next table: 1935
cur table: 1987
epoch: 1000
next table: 1913
cur table: 1935
epoch: 1000
next table: 1638
cur table: 1679
epoch: 1000
next table: 1938
cur table: 1913
epoch: 1000
next table: 1606
cur table: 1638
epoch: 1000
next table: 1889
cur table: 1938
epoch: 1000
next table: 1588
cur table: 1606
epoch: 1000
next table: 1973
cur table: 1889
epoch: 1000
next table: 1906
cur table: 1973
epoch: 1000
next table: 1697
cur table: 1588
epoch: 1000
next table: 2036
cur table: 1906
epoch: 1000
next table: 1689
cur table: 1697
epoch: 1000
next table: 1941
cur table: 2036
epoch: 1000
next table: 1614
cur table: 1689
epoch: 1000
next table: 2014
cur table: 1941
epoch: 1000
next table: 2007
cur table: 2014
epoch: 1000
next table: 1695
cur table: 1614
epoch: 1000
next table: 1924
cur table: 2007
epoch: 1000
next table: 1657
cur table: 1695
epoch: 1000
next table: 1943
cur table: 1924
epoch: 1000
next table: 1620
cur table: 1657
epoch: 1000
next table: 1921
cur table: 1943
epoch: 1000
next table: 2072
cur table: 1921
epoch: 1000
next table: 1717
cur table: 1620
epoch: 1000
next table: 1918
cur table: 2072
epoch: 1000
next table: 1581
cur table: 1717
epoch: 1000
next table: 1917
cur table: 1918
epoch: 1000
next table: 1894
cur table: 1917
epoch: 1000
next table: 1646
cur table: 1581
epoch: 1000
next table: 2043
cur table: 1894
epoch: 1000
next table: 1692
cur table: 1646
epoch: 1000
next table: 1969
cur table: 2043
epoch: 1000
next table: 1888
cur table: 1969
epoch: 1000
next table: 1578
cur table: 1692
epoch: 1000
next table: 1885
cur table: 1888
epoch: 1000
next table: 1679
cur table: 1578
epoch: 1000
next table: 1828
cur table: 1885
epoch: 1000
next table: 1606
cur table: 1679
epoch: 1000
next table: 1952
cur table: 1828
epoch: 1000
next table: 1943
cur table: 1952
epoch: 1000
next table: 1610
cur table: 1606
epoch: 1000
next table: 1889
cur table: 1943
epoch: 1000
next table: 1629
cur table: 1610
epoch: 1000
next table: 1955
cur table: 1889
epoch: 1000
next table: 1915
cur table: 1955
Heartbeat CPU 0 instructions: 100000000 cycles: 242366130 heartbeat IPC: 0.225856 cumulative IPC: 0.224448 (Simulation time: 1 hr 8 min 31 sec) 
Finished CPU 0 instructions: 50000000 cycles: 222768422 cumulative IPC: 0.224448 (Simulation time: 1 hr 8 min 31 sec) 

ChampSim completed all CPUs

Region of Interest Statistics

CPU 0 cumulative IPC: 0.224448 instructions: 50000000 cycles: 222768422
ITLB TOTAL     ACCESS:    8408403  HIT:    8329550  MISS:      78853  HIT %:    99.0622  MISS %:   0.937788   MPKI: 1.57706
ITLB LOAD TRANSLATION ACCESS:    8408403  HIT:    8329550  MISS:      78853  HIT %:    99.0622  MISS %:   0.937788   MPKI: 1.57706
ITLB PREFETCH  REQUESTED:          0  ISSUED:          0  USEFUL:          0  USELESS:          0
ITLB USEFUL LOAD PREFETCHES:          0 PREFETCH ISSUED TO LOWER LEVEL:          0  ACCURACY: -nan
ITLB TIMELY PREFETCHES:          0 LATE PREFETCHES: 0 DROPPED PREFETCHES: 0
ITLB PREFETCHES SAME FILL-ORIGIN LEVEL: 0 DIFFERENT FILL-ORIGIN LEVEL: 0
ITLB AVERAGE MISS LATENCY: 9.5415 cycles
ITLB RQ	ACCESS:    9451563	FORWARD:          0	MERGED:    1022114	TO_CACHE:    8429449

Revised Interactions: positive negative neutral
ITLB_interactions 0 0 0 -nan -nan -nan
DTLB TOTAL     ACCESS:   19828976  HIT:   18781392  MISS:    1047584  HIT %:    94.7169  MISS %:     5.2831   MPKI: 20.9517
DTLB LOAD TRANSLATION ACCESS:   19828976  HIT:   18781392  MISS:    1047584  HIT %:    94.7169  MISS %:     5.2831   MPKI: 20.9517
DTLB PREFETCH  REQUESTED:          0  ISSUED:          0  USEFUL:          0  USELESS:          0
DTLB USEFUL LOAD PREFETCHES:          0 PREFETCH ISSUED TO LOWER LEVEL:          0  ACCURACY: -nan
DTLB TIMELY PREFETCHES:          0 LATE PREFETCHES: 0 DROPPED PREFETCHES: 0
DTLB PREFETCHES SAME FILL-ORIGIN LEVEL: 0 DIFFERENT FILL-ORIGIN LEVEL: 0
DTLB AVERAGE MISS LATENCY: 22.8645 cycles
DTLB RQ	ACCESS:   22348710	FORWARD:          0	MERGED:    2503776	TO_CACHE:   19844934

Revised Interactions: positive negative neutral
DTLB_interactions 0 0 0 -nan -nan -nan
STLB TOTAL     ACCESS:    1126437  HIT:     884057  MISS:     242380  HIT %:    78.4826  MISS %:    21.5174   MPKI: 4.8476
STLB LOAD TRANSLATION ACCESS:    1126437  HIT:     884057  MISS:     242380  HIT %:    78.4826  MISS %:    21.5174   MPKI: 4.8476
STLB PREFETCH  REQUESTED:          0  ISSUED:          0  USEFUL:          0  USELESS:          0
STLB USEFUL LOAD PREFETCHES:          0 PREFETCH ISSUED TO LOWER LEVEL:          0  ACCURACY: -nan
STLB TIMELY PREFETCHES:          0 LATE PREFETCHES: 0 DROPPED PREFETCHES: 0
STLB PREFETCHES SAME FILL-ORIGIN LEVEL: 0 DIFFERENT FILL-ORIGIN LEVEL: 0
STLB AVERAGE MISS LATENCY: 59.8752 cycles
STLB RQ	ACCESS:    1126437	FORWARD:          0	MERGED:          0	TO_CACHE:    1126437

Revised Interactions: positive negative neutral
STLB_interactions 0 0 0 -nan -nan -nan
STLB Hit, L1D data hit: 0
STLB Hit, L2C data hit: 0
STLB Hit, LLC data hit: 0
STLB Hit, LLC data miss: 0
STLB STLB hints to L2: 0
L1D TOTAL     ACCESS:   22094522  HIT:   21173847  MISS:     920675  HIT %:     95.833  MISS %:    4.16698   MPKI: 18.4135
L1D LOAD      ACCESS:   13089505  HIT:   12288829  MISS:     800676  HIT %:    93.8831  MISS %:    6.11693   MPKI: 16.0135
L1D RFO       ACCESS:    9005017  HIT:    8885018  MISS:     119999  HIT %:    98.6674  MISS %:    1.33258   MPKI: 2.39998
L1D PREFETCH  REQUESTED:          0  ISSUED:          0  USEFUL:          0  USELESS:          0
L1D USEFUL LOAD PREFETCHES:          0 PREFETCH ISSUED TO LOWER LEVEL:          0  ACCURACY: -nan
L1D TIMELY PREFETCHES:          0 LATE PREFETCHES: 0 DROPPED PREFETCHES: 0
L1D PREFETCHES SAME FILL-ORIGIN LEVEL: 0 DIFFERENT FILL-ORIGIN LEVEL: 0
L1D AVERAGE MISS LATENCY: 85.3203 cycles
L1D RQ	ACCESS:   16111217	FORWARD:          0	MERGED:    2345243	TO_CACHE:   13145336
L1D WQ	ACCESS:    9279558	FORWARD:     620638	MERGED:      76184	TO_CACHE:    9203374

Revised Interactions: positive negative neutral
L1D_interactions 0 0 0 -nan -nan -nan
L1D UNIQUE REGIONS ACCESSED: 0
L1D REGIONS CONFLICTS: 0
L1D Cross Page Prefetch Requests: 0
L1D Same Page Prefetch Requests: 0
L1D ROI Sum of L1D PQ occupancy: 0
L1D PREFETCHES PUSHED FROM L2C: 0
L1I TOTAL     ACCESS:    9441917  HIT:    9409586  MISS:      32331  HIT %:    99.6576  MISS %:    0.34242   MPKI: 0.64662
L1I LOAD      ACCESS:    9441917  HIT:    9409586  MISS:      32331  HIT %:    99.6576  MISS %:    0.34242   MPKI: 0.64662
L1I PREFETCH  REQUESTED:          0  ISSUED:          0  USEFUL:          0  USELESS:          0
L1I USEFUL LOAD PREFETCHES:          0 PREFETCH ISSUED TO LOWER LEVEL:          0  ACCURACY: -nan
L1I TIMELY PREFETCHES:          0 LATE PREFETCHES: 0 DROPPED PREFETCHES: 0
L1I PREFETCHES SAME FILL-ORIGIN LEVEL: 0 DIFFERENT FILL-ORIGIN LEVEL: 0
L1I AVERAGE MISS LATENCY: 22.7556 cycles
L1I RQ	ACCESS:   14240137	FORWARD:          0	MERGED:    4788574	TO_CACHE:    9451563

Revised Interactions: positive negative neutral
L1I_interactions 0 0 0 -nan -nan -nan
BTB TOTAL     ACCESS:    8221303  HIT:    7737787  MISS:     483516  HIT %:    94.1187  MISS %:    5.88126   MPKI: 9.67032
BTB BRANCH_DIRECT_JUMP	ACCESS:     583527  HIT:     583406  MISS:        121
BTB BRANCH_INDIRECT	ACCESS:     168431  HIT:     142564  MISS:      25867
BTB BRANCH_CONDITIONAL	ACCESS:    4427120  HIT:    4426664  MISS:        456
BTB BRANCH_DIRECT_CALL	ACCESS:     930265  HIT:     930030  MISS:        235
BTB BRANCH_INDIRECT_CALL	ACCESS:     590847  HIT:     588506  MISS:       2341
BTB BRANCH_RETURN	ACCESS:    1521113  HIT:    1066617  MISS:     454496
BTB BRANCH_OTHER ACCESS:          0  HIT:          0  MISS:          0

L2C TOTAL     ACCESS:    2721338  HIT:    1318194  MISS:    1403144  HIT %:    48.4392  MISS %:    51.5608   MPKI: 28.0629
L2C LOAD      ACCESS:     832988  HIT:     436108  MISS:     396880  HIT %:    52.3547  MISS %:    47.6453   MPKI: 7.9376
L2C DATA LOAD MPKI: 7.82238
L2C INSTRUCTION LOAD MPKI: 0.11522
L2C RFO       ACCESS:     119998  HIT:      34189  MISS:      85809  HIT %:    28.4913  MISS %:    71.5087   MPKI: 1.71618
L2C PREFETCH  ACCESS:     970481  HIT:     217163  MISS:     753318  HIT %:    22.3768  MISS %:    77.6232   MPKI: 15.0664
L2C DATA PREFETCH MPKI: 15.0664
L2C INSTRUCTION PREFETCH MPKI: 0
L2C WRITEBACK ACCESS:     450402  HIT:     442352  MISS:       8050  HIT %:    98.2127  MISS %:    1.78729   MPKI: 0.161
L2C LOAD TRANSLATION ACCESS:     347469  HIT:     188382  MISS:     159087  HIT %:    54.2155  MISS %:    45.7845   MPKI: 3.18174
L2C PREFETCH  REQUESTED:    1001767  ISSUED:    1001767  USEFUL:     256812  USELESS:     496636
L2C USEFUL LOAD PREFETCHES:     256812 PREFETCH ISSUED TO LOWER LEVEL:     763032  ACCURACY: 33.6568
L2C TIMELY PREFETCHES:     256812 LATE PREFETCHES: 9714 DROPPED PREFETCHES: 0
L2C PREFETCHES SAME FILL-ORIGIN LEVEL: 763032 DIFFERENT FILL-ORIGIN LEVEL: 0
L2C AVERAGE MISS LATENCY: 152.1 cycles
L2C RQ	ACCESS:    1300474	FORWARD:          0	MERGED:          0	TO_CACHE:    1300455
L2C WQ	ACCESS:     450402	FORWARD:         20	MERGED:          0	TO_CACHE:     450402
L2C PQ	ACCESS:    1001767	FORWARD:          0	MERGED:          0	TO_CACHE:    1001766

Revised Interactions: positive negative neutral
L2C_interactions 245527 516117 217724 25.0699 52.699 22.2311
L2C Instructions Evicting Data 5026
L2C Translations Evicting Data 140941
L2C Data Evicting Data 1085229
L2C Instructions Evicting Instructions 114
L2C Translations Evicting Instructions 605
L2C Data Evicting Instructions 4977
L2C Instructions Evicting Translations 621
L2C Translations Evicting Translations 17541
L2C Data Evicting Translations 140040
L2C Dense regions hint from L2: 0
PSCL5 TOTAL     ACCESS:     242380  HIT:     242380  MISS:          0  HIT %:        100  MISS %:          0   MPKI: 0
PSCL5 LOAD TRANSLATION ACCESS:     242380  HIT:     242380  MISS:          0  HIT %:        100  MISS %:          0   MPKI: 0
PSCL5 PREFETCH  REQUESTED:          0  ISSUED:          0  USEFUL:          0  USELESS:          0
PSCL5 USEFUL LOAD PREFETCHES:          0 PREFETCH ISSUED TO LOWER LEVEL:          0  ACCURACY: -nan
PSCL5 TIMELY PREFETCHES:          0 LATE PREFETCHES: 0 DROPPED PREFETCHES: 0
PSCL5 PREFETCHES SAME FILL-ORIGIN LEVEL: 0 DIFFERENT FILL-ORIGIN LEVEL: 0

Revised Interactions: positive negative neutral
PSCL5_interactions 0 0 0 -nan -nan -nan
PSCL4 TOTAL     ACCESS:     242380  HIT:     242380  MISS:          0  HIT %:        100  MISS %:          0   MPKI: 0
PSCL4 LOAD TRANSLATION ACCESS:     242380  HIT:     242380  MISS:          0  HIT %:        100  MISS %:          0   MPKI: 0
PSCL4 PREFETCH  REQUESTED:          0  ISSUED:          0  USEFUL:          0  USELESS:          0
PSCL4 USEFUL LOAD PREFETCHES:          0 PREFETCH ISSUED TO LOWER LEVEL:          0  ACCURACY: -nan
PSCL4 TIMELY PREFETCHES:          0 LATE PREFETCHES: 0 DROPPED PREFETCHES: 0
PSCL4 PREFETCHES SAME FILL-ORIGIN LEVEL: 0 DIFFERENT FILL-ORIGIN LEVEL: 0

Revised Interactions: positive negative neutral
PSCL4_interactions 0 0 0 -nan -nan -nan
PSCL3 TOTAL     ACCESS:     242380  HIT:     242380  MISS:          0  HIT %:        100  MISS %:          0   MPKI: 0
PSCL3 LOAD TRANSLATION ACCESS:     242380  HIT:     242380  MISS:          0  HIT %:        100  MISS %:          0   MPKI: 0
PSCL3 PREFETCH  REQUESTED:          0  ISSUED:          0  USEFUL:          0  USELESS:          0
PSCL3 USEFUL LOAD PREFETCHES:          0 PREFETCH ISSUED TO LOWER LEVEL:          0  ACCURACY: -nan
PSCL3 TIMELY PREFETCHES:          0 LATE PREFETCHES: 0 DROPPED PREFETCHES: 0
PSCL3 PREFETCHES SAME FILL-ORIGIN LEVEL: 0 DIFFERENT FILL-ORIGIN LEVEL: 0

Revised Interactions: positive negative neutral
PSCL3_interactions 0 0 0 -nan -nan -nan
PSCL2 TOTAL     ACCESS:     242380  HIT:     137291  MISS:     105089  HIT %:    56.6429  MISS %:    43.3571   MPKI: 2.10178
PSCL2 LOAD TRANSLATION ACCESS:     242380  HIT:     137291  MISS:     105089  HIT %:    56.6429  MISS %:    43.3571   MPKI: 2.10178
PSCL2 PREFETCH  REQUESTED:          0  ISSUED:          0  USEFUL:          0  USELESS:          0
PSCL2 USEFUL LOAD PREFETCHES:          0 PREFETCH ISSUED TO LOWER LEVEL:          0  ACCURACY: -nan
PSCL2 TIMELY PREFETCHES:          0 LATE PREFETCHES: 0 DROPPED PREFETCHES: 0
PSCL2 PREFETCHES SAME FILL-ORIGIN LEVEL: 0 DIFFERENT FILL-ORIGIN LEVEL: 0

Revised Interactions: positive negative neutral
PSCL2_interactions 0 0 0 -nan -nan -nan
LLC TOTAL     ACCESS:    1761474  HIT:     598638  MISS:    1162836  HIT %:    33.9851  MISS %:    66.0149   MPKI: 23.2567
LLC LOAD      ACCESS:     390747  HIT:     140446  MISS:     250301  HIT %:     35.943  MISS %:     64.057   MPKI: 5.00602
LLC RFO       ACCESS:      82227  HIT:      30851  MISS:      51376  HIT %:    37.5193  MISS %:    62.4807   MPKI: 1.02752
LLC PREFETCH  ACCESS:     763032  HIT:      86876  MISS:     676156  HIT %:    11.3856  MISS %:    88.6144   MPKI: 13.5231
LLC WRITEBACK ACCESS:     366381  HIT:     194357  MISS:     172024  HIT %:    53.0478  MISS %:    46.9522   MPKI: 3.44048
LLC LOAD TRANSLATION ACCESS:     159087  HIT:     146108  MISS:      12979  HIT %:    91.8416  MISS %:    8.15843   MPKI: 0.25958
LLC PREFETCH  REQUESTED:          0  ISSUED:          0  USEFUL:        363  USELESS:     675762
LLC USEFUL LOAD PREFETCHES:        363 PREFETCH ISSUED TO LOWER LEVEL:     676156  ACCURACY: 0.0536858
LLC TIMELY PREFETCHES:        363 LATE PREFETCHES: 0 DROPPED PREFETCHES: 0
LLC PREFETCHES SAME FILL-ORIGIN LEVEL: 0 DIFFERENT FILL-ORIGIN LEVEL: 0
LLC AVERAGE MISS LATENCY: 148.415 cycles
LLC RQ	ACCESS:     632062	FORWARD:          0	MERGED:          0	TO_CACHE:     632061
LLC WQ	ACCESS:     366381	FORWARD:          1	MERGED:          0	TO_CACHE:     366381
LLC PQ	ACCESS:     763032	FORWARD:          0	MERGED:          0	TO_CACHE:     763032

Revised Interactions: positive negative neutral
LLC_interactions 594 674523 179054 0.0695411 78.9681 20.9623
LLC Dense regions hint to LLC: 0

RAW hits: 591274
Loads Generated: 16702491
Loads sent to L1D: 16111217
Stores Generated: 9279544
Stores sent to L1D: 9279558
Major fault: 0 Minor fault: 49694
Allocated PAGES: 49694
[Bingo] PHT Access: 388507
[Bingo] PHT Hit PC+Addr: 45901
[Bingo] PHT Hit PC+Offs: 313691
[Bingo] PHT Miss: 28915
[Bingo] Prefetch PC+Addr: 0
[Bingo] Prefetch PC+Offs: 0
[Bingo] Useful PC+Addr: 0
[Bingo] Useful PC+Offs: 0
[Bingo] Useless PC+Addr: 0
[Bingo] Useless PC+Offs: 0
[Bingo] L1 Prefetch per Region: 0
[Bingo] L2 Prefetch per Region: 3.79171
[Bingo] L3 Prefetch per Region: 0
[Bingo] No Prefetch per Region: 28.2083
[Bingo] Number of Voters Mean: 11.282
[Bingo] Number of Voters SD: 11.5544
PHT read accesses: 5757001
PHT write accesses: 133471
AT read accesses: 444436
AT write accesses: 545271
FT read accesses: 416206
FT write accesses: 388507
PS read accesses: 722236
PS write accesses: 359592
PHT tag read accesses: 9750488
PHT tag write accesses: 179372
AT tag read accesses: 41421682
AT tag write accesses: 577910
FT tag read accesses: 44251422
FT tag write accesses: 670886
PS tag read accesses: 26622763
PS tag write accesses: 1081422

DRAM Statistics
 CHANNEL 0
 RQ ROW_BUFFER_HIT:     164983  ROW_BUFFER_MISS:     825828
 DBUS_CONGESTED:         79
 WQ ROW_BUFFER_HIT:      34339  ROW_BUFFER_MISS:     218612  FULL:          0

 AVG_CONGESTED_CYCLE: 3
 All warmup complete: 2
Channel 0 Bank busy for read cycles: 0
Channel 0 Bank busy for write cycles: 0
Channel 0
Rank 0
0banks busy for read cycles: 142749175
0banks busy for write cycles: 108984
1banks busy for read cycles: 23309914
1banks busy for write cycles: 14185380
2banks busy for read cycles: 12580392
2banks busy for write cycles: 5472561
3banks busy for read cycles: 8524021
3banks busy for write cycles: 2656726
4banks busy for read cycles: 3171108
4banks busy for write cycles: 1493856
5banks busy for read cycles: 2370630
5banks busy for write cycles: 810025
6banks busy for read cycles: 1895903
6banks busy for write cycles: 369857
7banks busy for read cycles: 1226987
7banks busy for write cycles: 123920
8banks busy for read cycles: 1697509
8banks busy for write cycles: 21475

CPU 0 Branch Prediction Accuracy: 94.8055% MPKI: 10.9068 Average ROB Occupancy at Mispredict: 24.7889
Branch types
NOT_BRANCH: 39501219 79.0024%
BRANCH_DIRECT_JUMP: 583527 1.16705%
BRANCH_INDIRECT: 168431 0.336862%
BRANCH_CONDITIONAL: 6704263 13.4085%
BRANCH_DIRECT_CALL: 930265 1.86053%
BRANCH_INDIRECT_CALL: 590847 1.18169%
BRANCH_RETURN: 1521113 3.04223%
BRANCH_OTHER: 0 0%

@sumon_overall_L1D         0         0         0         0         0         0         0
@Sumon_Early_by_class_L1D         0         0         0         0
@Sumon_Late_by_class_L1D         0         0         0         0

@Sumon_Early_by_cycle_L1D         0         0         0         0         0         0         0         0         0         0         0         0
@Sumon_Late_by_cycle_L1D         0         0         0         0         0         0
@Sumon_Early_stream_L1D         0         0         0         0         0         0         0         0         0         0         0         0
@Sumon_Early_CS_L1D         0         0         0         0         0         0         0         0         0         0         0         0
@Sumon_Early_CPLX_L1D         0         0         0         0         0         0         0         0         0         0         0         0
@Sumon_Late_stream_L1D         0         0         0         0         0         0
@Sumon_Late_CS_L1D         0         0         0         0         0         0
@Sumon_Late_CPLX_L1D         0         0         0         0         0         0
@sumon_overall_L2C    256812      9714         0    496636    753318   1001767   1001767
@Sumon_Early_by_class_L2C         0         0         0         0
@Sumon_Late_by_class_L2C         0         0         0         0

@Sumon_Early_by_cycle_L2C     21111     17562     14868      6105      5361     45793     62638     27901      5005     11092      8394     30982
@Sumon_Late_by_cycle_L2C       337       822      2205      2995      3355         0
@Sumon_Early_stream_L2C         0         0         0         0         0         0         0         0         0         0         0         0
@Sumon_Early_CS_L2C         0         0         0         0         0         0         0         0         0         0         0         0
@Sumon_Early_CPLX_L2C         0         0         0         0         0         0         0         0         0         0         0         0
@Sumon_Late_stream_L2C         0         0         0         0         0         0
@Sumon_Late_CS_L2C         0         0         0         0         0         0
@Sumon_Late_CPLX_L2C         0         0         0         0         0         0
DRAM PAGES: 1048576
Allocated PAGES: 49694
