
*** ChampSim Multicore Out-of-Order Simulator ***

Warmup Instructions: 10000000
Simulation Instructions: 50000000
Number of CPUs: 1
LLC sets: 2048
LLC ways: 16
Off-chip DRAM Size: 4096 MB Channels: 1 Width: 64-bit Data Rate: 1600 MT/s
CPU 0 runs traces/SPEC2017/620.omnetpp_s-141B.champsimtrace.xz
.xz
CPU 0 Bimodal branch predictor
BTB has LRU replacement policy
ITLB has LRU replacement policy
DTLB has LRU replacement policy
STLB has LRU replacement policy
L1I has LRU replacement policy
L1D has LRU replacement policy
L2C has LRU replacement policy
LLC has LRU replacement policy
Heartbeat CPU 0 instructions: 10000001 cycles: 3913264 heartbeat IPC: 2.55541 cumulative IPC: 2.55541 (Simulation time: 0 hr 19 min 59 sec) 

Warmup complete CPU 0 instructions: 10000001 cycles: 3913264 (Simulation time: 0 hr 19 min 59 sec) 

Heartbeat CPU 0 instructions: 20000003 cycles: 53906435 heartbeat IPC: 0.200027 cumulative IPC: 0.200027 (Simulation time: 0 hr 47 min 49 sec) 
Heartbeat CPU 0 instructions: 30000000 cycles: 103699096 heartbeat IPC: 0.200833 cumulative IPC: 0.200429 (Simulation time: 1 hr 15 min 17 sec) 
Heartbeat CPU 0 instructions: 40000002 cycles: 153553655 heartbeat IPC: 0.200584 cumulative IPC: 0.200481 (Simulation time: 1 hr 42 min 48 sec) 
Heartbeat CPU 0 instructions: 50000001 cycles: 203529940 heartbeat IPC: 0.200095 cumulative IPC: 0.200384 (Simulation time: 2 hr 6 min 1 sec) 
Heartbeat CPU 0 instructions: 60000001 cycles: 252291029 heartbeat IPC: 0.205082 cumulative IPC: 0.201306 (Simulation time: 2 hr 19 min 12 sec) 
Finished CPU 0 instructions: 50000000 cycles: 248377765 cumulative IPC: 0.201306 (Simulation time: 2 hr 19 min 12 sec) 

ChampSim completed all CPUs

Region of Interest Statistics

CPU 0 cumulative IPC: 0.201306 instructions: 50000000 cycles: 248377765
ITLB TOTAL     ACCESS:    8422574  HIT:    8343118  MISS:      79456  HIT %:    99.0566  MISS %:    0.94337   MPKI: 1.58912
ITLB LOAD TRANSLATION ACCESS:    8422574  HIT:    8343118  MISS:      79456  HIT %:    99.0566  MISS %:    0.94337   MPKI: 1.58912
ITLB PREFETCH  REQUESTED:          0  ISSUED:          0  USEFUL:          0  USELESS:          0
ITLB USEFUL LOAD PREFETCHES:          0 PREFETCH ISSUED TO LOWER LEVEL:          0  ACCURACY: -nan
ITLB TIMELY PREFETCHES:          0 LATE PREFETCHES: 0 DROPPED PREFETCHES: 0
ITLB PREFETCHES SAME FILL-ORIGIN LEVEL: 0 DIFFERENT FILL-ORIGIN LEVEL: 0
ITLB AVERAGE MISS LATENCY: 9.75579 cycles
ITLB RQ	ACCESS:    9471562	FORWARD:          0	MERGED:    1027516	TO_CACHE:    8444046

DTLB TOTAL     ACCESS:   19748167  HIT:   18711737  MISS:    1036430  HIT %:    94.7518  MISS %:    5.24823   MPKI: 20.7286
DTLB LOAD TRANSLATION ACCESS:   19748167  HIT:   18711737  MISS:    1036430  HIT %:    94.7518  MISS %:    5.24823   MPKI: 20.7286
DTLB PREFETCH  REQUESTED:          0  ISSUED:          0  USEFUL:          0  USELESS:          0
DTLB USEFUL LOAD PREFETCHES:          0 PREFETCH ISSUED TO LOWER LEVEL:          0  ACCURACY: -nan
DTLB TIMELY PREFETCHES:          0 LATE PREFETCHES: 0 DROPPED PREFETCHES: 0
DTLB PREFETCHES SAME FILL-ORIGIN LEVEL: 0 DIFFERENT FILL-ORIGIN LEVEL: 0
DTLB AVERAGE MISS LATENCY: 30.2926 cycles
DTLB RQ	ACCESS:   22301027	FORWARD:          0	MERGED:    2533494	TO_CACHE:   19767533

STLB TOTAL     ACCESS:    1115886  HIT:     871057  MISS:     244829  HIT %:    78.0597  MISS %:    21.9403   MPKI: 4.89658
STLB LOAD TRANSLATION ACCESS:    1115886  HIT:     871057  MISS:     244829  HIT %:    78.0597  MISS %:    21.9403   MPKI: 4.89658
STLB PREFETCH  REQUESTED:          0  ISSUED:          0  USEFUL:          0  USELESS:          0
STLB USEFUL LOAD PREFETCHES:          0 PREFETCH ISSUED TO LOWER LEVEL:          0  ACCURACY: -nan
STLB TIMELY PREFETCHES:          0 LATE PREFETCHES: 0 DROPPED PREFETCHES: 0
STLB PREFETCHES SAME FILL-ORIGIN LEVEL: 0 DIFFERENT FILL-ORIGIN LEVEL: 0
STLB AVERAGE MISS LATENCY: 89.9934 cycles
STLB RQ	ACCESS:    1115886	FORWARD:          0	MERGED:          0	TO_CACHE:    1115886

STLB Hit, L1D data hit: 0
STLB Hit, L2C data hit: 0
STLB Hit, LLC data hit: 0
STLB Hit, LLC data miss: 0
STLB STLB hints to L2: 0
L1D TOTAL     ACCESS:   21976475  HIT:   21054328  MISS:     922147  HIT %:    95.8039  MISS %:    4.19606   MPKI: 18.4429
L1D LOAD      ACCESS:   13028447  HIT:   12224536  MISS:     803911  HIT %:    93.8296  MISS %:    6.17043   MPKI: 16.0782
L1D RFO       ACCESS:    8948028  HIT:    8829792  MISS:     118236  HIT %:    98.6786  MISS %:    1.32136   MPKI: 2.36472
L1D PREFETCH  REQUESTED:          0  ISSUED:          0  USEFUL:          0  USELESS:          0
L1D USEFUL LOAD PREFETCHES:          0 PREFETCH ISSUED TO LOWER LEVEL:          0  ACCURACY: -nan
L1D TIMELY PREFETCHES:          0 LATE PREFETCHES: 0 DROPPED PREFETCHES: 0
L1D PREFETCHES SAME FILL-ORIGIN LEVEL: 0 DIFFERENT FILL-ORIGIN LEVEL: 0
L1D AVERAGE MISS LATENCY: 135.492 cycles
L1D RQ	ACCESS:   16082220	FORWARD:          0	MERGED:    2337206	TO_CACHE:   13131447
L1D WQ	ACCESS:    9244293	FORWARD:     613567	MERGED:      74713	TO_CACHE:    9169580

L1D UNIQUE REGIONS ACCESSED: 0
L1D REGIONS CONFLICTS: 0
L1D Cross Page Prefetch Requests: 0
L1D Same Page Prefetch Requests: 0
L1D ROI Sum of L1D PQ occupancy: 0
L1D PREFETCHES PUSHED FROM L2C: 0
L1I TOTAL     ACCESS:    9462418  HIT:    9434288  MISS:      28130  HIT %:    99.7027  MISS %:   0.297281   MPKI: 0.5626
L1I LOAD      ACCESS:    9462418  HIT:    9434288  MISS:      28130  HIT %:    99.7027  MISS %:   0.297281   MPKI: 0.5626
L1I PREFETCH  REQUESTED:          0  ISSUED:          0  USEFUL:          0  USELESS:          0
L1I USEFUL LOAD PREFETCHES:          0 PREFETCH ISSUED TO LOWER LEVEL:          0  ACCURACY: -nan
L1I TIMELY PREFETCHES:          0 LATE PREFETCHES: 0 DROPPED PREFETCHES: 0
L1I PREFETCHES SAME FILL-ORIGIN LEVEL: 0 DIFFERENT FILL-ORIGIN LEVEL: 0
L1I AVERAGE MISS LATENCY: 28.0554 cycles
L1I RQ	ACCESS:   14251703	FORWARD:          0	MERGED:    4780141	TO_CACHE:    9471562

BTB TOTAL     ACCESS:    8225391  HIT:    7750603  MISS:     474788  HIT %:    94.2278  MISS %:    5.77222   MPKI: 9.49576
BTB BRANCH_DIRECT_JUMP	ACCESS:     579052  HIT:     578930  MISS:        122
BTB BRANCH_INDIRECT	ACCESS:     167557  HIT:     143171  MISS:      24386
BTB BRANCH_CONDITIONAL	ACCESS:    4432757  HIT:    4432296  MISS:        461
BTB BRANCH_DIRECT_CALL	ACCESS:     933677  HIT:     933435  MISS:        242
BTB BRANCH_INDIRECT_CALL	ACCESS:     589336  HIT:     587040  MISS:       2296
BTB BRANCH_RETURN	ACCESS:    1523012  HIT:    1075731  MISS:     447281
BTB BRANCH_OTHER ACCESS:          0  HIT:          0  MISS:          0

L2C TOTAL     ACCESS:    1752084  HIT:     899429  MISS:     852655  HIT %:    51.3348  MISS %:    48.6652   MPKI: 17.0531
L2C LOAD      ACCESS:     832035  HIT:     220733  MISS:     611302  HIT %:    26.5293  MISS %:    73.4707   MPKI: 12.226
L2C DATA LOAD MPKI: 12.1355
L2C INSTRUCTION LOAD MPKI: 0.09052
L2C RFO       ACCESS:     118235  HIT:      21076  MISS:      97159  HIT %:    17.8255  MISS %:    82.1745   MPKI: 1.94318
L2C WRITEBACK ACCESS:     451455  HIT:     450506  MISS:        949  HIT %:    99.7898  MISS %:   0.210209   MPKI: 0.01898
L2C LOAD TRANSLATION ACCESS:     350359  HIT:     207114  MISS:     143245  HIT %:    59.1148  MISS %:    40.8852   MPKI: 2.8649
L2C PREFETCH  REQUESTED:          0  ISSUED:          0  USEFUL:          0  USELESS:          0
L2C USEFUL LOAD PREFETCHES:          0 PREFETCH ISSUED TO LOWER LEVEL:          0  ACCURACY: -nan
L2C TIMELY PREFETCHES:          0 LATE PREFETCHES: 0 DROPPED PREFETCHES: 0
L2C PREFETCHES SAME FILL-ORIGIN LEVEL: 0 DIFFERENT FILL-ORIGIN LEVEL: 0
L2C AVERAGE MISS LATENCY: 144.638 cycles
L2C RQ	ACCESS:    1300636	FORWARD:          0	MERGED:          0	TO_CACHE:    1300629
L2C WQ	ACCESS:     451455	FORWARD:          7	MERGED:          0	TO_CACHE:     451455

L2C Instructions Evicting Data 3688
L2C Translations Evicting Data 118129
L2C Data Evicting Data 582321
L2C Instructions Evicting Instructions 97
L2C Translations Evicting Instructions 693
L2C Data Evicting Instructions 3721
L2C Instructions Evicting Translations 741
L2C Translations Evicting Translations 24423
L2C Data Evicting Translations 117893
L2C Dense regions hint from L2: 0
PSCL5 TOTAL     ACCESS:     244829  HIT:     244829  MISS:          0  HIT %:        100  MISS %:          0   MPKI: 0
PSCL5 LOAD TRANSLATION ACCESS:     244829  HIT:     244829  MISS:          0  HIT %:        100  MISS %:          0   MPKI: 0
PSCL5 PREFETCH  REQUESTED:          0  ISSUED:          0  USEFUL:          0  USELESS:          0
PSCL5 USEFUL LOAD PREFETCHES:          0 PREFETCH ISSUED TO LOWER LEVEL:          0  ACCURACY: -nan
PSCL5 TIMELY PREFETCHES:          0 LATE PREFETCHES: 0 DROPPED PREFETCHES: 0
PSCL5 PREFETCHES SAME FILL-ORIGIN LEVEL: 0 DIFFERENT FILL-ORIGIN LEVEL: 0

PSCL4 TOTAL     ACCESS:     244829  HIT:     244829  MISS:          0  HIT %:        100  MISS %:          0   MPKI: 0
PSCL4 LOAD TRANSLATION ACCESS:     244829  HIT:     244829  MISS:          0  HIT %:        100  MISS %:          0   MPKI: 0
PSCL4 PREFETCH  REQUESTED:          0  ISSUED:          0  USEFUL:          0  USELESS:          0
PSCL4 USEFUL LOAD PREFETCHES:          0 PREFETCH ISSUED TO LOWER LEVEL:          0  ACCURACY: -nan
PSCL4 TIMELY PREFETCHES:          0 LATE PREFETCHES: 0 DROPPED PREFETCHES: 0
PSCL4 PREFETCHES SAME FILL-ORIGIN LEVEL: 0 DIFFERENT FILL-ORIGIN LEVEL: 0

PSCL3 TOTAL     ACCESS:     244829  HIT:     244829  MISS:          0  HIT %:        100  MISS %:          0   MPKI: 0
PSCL3 LOAD TRANSLATION ACCESS:     244829  HIT:     244829  MISS:          0  HIT %:        100  MISS %:          0   MPKI: 0
PSCL3 PREFETCH  REQUESTED:          0  ISSUED:          0  USEFUL:          0  USELESS:          0
PSCL3 USEFUL LOAD PREFETCHES:          0 PREFETCH ISSUED TO LOWER LEVEL:          0  ACCURACY: -nan
PSCL3 TIMELY PREFETCHES:          0 LATE PREFETCHES: 0 DROPPED PREFETCHES: 0
PSCL3 PREFETCHES SAME FILL-ORIGIN LEVEL: 0 DIFFERENT FILL-ORIGIN LEVEL: 0

PSCL2 TOTAL     ACCESS:     244829  HIT:     139299  MISS:     105530  HIT %:    56.8964  MISS %:    43.1036   MPKI: 2.1106
PSCL2 LOAD TRANSLATION ACCESS:     244829  HIT:     139299  MISS:     105530  HIT %:    56.8964  MISS %:    43.1036   MPKI: 2.1106
PSCL2 PREFETCH  REQUESTED:          0  ISSUED:          0  USEFUL:          0  USELESS:          0
PSCL2 USEFUL LOAD PREFETCHES:          0 PREFETCH ISSUED TO LOWER LEVEL:          0  ACCURACY: -nan
PSCL2 TIMELY PREFETCHES:          0 LATE PREFETCHES: 0 DROPPED PREFETCHES: 0
PSCL2 PREFETCHES SAME FILL-ORIGIN LEVEL: 0 DIFFERENT FILL-ORIGIN LEVEL: 0

LLC TOTAL     ACCESS:    1201359  HIT:     615659  MISS:     585700  HIT %:    51.2469  MISS %:    48.7531   MPKI: 11.714
LLC LOAD      ACCESS:     611301  HIT:     134035  MISS:     477266  HIT %:    21.9262  MISS %:    78.0738   MPKI: 9.54532
LLC RFO       ACCESS:      97159  HIT:      34245  MISS:      62914  HIT %:    35.2463  MISS %:    64.7537   MPKI: 1.25828
LLC WRITEBACK ACCESS:     349654  HIT:     348563  MISS:       1091  HIT %:     99.688  MISS %:   0.312023   MPKI: 0.02182
LLC LOAD TRANSLATION ACCESS:     143245  HIT:      98816  MISS:      44429  HIT %:    68.9839  MISS %:    31.0161   MPKI: 0.88858
LLC PREFETCH  REQUESTED:          0  ISSUED:          0  USEFUL:          0  USELESS:          0
LLC USEFUL LOAD PREFETCHES:          0 PREFETCH ISSUED TO LOWER LEVEL:          0  ACCURACY: -nan
LLC TIMELY PREFETCHES:          0 LATE PREFETCHES: 0 DROPPED PREFETCHES: 0
LLC PREFETCHES SAME FILL-ORIGIN LEVEL: 0 DIFFERENT FILL-ORIGIN LEVEL: 0
LLC AVERAGE MISS LATENCY: 166.647 cycles
LLC RQ	ACCESS:     851706	FORWARD:          0	MERGED:          0	TO_CACHE:     851705
LLC WQ	ACCESS:     349654	FORWARD:          1	MERGED:          0	TO_CACHE:     349654

LLC Dense regions hint to LLC: 0

RAW hits: 625557
Loads Generated: 16707772
Loads sent to L1D: 16082220
Stores Generated: 9244294
Stores sent to L1D: 9244293
Major fault: 0 Minor fault: 47196
Allocated PAGES: 47196

DRAM Statistics
 CHANNEL 0
 RQ ROW_BUFFER_HIT:      42844  ROW_BUFFER_MISS:     541762
 DBUS_CONGESTED:     142056
 WQ ROW_BUFFER_HIT:      63554  ROW_BUFFER_MISS:     191994  FULL:          0

 AVG_CONGESTED_CYCLE: 12
 All warmup complete: 2
Channel 0 Bank busy for read cycles: 0
Channel 0 Bank busy for write cycles: 0
Channel 0
Rank 0
0banks busy for read cycles: 148353172
0banks busy for write cycles: 144571
1banks busy for read cycles: 50244543
1banks busy for write cycles: 23098370
2banks busy for read cycles: 11368405
2banks busy for write cycles: 8224465
3banks busy for read cycles: 2843784
3banks busy for write cycles: 2482601
4banks busy for read cycles: 760244
4banks busy for write cycles: 640369
5banks busy for read cycles: 22688
5banks busy for write cycles: 149804
6banks busy for read cycles: 420
6banks busy for write cycles: 37228
7banks busy for read cycles: 0
7banks busy for write cycles: 6225
8banks busy for read cycles: 0
8banks busy for write cycles: 877

CPU 0 Branch Prediction Accuracy: 94.7385% MPKI: 11.0762 Average ROB Occupancy at Mispredict: 24.7127
Branch types
NOT_BRANCH: 39473974 78.9479%
BRANCH_DIRECT_JUMP: 579052 1.1581%
BRANCH_INDIRECT: 167557 0.335114%
BRANCH_CONDITIONAL: 6733127 13.4663%
BRANCH_DIRECT_CALL: 933677 1.86735%
BRANCH_INDIRECT_CALL: 589336 1.17867%
BRANCH_RETURN: 1523012 3.04602%
BRANCH_OTHER: 0 0%

@sumon_overall_L1D         0         0         0         0         0         0
@Sumon_Early_by_class_L1D         0         0         0         0
@Sumon_Late_by_class_L1D         0         0         0         0

@Sumon_Early_by_cycle_L1D         0         0         0         0         0         0         0         0         0         0         0         0
@Sumon_Late_by_cycle_L1D         0         0         0         0         0         0         0         0         0         0         0         0
@Sumon_Early_stream_L1D         0         0         0         0         0         0         0         0         0         0         0         0
@Sumon_Early_CS_L1D         0         0         0         0         0         0         0         0         0         0         0         0
@Sumon_Early_CPLX_L1D         0         0         0         0         0         0         0         0         0         0         0         0
@Sumon_Late_stream_L1D         0         0         0         0         0         0         0         0         0         0         0         0
@Sumon_Late_CS_L1D         0         0         0         0         0         0         0         0         0         0         0         0
@Sumon_Late_CPLX_L1D         0         0         0         0         0         0         0         0         0         0         0         0
@sumon_overall_L2C         0         0         0         0         0         0
@Sumon_Early_by_class_L2C         0         0         0         0
@Sumon_Late_by_class_L2C         0         0         0         0

@Sumon_Early_by_cycle_L2C         0         0         0         0         0         0         0         0         0         0         0         0
@Sumon_Late_by_cycle_L2C         0         0         0         0         0         0         0         0         0         0         0         0
@Sumon_Early_stream_L2C         0         0         0         0         0         0         0         0         0         0         0         0
@Sumon_Early_CS_L2C         0         0         0         0         0         0         0         0         0         0         0         0
@Sumon_Early_CPLX_L2C         0         0         0         0         0         0         0         0         0         0         0         0
@Sumon_Late_stream_L2C         0         0         0         0         0         0         0         0         0         0         0         0
@Sumon_Late_CS_L2C         0         0         0         0         0         0         0         0         0         0         0         0
@Sumon_Late_CPLX_L2C         0         0         0         0         0         0         0         0         0         0         0         0
DRAM PAGES: 1048576
Allocated PAGES: 47196
