
*** ChampSim Multicore Out-of-Order Simulator ***

Warmup Instructions: 10000000
Simulation Instructions: 50000000
Number of CPUs: 1
LLC sets: 2048
LLC ways: 16
Off-chip DRAM Size: 4096 MB Channels: 1 Width: 64-bit Data Rate: 800 MT/s
CPU 0 runs traces/SPEC2017/602.gcc_s-734B.champsimtrace.xz
.xz
CPU 0 Bimodal branch predictor
BTB has LRU replacement policy
ITLB has LRU replacement policy
DTLB has LRU replacement policy
STLB has LRU replacement policy
L1I has LRU replacement policy
IP Table Entries: 256
L1D has LRU replacement policy
IP_Table L2 entries: 256
L2C has LRU replacement policy
LLC has LRU replacement policy
Heartbeat CPU 0 instructions: 10000002 cycles: 3229168 heartbeat IPC: 3.09677 cumulative IPC: 3.09677 (Simulation time: 0 hr 22 min 56 sec) 

Warmup complete CPU 0 instructions: 10000002 cycles: 3229168 (Simulation time: 0 hr 22 min 57 sec) 

Heartbeat CPU 0 instructions: 20000000 cycles: 28507899 heartbeat IPC: 0.395589 cumulative IPC: 0.395589 (Simulation time: 0 hr 44 min 38 sec) 
Heartbeat CPU 0 instructions: 30000000 cycles: 53482353 heartbeat IPC: 0.400409 cumulative IPC: 0.397985 (Simulation time: 1 hr 6 min 18 sec) 
Heartbeat CPU 0 instructions: 40000002 cycles: 78865053 heartbeat IPC: 0.393969 cumulative IPC: 0.396637 (Simulation time: 1 hr 28 min 6 sec) 
Heartbeat CPU 0 instructions: 50000000 cycles: 103729962 heartbeat IPC: 0.402173 cumulative IPC: 0.398007 (Simulation time: 1 hr 49 min 15 sec) 
Heartbeat CPU 0 instructions: 60000000 cycles: 128641188 heartbeat IPC: 0.401425 cumulative IPC: 0.398686 (Simulation time: 2 hr 6 min 3 sec) 
Finished CPU 0 instructions: 50000000 cycles: 125412034 cumulative IPC: 0.398686 (Simulation time: 2 hr 6 min 3 sec) 

ChampSim completed all CPUs

Region of Interest Statistics

CPU 0 cumulative IPC: 0.398686 instructions: 50000000 cycles: 125412034
ITLB TOTAL     ACCESS:    7536607  HIT:    7536605  MISS:          2  HIT %:        100  MISS %: 2.65371e-05   MPKI: 4e-05
ITLB LOAD TRANSLATION ACCESS:    7536607  HIT:    7536605  MISS:          2  HIT %:        100  MISS %: 2.65371e-05   MPKI: 4e-05
ITLB PREFETCH  REQUESTED:          0  ISSUED:          0  USEFUL:          0  USELESS:          0
ITLB USEFUL LOAD PREFETCHES:          0 PREFETCH ISSUED TO LOWER LEVEL:          0  ACCURACY: -nan
ITLB TIMELY PREFETCHES:          0 LATE PREFETCHES: 0 DROPPED PREFETCHES: 0
ITLB PREFETCHES SAME FILL-ORIGIN LEVEL: 0 DIFFERENT FILL-ORIGIN LEVEL: 0
ITLB AVERAGE MISS LATENCY: 586.5 cycles
ITLB RQ	ACCESS:    8174564	FORWARD:          0	MERGED:     637957	TO_CACHE:    7536607

DTLB TOTAL     ACCESS:   14735604  HIT:   14721239  MISS:      14365  HIT %:    99.9025  MISS %:   0.097485   MPKI: 0.2873
DTLB LOAD TRANSLATION ACCESS:   14735604  HIT:   14721239  MISS:      14365  HIT %:    99.9025  MISS %:   0.097485   MPKI: 0.2873
DTLB PREFETCH  REQUESTED:          0  ISSUED:          0  USEFUL:          0  USELESS:          0
DTLB USEFUL LOAD PREFETCHES:          0 PREFETCH ISSUED TO LOWER LEVEL:          0  ACCURACY: -nan
DTLB TIMELY PREFETCHES:          0 LATE PREFETCHES: 0 DROPPED PREFETCHES: 0
DTLB PREFETCHES SAME FILL-ORIGIN LEVEL: 0 DIFFERENT FILL-ORIGIN LEVEL: 0
DTLB AVERAGE MISS LATENCY: 124.684 cycles
DTLB RQ	ACCESS:   14959867	FORWARD:          0	MERGED:     223949	TO_CACHE:   14735918

STLB TOTAL     ACCESS:     820850  HIT:     810587  MISS:      10263  HIT %:    98.7497  MISS %:    1.25029   MPKI: 0.20526
STLB LOAD TRANSLATION ACCESS:      14367  HIT:       4105  MISS:      10262  HIT %:    28.5724  MISS %:    71.4276   MPKI: 0.20524
STLB TRANSLATION FROM L1D PREFETCHER ACCESS:     806483  HIT:     806482  MISS:          1  HIT %:    99.9999  MISS %: 0.000123995   MPKI: 2e-05
STLB PREFETCH  REQUESTED:          0  ISSUED:          0  USEFUL:          1  USELESS:          0
STLB USEFUL LOAD PREFETCHES:          1 PREFETCH ISSUED TO LOWER LEVEL:          0  ACCURACY: inf
STLB TIMELY PREFETCHES:          1 LATE PREFETCHES: 0 DROPPED PREFETCHES: 0
STLB PREFETCHES SAME FILL-ORIGIN LEVEL: 0 DIFFERENT FILL-ORIGIN LEVEL: 0
STLB AVERAGE MISS LATENCY: 162.084 cycles
STLB RQ	ACCESS:    1246981	FORWARD:          0	MERGED:     426131	TO_CACHE:     820850

STLB Hit, L1D data hit: 0
STLB Hit, L2C data hit: 0
STLB Hit, LLC data hit: 0
STLB Hit, LLC data miss: 0
STLB STLB hints to L2: 0
L1D TOTAL     ACCESS:   16186582  HIT:   15259333  MISS:     927249  HIT %:    94.2715  MISS %:     5.7285   MPKI: 18.545
L1D LOAD      ACCESS:    9942021  HIT:    9902770  MISS:      39251  HIT %:    99.6052  MISS %:   0.394799   MPKI: 0.78502
L1D RFO       ACCESS:    5013976  HIT:    5013937  MISS:         39  HIT %:    99.9992  MISS %: 0.000777826   MPKI: 0.00078
L1D PREFETCH  ACCESS:    1230585  HIT:     342626  MISS:     887959  HIT %:    27.8425  MISS %:    72.1575   MPKI: 17.7592
L1D PREFETCH  REQUESTED:    2465340  ISSUED:    2465231  USEFUL:     767333  USELESS:     120580
L1D USEFUL LOAD PREFETCHES:     767333 PREFETCH ISSUED TO LOWER LEVEL:     890083  ACCURACY: 86.2092
L1D TIMELY PREFETCHES:     767333 LATE PREFETCHES: 575 DROPPED PREFETCHES: 0
L1D PREFETCHES SAME FILL-ORIGIN LEVEL: 890083 DIFFERENT FILL-ORIGIN LEVEL: 0
L1D AVERAGE MISS LATENCY: 37598.8 cycles
L1D RQ	ACCESS:   13120683	FORWARD:          0	MERGED:    3172125	TO_CACHE:    9945866
L1D WQ	ACCESS:    5633019	FORWARD:       2695	MERGED:     619018	TO_CACHE:    5014001
L1D PQ	ACCESS:    1232617	FORWARD:          0	MERGED:          0	TO_CACHE:    1232614

L1D UNIQUE REGIONS ACCESSED: 0
L1D REGIONS CONFLICTS: 0
L1D Cross Page Prefetch Requests: 0
L1D Same Page Prefetch Requests: 1430207
L1D ROI Sum of L1D PQ occupancy: 16672324
L1D PREFETCHES PUSHED FROM L2C: 0
L1I TOTAL     ACCESS:    8174558  HIT:    8174503  MISS:         55  HIT %:    99.9993  MISS %: 0.000672819   MPKI: 0.0011
L1I LOAD      ACCESS:    8174558  HIT:    8174503  MISS:         55  HIT %:    99.9993  MISS %: 0.000672819   MPKI: 0.0011
L1I PREFETCH  REQUESTED:          0  ISSUED:          0  USEFUL:          0  USELESS:          0
L1I USEFUL LOAD PREFETCHES:          0 PREFETCH ISSUED TO LOWER LEVEL:          0  ACCURACY: -nan
L1I TIMELY PREFETCHES:          0 LATE PREFETCHES: 0 DROPPED PREFETCHES: 0
L1I PREFETCHES SAME FILL-ORIGIN LEVEL: 0 DIFFERENT FILL-ORIGIN LEVEL: 0
L1I AVERAGE MISS LATENCY: 231.909 cycles
L1I RQ	ACCESS:   13812148	FORWARD:          0	MERGED:    5637584	TO_CACHE:    8174564

BTB TOTAL     ACCESS:    9209262  HIT:    9202771  MISS:       6491  HIT %:    99.9295  MISS %:  0.0704834   MPKI: 0.12982
BTB BRANCH_DIRECT_JUMP	ACCESS:    1247487  HIT:    1247450  MISS:         37
BTB BRANCH_INDIRECT	ACCESS:          0  HIT:          0  MISS:          0
BTB BRANCH_CONDITIONAL	ACCESS:    6708204  HIT:    6708123  MISS:         81
BTB BRANCH_DIRECT_CALL	ACCESS:     626785  HIT:     626768  MISS:         17
BTB BRANCH_INDIRECT_CALL	ACCESS:          0  HIT:          0  MISS:          0
BTB BRANCH_RETURN	ACCESS:     626786  HIT:     620430  MISS:       6356
BTB BRANCH_OTHER ACCESS:          0  HIT:          0  MISS:          0

L2C TOTAL     ACCESS:    4548866  HIT:    4069710  MISS:     479156  HIT %:    89.4665  MISS %:    10.5335   MPKI: 9.58312
L2C LOAD      ACCESS:      38731  HIT:      25556  MISS:      13175  HIT %:    65.9833  MISS %:    34.0167   MPKI: 0.2635
L2C DATA LOAD MPKI: 0.2624
L2C INSTRUCTION LOAD MPKI: 0.0011
L2C RFO       ACCESS:         39  HIT:         31  MISS:          8  HIT %:    79.4872  MISS %:    20.5128   MPKI: 0.00016
L2C PREFETCH  ACCESS:    4491033  HIT:    4029023  MISS:     462010  HIT %:    89.7126  MISS %:    10.2874   MPKI: 9.2402
L2C DATA PREFETCH MPKI: 9.2402
L2C INSTRUCTION PREFETCH MPKI: 0
L2C WRITEBACK ACCESS:       7982  HIT:       7978  MISS:          4  HIT %:    99.9499  MISS %:  0.0501128   MPKI: 8e-05
L2C LOAD TRANSLATION ACCESS:      11080  HIT:       7122  MISS:       3958  HIT %:     64.278  MISS %:     35.722   MPKI: 0.07916
L2C TRANSLATION FROM L1D PREFETCHER ACCESS:          1  HIT:          0  MISS:          1  HIT %:          0  MISS %:        100   MPKI: 2e-05
L2C PREFETCH  REQUESTED:    4003158  ISSUED:    4000392  USEFUL:       5262  USELESS:     456184
L2C USEFUL LOAD PREFETCHES:       5262 PREFETCH ISSUED TO LOWER LEVEL:     462071  ACCURACY: 1.13879
L2C TIMELY PREFETCHES:       5262 LATE PREFETCHES: 60 DROPPED PREFETCHES: 0
L2C PREFETCHES SAME FILL-ORIGIN LEVEL: 370729 DIFFERENT FILL-ORIGIN LEVEL: 0
L2C AVERAGE MISS LATENCY: 170.954 cycles
L2C RQ	ACCESS:      49851	FORWARD:          0	MERGED:          0	TO_CACHE:      49851
L2C WQ	ACCESS:       7982	FORWARD:          0	MERGED:          0	TO_CACHE:       7982
L2C PQ	ACCESS:    4888926	FORWARD:          0	MERGED:     380893	TO_CACHE:    4508033

L2C Instructions Evicting Data 55
L2C Translations Evicting Data 3931
L2C Data Evicting Data 471117
L2C Instructions Evicting Instructions 0
L2C Translations Evicting Instructions 0
L2C Data Evicting Instructions 55
L2C Instructions Evicting Translations 0
L2C Translations Evicting Translations 28
L2C Data Evicting Translations 3966
L2C Dense regions hint from L2: 0
PSCL5 TOTAL     ACCESS:      10263  HIT:      10263  MISS:          0  HIT %:        100  MISS %:          0   MPKI: 0
PSCL5 LOAD TRANSLATION ACCESS:      10262  HIT:      10262  MISS:          0  HIT %:        100  MISS %:          0   MPKI: 0
PSCL5 TRANSLATION FROM L1D PREFETCHER ACCESS:          1  HIT:          1  MISS:          0  HIT %:        100  MISS %:          0   MPKI: 0
PSCL5 PREFETCH  REQUESTED:          0  ISSUED:          0  USEFUL:          0  USELESS:          0
PSCL5 USEFUL LOAD PREFETCHES:          0 PREFETCH ISSUED TO LOWER LEVEL:          0  ACCURACY: -nan
PSCL5 TIMELY PREFETCHES:          0 LATE PREFETCHES: 0 DROPPED PREFETCHES: 0
PSCL5 PREFETCHES SAME FILL-ORIGIN LEVEL: 0 DIFFERENT FILL-ORIGIN LEVEL: 0

PSCL4 TOTAL     ACCESS:      10263  HIT:      10263  MISS:          0  HIT %:        100  MISS %:          0   MPKI: 0
PSCL4 LOAD TRANSLATION ACCESS:      10262  HIT:      10262  MISS:          0  HIT %:        100  MISS %:          0   MPKI: 0
PSCL4 TRANSLATION FROM L1D PREFETCHER ACCESS:          1  HIT:          1  MISS:          0  HIT %:        100  MISS %:          0   MPKI: 0
PSCL4 PREFETCH  REQUESTED:          0  ISSUED:          0  USEFUL:          0  USELESS:          0
PSCL4 USEFUL LOAD PREFETCHES:          0 PREFETCH ISSUED TO LOWER LEVEL:          0  ACCURACY: -nan
PSCL4 TIMELY PREFETCHES:          0 LATE PREFETCHES: 0 DROPPED PREFETCHES: 0
PSCL4 PREFETCHES SAME FILL-ORIGIN LEVEL: 0 DIFFERENT FILL-ORIGIN LEVEL: 0

PSCL3 TOTAL     ACCESS:      10263  HIT:      10262  MISS:          1  HIT %:    99.9903  MISS %: 0.00974374   MPKI: 2e-05
PSCL3 LOAD TRANSLATION ACCESS:      10262  HIT:      10261  MISS:          1  HIT %:    99.9903  MISS %: 0.00974469   MPKI: 2e-05
PSCL3 TRANSLATION FROM L1D PREFETCHER ACCESS:          1  HIT:          1  MISS:          0  HIT %:        100  MISS %:          0   MPKI: 0
PSCL3 PREFETCH  REQUESTED:          0  ISSUED:          0  USEFUL:          0  USELESS:          0
PSCL3 USEFUL LOAD PREFETCHES:          0 PREFETCH ISSUED TO LOWER LEVEL:          0  ACCURACY: -nan
PSCL3 TIMELY PREFETCHES:          0 LATE PREFETCHES: 0 DROPPED PREFETCHES: 0
PSCL3 PREFETCHES SAME FILL-ORIGIN LEVEL: 0 DIFFERENT FILL-ORIGIN LEVEL: 0

PSCL2 TOTAL     ACCESS:      10263  HIT:       9309  MISS:        954  HIT %:    90.7045  MISS %:    9.29553   MPKI: 0.01908
PSCL2 LOAD TRANSLATION ACCESS:      10262  HIT:       9308  MISS:        954  HIT %:    90.7036  MISS %:    9.29643   MPKI: 0.01908
PSCL2 TRANSLATION FROM L1D PREFETCHER ACCESS:          1  HIT:          1  MISS:          0  HIT %:        100  MISS %:          0   MPKI: 0
PSCL2 PREFETCH  REQUESTED:          0  ISSUED:          0  USEFUL:          0  USELESS:          0
PSCL2 USEFUL LOAD PREFETCHES:          0 PREFETCH ISSUED TO LOWER LEVEL:          0  ACCURACY: -nan
PSCL2 TIMELY PREFETCHES:          0 LATE PREFETCHES: 0 DROPPED PREFETCHES: 0
PSCL2 PREFETCHES SAME FILL-ORIGIN LEVEL: 0 DIFFERENT FILL-ORIGIN LEVEL: 0

LLC TOTAL     ACCESS:     482407  HIT:       8418  MISS:     473989  HIT %:      1.745  MISS %:     98.255   MPKI: 9.47978
LLC LOAD      ACCESS:      13115  HIT:        166  MISS:      12949  HIT %:    1.26573  MISS %:    98.7343   MPKI: 0.25898
LLC RFO       ACCESS:          8  HIT:          2  MISS:          6  HIT %:         25  MISS %:         75   MPKI: 0.00012
LLC PREFETCH  ACCESS:     462070  HIT:       5266  MISS:     456804  HIT %:    1.13965  MISS %:    98.8603   MPKI: 9.13608
LLC WRITEBACK ACCESS:       3255  HIT:       2686  MISS:        569  HIT %:    82.5192  MISS %:    17.4808   MPKI: 0.01138
LLC LOAD TRANSLATION ACCESS:       3958  HIT:        298  MISS:       3660  HIT %:    7.52906  MISS %:    92.4709   MPKI: 0.0732
LLC TRANSLATION FROM L1D PREFETCHER ACCESS:          1  HIT:          0  MISS:          1  HIT %:          0  MISS %:        100   MPKI: 2e-05
LLC PREFETCH  REQUESTED:          0  ISSUED:          0  USEFUL:        115  USELESS:     456349
LLC USEFUL LOAD PREFETCHES:        115 PREFETCH ISSUED TO LOWER LEVEL:     456805  ACCURACY: 0.0251749
LLC TIMELY PREFETCHES:        115 LATE PREFETCHES: 0 DROPPED PREFETCHES: 0
LLC PREFETCHES SAME FILL-ORIGIN LEVEL: 0 DIFFERENT FILL-ORIGIN LEVEL: 0
LLC AVERAGE MISS LATENCY: 142.418 cycles
LLC RQ	ACCESS:      17082	FORWARD:          0	MERGED:          0	TO_CACHE:      17082
LLC WQ	ACCESS:       3255	FORWARD:          0	MERGED:          0	TO_CACHE:       3255
LLC PQ	ACCESS:     462071	FORWARD:          0	MERGED:          0	TO_CACHE:     462071

LLC Dense regions hint to LLC: 0

RAW hits: 7379
Loads Generated: 13128062
Loads sent to L1D: 13120683
Stores Generated: 5633019
Stores sent to L1D: 5633019
Major fault: 0 Minor fault: 6201
Allocated PAGES: 6201

stream: 
stream:times selected: 4452598
stream:pref_filled: 966977
stream:pref_useful: 850630
stream:pref_late: 558
stream:misses: 2672
stream:misses_by_poll: 0

CS: 
CS:times selected: 3680667
CS:pref_filled: 5493
CS:pref_useful: 5030
CS:pref_late: 20
CS:misses: 20925
CS:misses_by_poll: 23

CPLX: 
CPLX:times selected: 771282
CPLX:pref_filled: 87222
CPLX:pref_useful: 63358
CPLX:pref_late: 66
CPLX:misses: 22745
CPLX:misses_by_poll: 244

NL_L1: 
NL:times selected: 628
NL:pref_filled: 49
NL:pref_useful: 44
NL:pref_late: 2
NL:misses: 16
NL:misses_by_poll: 0

total selections: 8905175
total_filled: 887959
total_useful: 767333
total_late: 662
total_polluted: 267
total_misses_after_warmup: 43096
conflicts: 4679
Degree Incremented Times: 102274
Degree Decremented Times: 0

L1 IP Table Write Accesses: 9931598
L1 IP Table Read Accesses: 9926919
L1 RST Write Accesses: 3696245
L1 RST Read Accesses: 7392490
L1 CSPT Write Accesses: 3696245
L1 CSPT Read Accesses: 5529674
L1 RR Filter Tag Write Accesses: 1232726
L1 RR Filter Tag Read Accesses: 733830162
L1 IP Table Tag Write Accesses: 9945866
L1 IP Table Tag Read Accesses: 9945866
L1 RST Tag Write Accesses: 0
L1 RST Tag Read Accesses: 33142038
L1 RR Filter Write Accesses: 0
L1 RR Filter Read Accesses: 31060834
test: 297433
L2 IP Table Read Accesses: 1597272
L2 IP Table Write Accesses: 1559666
L2 IP Table Tag Read Accesses: 799147
L2 IP Table Tag Write Accesses: 799147

DRAM Statistics
 CHANNEL 0
 RQ ROW_BUFFER_HIT:     415614  ROW_BUFFER_MISS:      57806
 DBUS_CONGESTED:     160741
 WQ ROW_BUFFER_HIT:        805  ROW_BUFFER_MISS:       2533  FULL:          0

 AVG_CONGESTED_CYCLE: 37
 All warmup complete: 2
Channel 0 Bank busy for read cycles: 0
Channel 0 Bank busy for write cycles: 0
Channel 0
Rank 0
0banks busy for read cycles: 101079731
0banks busy for write cycles: 2541
1banks busy for read cycles: 16788691
1banks busy for write cycles: 417063
2banks busy for read cycles: 1396551
2banks busy for write cycles: 51005
3banks busy for read cycles: 1087062
3banks busy for write cycles: 18037
4banks busy for read cycles: 940276
4banks busy for write cycles: 8833
5banks busy for read cycles: 902447
5banks busy for write cycles: 5655
6banks busy for read cycles: 912552
6banks busy for write cycles: 2015
7banks busy for read cycles: 1009154
7banks busy for write cycles: 1512
8banks busy for read cycles: 787436
8banks busy for write cycles: 1474

CPU 0 Branch Prediction Accuracy: 94.7226% MPKI: 12.5192 Average ROB Occupancy at Mispredict: 59.1184
Branch types
NOT_BRANCH: 38138565 76.2771%
BRANCH_DIRECT_JUMP: 1247487 2.49497%
BRANCH_INDIRECT: 0 0%
BRANCH_CONDITIONAL: 9360076 18.7202%
BRANCH_DIRECT_CALL: 626785 1.25357%
BRANCH_INDIRECT_CALL: 0 0%
BRANCH_RETURN: 626786 1.25357%
BRANCH_OTHER: 0 0%

@sumon_overall_L1D    767333       575    120580    887959   2465231   2465340
@Sumon_Early_by_class_L1D    707397      4275     55620         2
@Sumon_Late_by_class_L1D       483        20        57         2

@Sumon_Early_by_cycle_L1D       760      5483     12897     12519     17381    647812     31997     20376      2920      3708     11419        61
@Sumon_Late_by_cycle_L1D       419       116        37         3         0         0         0         0         0         0         0         0
@Sumon_Early_stream_L1D       710      5228     12359     11501     14400    632668     14439       390      1103      3491     11103         5
@Sumon_Early_CS_L1D        27        79       165       399      2033      1111       130        63        70       121        77         0
@Sumon_Early_CPLX_L1D        22       168       346       614       948     14033     17428     19923      1747        96       239        56
@Sumon_Late_stream_L1D       348       102        32         1         0         0         0         0         0         0         0         0
@Sumon_Late_CS_L1D        13         6         1         0         0         0         0         0         0         0         0         0
@Sumon_Late_CPLX_L1D        43         8         4         2         0         0         0         0         0         0         0         0
@sumon_overall_L2C      5262        60    456184    462011   4000392   4003158
@Sumon_Early_by_class_L2C      4917        51       283         0
@Sumon_Late_by_class_L2C        57         1         0         0

@Sumon_Early_by_cycle_L2C        23        34        32        18        21        97       296         9         4         2         6      4720
@Sumon_Late_by_cycle_L2C        15        35         5         3         1         1         0         0         0         0         0         0
@Sumon_Early_stream_L2C        18        34        32        17        20        93       296         9         4         2         6      4386
@Sumon_Early_CS_L2C         0         0         0         0         1         3         0         0         0         0         0        47
@Sumon_Early_CPLX_L2C         0         0         0         0         0         0         0         0         0         0         0       283
@Sumon_Late_stream_L2C        14        34         5         2         1         1         0         0         0         0         0         0
@Sumon_Late_CS_L2C         0         0         0         1         0         0         0         0         0         0         0         0
@Sumon_Late_CPLX_L2C         0         0         0         0         0         0         0         0         0         0         0         0
DRAM PAGES: 1048576
Allocated PAGES: 6201
