
*** ChampSim Multicore Out-of-Order Simulator ***

Warmup Instructions: 10000000
Simulation Instructions: 50000000
Number of CPUs: 1
LLC sets: 2048
LLC ways: 16
Off-chip DRAM Size: 4096 MB Channels: 1 Width: 64-bit Data Rate: 800 MT/s
CPU 0 runs traces/SPEC2017/605.mcf_s-782B.champsimtrace.xz
.xz
CPU 0 Bimodal branch predictor
BTB has LRU replacement policy
ITLB has LRU replacement policy
DTLB has LRU replacement policy
STLB has LRU replacement policy
L1I has LRU replacement policy
IP Table Entries: 256
L1D has LRU replacement policy
IP_Table L2 entries: 256
L2C has LRU replacement policy
LLC has LRU replacement policy
Heartbeat CPU 0 instructions: 10000001 cycles: 3789789 heartbeat IPC: 2.63867 cumulative IPC: 2.63867 (Simulation time: 0 hr 30 min 57 sec) 

Warmup complete CPU 0 instructions: 10000001 cycles: 3789789 (Simulation time: 0 hr 30 min 57 sec) 

Heartbeat CPU 0 instructions: 20000000 cycles: 70875564 heartbeat IPC: 0.149063 cumulative IPC: 0.149063 (Simulation time: 1 hr 12 min 35 sec) 
Heartbeat CPU 0 instructions: 30000001 cycles: 144275693 heartbeat IPC: 0.13624 cumulative IPC: 0.142363 (Simulation time: 1 hr 54 min 21 sec) 
Heartbeat CPU 0 instructions: 40000001 cycles: 216098571 heartbeat IPC: 0.139231 cumulative IPC: 0.141304 (Simulation time: 2 hr 19 min 42 sec) 
Heartbeat CPU 0 instructions: 50000000 cycles: 291327090 heartbeat IPC: 0.132928 cumulative IPC: 0.139112 (Simulation time: 2 hr 42 min 6 sec) 
Heartbeat CPU 0 instructions: 60000000 cycles: 360858053 heartbeat IPC: 0.143821 cumulative IPC: 0.140029 (Simulation time: 3 hr 0 min 5 sec) 
Finished CPU 0 instructions: 50000000 cycles: 357068301 cumulative IPC: 0.140029 (Simulation time: 3 hr 0 min 5 sec) 

ChampSim completed all CPUs

Region of Interest Statistics

CPU 0 cumulative IPC: 0.140029 instructions: 50000000 cycles: 357068301
ITLB TOTAL     ACCESS:    8170587  HIT:    8170587  MISS:          0  HIT %:        100  MISS %:          0   MPKI: 0
ITLB LOAD TRANSLATION ACCESS:    8170587  HIT:    8170587  MISS:          0  HIT %:        100  MISS %:          0   MPKI: 0
ITLB PREFETCH  REQUESTED:          0  ISSUED:          0  USEFUL:          0  USELESS:          0
ITLB USEFUL LOAD PREFETCHES:          0 PREFETCH ISSUED TO LOWER LEVEL:          0  ACCURACY: -nan
ITLB TIMELY PREFETCHES:          0 LATE PREFETCHES: 0 DROPPED PREFETCHES: 0
ITLB PREFETCHES SAME FILL-ORIGIN LEVEL: 0 DIFFERENT FILL-ORIGIN LEVEL: 0
ITLB AVERAGE MISS LATENCY: -nan cycles
ITLB RQ	ACCESS:    8284719	FORWARD:          0	MERGED:     114132	TO_CACHE:    8170587

DTLB TOTAL     ACCESS:   10587957  HIT:    6259652  MISS:    4328305  HIT %:    59.1205  MISS %:    40.8795   MPKI: 86.5661
DTLB LOAD TRANSLATION ACCESS:   10587957  HIT:    6259652  MISS:    4328305  HIT %:    59.1205  MISS %:    40.8795   MPKI: 86.5661
DTLB PREFETCH  REQUESTED:          0  ISSUED:          0  USEFUL:          0  USELESS:          0
DTLB USEFUL LOAD PREFETCHES:          0 PREFETCH ISSUED TO LOWER LEVEL:          0  ACCURACY: -nan
DTLB TIMELY PREFETCHES:          0 LATE PREFETCHES: 0 DROPPED PREFETCHES: 0
DTLB PREFETCHES SAME FILL-ORIGIN LEVEL: 0 DIFFERENT FILL-ORIGIN LEVEL: 0
DTLB AVERAGE MISS LATENCY: 11.4008 cycles
DTLB RQ	ACCESS:   11705415	FORWARD:          0	MERGED:    1054681	TO_CACHE:   10650734

STLB TOTAL     ACCESS:   11313229  HIT:   11256656  MISS:      56573  HIT %:    99.4999  MISS %:   0.500061   MPKI: 1.13146
STLB LOAD TRANSLATION ACCESS:    4328304  HIT:    4271731  MISS:      56573  HIT %:     98.693  MISS %:    1.30705   MPKI: 1.13146
STLB TRANSLATION FROM L1D PREFETCHER ACCESS:    6984925  HIT:    6984925  MISS:          0  HIT %:        100  MISS %:          0   MPKI: 0
STLB PREFETCH  REQUESTED:          0  ISSUED:          0  USEFUL:          0  USELESS:          0
STLB USEFUL LOAD PREFETCHES:          0 PREFETCH ISSUED TO LOWER LEVEL:          0  ACCURACY: -nan
STLB TIMELY PREFETCHES:          0 LATE PREFETCHES: 0 DROPPED PREFETCHES: 0
STLB PREFETCHES SAME FILL-ORIGIN LEVEL: 0 DIFFERENT FILL-ORIGIN LEVEL: 0
STLB AVERAGE MISS LATENCY: 158.914 cycles
STLB RQ	ACCESS:   12672224	FORWARD:          0	MERGED:    1359001	TO_CACHE:   11313223

STLB Hit, L1D data hit: 0
STLB Hit, L2C data hit: 0
STLB Hit, LLC data hit: 0
STLB Hit, LLC data miss: 0
STLB STLB hints to L2: 0
L1D TOTAL     ACCESS:   18643609  HIT:    6123386  MISS:   12520223  HIT %:    32.8444  MISS %:    67.1556   MPKI: 250.404
L1D LOAD      ACCESS:   10562269  HIT:    4506742  MISS:    6055527  HIT %:    42.6683  MISS %:    57.3317   MPKI: 121.111
L1D RFO       ACCESS:     947693  HIT:     930989  MISS:      16704  HIT %:    98.2374  MISS %:     1.7626   MPKI: 0.33408
L1D PREFETCH  ACCESS:    7133647  HIT:     685655  MISS:    6447992  HIT %:    9.61156  MISS %:    90.3884   MPKI: 128.96
L1D PREFETCH  REQUESTED:   16688486  ISSUED:   16688328  USEFUL:    1583989  USELESS:    4864002
L1D USEFUL LOAD PREFETCHES:    1583989 PREFETCH ISSUED TO LOWER LEVEL:    7203663  ACCURACY: 21.9887
L1D TIMELY PREFETCHES:    1583989 LATE PREFETCHES: 755658 DROPPED PREFETCHES: 0
L1D PREFETCHES SAME FILL-ORIGIN LEVEL: 7203663 DIFFERENT FILL-ORIGIN LEVEL: 0
L1D AVERAGE MISS LATENCY: 1.10107e+07 cycles
L1D RQ	ACCESS:   17873623	FORWARD:          0	MERGED:    7006929	TO_CACHE:   10715272
L1D WQ	ACCESS:    1026019	FORWARD:     151906	MERGED:      35876	TO_CACHE:     990143
L1D PQ	ACCESS:    8344406	FORWARD:          0	MERGED:          0	TO_CACHE:    8343922

L1D UNIQUE REGIONS ACCESSED: 0
L1D REGIONS CONFLICTS: 0
L1D Cross Page Prefetch Requests: 0
L1D Same Page Prefetch Requests: 9972561
L1D ROI Sum of L1D PQ occupancy: 115824367
L1D PREFETCHES PUSHED FROM L2C: 0
L1I TOTAL     ACCESS:    8284719  HIT:    8284719  MISS:          0  HIT %:        100  MISS %:          0   MPKI: 0
L1I LOAD      ACCESS:    8284719  HIT:    8284719  MISS:          0  HIT %:        100  MISS %:          0   MPKI: 0
L1I PREFETCH  REQUESTED:          0  ISSUED:          0  USEFUL:          0  USELESS:          0
L1I USEFUL LOAD PREFETCHES:          0 PREFETCH ISSUED TO LOWER LEVEL:          0  ACCURACY: -nan
L1I TIMELY PREFETCHES:          0 LATE PREFETCHES: 0 DROPPED PREFETCHES: 0
L1I PREFETCHES SAME FILL-ORIGIN LEVEL: 0 DIFFERENT FILL-ORIGIN LEVEL: 0
L1I AVERAGE MISS LATENCY: -nan cycles
L1I RQ	ACCESS:   11211764	FORWARD:          0	MERGED:    2927045	TO_CACHE:    8284719

BTB TOTAL     ACCESS:   14274117  HIT:   14220061  MISS:      54056  HIT %:    99.6213  MISS %:   0.378699   MPKI: 1.08112
BTB BRANCH_DIRECT_JUMP	ACCESS:    1888246  HIT:    1888209  MISS:         37
BTB BRANCH_INDIRECT	ACCESS:          0  HIT:          0  MISS:          0
BTB BRANCH_CONDITIONAL	ACCESS:   11987047  HIT:   11986967  MISS:         80
BTB BRANCH_DIRECT_CALL	ACCESS:     184334  HIT:     184317  MISS:         17
BTB BRANCH_INDIRECT_CALL	ACCESS:      15078  HIT:      15070  MISS:          8
BTB BRANCH_RETURN	ACCESS:     199412  HIT:     145498  MISS:      53914
BTB BRANCH_OTHER ACCESS:          0  HIT:          0  MISS:          0

L2C TOTAL     ACCESS:   13982233  HIT:    2618498  MISS:   11363735  HIT %:    18.7273  MISS %:    81.2727   MPKI: 227.275
L2C LOAD      ACCESS:    5299828  HIT:     739827  MISS:    4560001  HIT %:    13.9595  MISS %:    86.0405   MPKI: 91.2
L2C DATA LOAD MPKI: 91.2
L2C INSTRUCTION LOAD MPKI: 0
L2C RFO       ACCESS:      16695  HIT:       1131  MISS:      15564  HIT %:    6.77448  MISS %:    93.2255   MPKI: 0.31128
L2C PREFETCH  ACCESS:    8454970  HIT:    1685112  MISS:    6769858  HIT %:    19.9304  MISS %:    80.0696   MPKI: 135.397
L2C DATA PREFETCH MPKI: 135.397
L2C INSTRUCTION PREFETCH MPKI: 0
L2C WRITEBACK ACCESS:     153787  HIT:     153787  MISS:          0  HIT %:        100  MISS %:          0   MPKI: 0
L2C LOAD TRANSLATION ACCESS:      56953  HIT:      38641  MISS:      18312  HIT %:    67.8472  MISS %:    32.1528   MPKI: 0.36624
L2C PREFETCH  REQUESTED:    4304830  ISSUED:    4304824  USEFUL:     229169  USELESS:    6540833
L2C USEFUL LOAD PREFETCHES:     229169 PREFETCH ISSUED TO LOWER LEVEL:    6804255  ACCURACY: 3.36802
L2C TIMELY PREFETCHES:     229169 LATE PREFETCHES: 34394 DROPPED PREFETCHES: 0
L2C PREFETCHES SAME FILL-ORIGIN LEVEL: 1631073 DIFFERENT FILL-ORIGIN LEVEL: 0
L2C AVERAGE MISS LATENCY: 180.156 cycles
L2C RQ	ACCESS:    5373516	FORWARD:          0	MERGED:          0	TO_CACHE:    5373478
L2C WQ	ACCESS:     153787	FORWARD:         51	MERGED:          0	TO_CACHE:     153787
L2C PQ	ACCESS:   11508481	FORWARD:          0	MERGED:    1651925	TO_CACHE:    9856543

L2C Instructions Evicting Data 0
L2C Translations Evicting Data 18256
L2C Data Evicting Data 11327172
L2C Instructions Evicting Instructions 0
L2C Translations Evicting Instructions 0
L2C Data Evicting Instructions 0
L2C Instructions Evicting Translations 0
L2C Translations Evicting Translations 56
L2C Data Evicting Translations 18251
L2C Dense regions hint from L2: 0
PSCL5 TOTAL     ACCESS:      56573  HIT:      56573  MISS:          0  HIT %:        100  MISS %:          0   MPKI: 0
PSCL5 LOAD TRANSLATION ACCESS:      56573  HIT:      56573  MISS:          0  HIT %:        100  MISS %:          0   MPKI: 0
PSCL5 PREFETCH  REQUESTED:          0  ISSUED:          0  USEFUL:          0  USELESS:          0
PSCL5 USEFUL LOAD PREFETCHES:          0 PREFETCH ISSUED TO LOWER LEVEL:          0  ACCURACY: -nan
PSCL5 TIMELY PREFETCHES:          0 LATE PREFETCHES: 0 DROPPED PREFETCHES: 0
PSCL5 PREFETCHES SAME FILL-ORIGIN LEVEL: 0 DIFFERENT FILL-ORIGIN LEVEL: 0

PSCL4 TOTAL     ACCESS:      56573  HIT:      56573  MISS:          0  HIT %:        100  MISS %:          0   MPKI: 0
PSCL4 LOAD TRANSLATION ACCESS:      56573  HIT:      56573  MISS:          0  HIT %:        100  MISS %:          0   MPKI: 0
PSCL4 PREFETCH  REQUESTED:          0  ISSUED:          0  USEFUL:          0  USELESS:          0
PSCL4 USEFUL LOAD PREFETCHES:          0 PREFETCH ISSUED TO LOWER LEVEL:          0  ACCURACY: -nan
PSCL4 TIMELY PREFETCHES:          0 LATE PREFETCHES: 0 DROPPED PREFETCHES: 0
PSCL4 PREFETCHES SAME FILL-ORIGIN LEVEL: 0 DIFFERENT FILL-ORIGIN LEVEL: 0

PSCL3 TOTAL     ACCESS:      56573  HIT:      56573  MISS:          0  HIT %:        100  MISS %:          0   MPKI: 0
PSCL3 LOAD TRANSLATION ACCESS:      56573  HIT:      56573  MISS:          0  HIT %:        100  MISS %:          0   MPKI: 0
PSCL3 PREFETCH  REQUESTED:          0  ISSUED:          0  USEFUL:          0  USELESS:          0
PSCL3 USEFUL LOAD PREFETCHES:          0 PREFETCH ISSUED TO LOWER LEVEL:          0  ACCURACY: -nan
PSCL3 TIMELY PREFETCHES:          0 LATE PREFETCHES: 0 DROPPED PREFETCHES: 0
PSCL3 PREFETCHES SAME FILL-ORIGIN LEVEL: 0 DIFFERENT FILL-ORIGIN LEVEL: 0

PSCL2 TOTAL     ACCESS:      56573  HIT:      55907  MISS:        666  HIT %:    98.8228  MISS %:    1.17724   MPKI: 0.01332
PSCL2 LOAD TRANSLATION ACCESS:      56573  HIT:      55907  MISS:        666  HIT %:    98.8228  MISS %:    1.17724   MPKI: 0.01332
PSCL2 PREFETCH  REQUESTED:          0  ISSUED:          0  USEFUL:          0  USELESS:          0
PSCL2 USEFUL LOAD PREFETCHES:          0 PREFETCH ISSUED TO LOWER LEVEL:          0  ACCURACY: -nan
PSCL2 TIMELY PREFETCHES:          0 LATE PREFETCHES: 0 DROPPED PREFETCHES: 0
PSCL2 PREFETCHES SAME FILL-ORIGIN LEVEL: 0 DIFFERENT FILL-ORIGIN LEVEL: 0

LLC TOTAL     ACCESS:   11508571  HIT:    5947908  MISS:    5560663  HIT %:    51.6824  MISS %:    48.3176   MPKI: 111.213
LLC LOAD      ACCESS:    4525608  HIT:    2959147  MISS:    1566461  HIT %:    65.3867  MISS %:    34.6133   MPKI: 31.3292
LLC RFO       ACCESS:      15563  HIT:      13255  MISS:       2308  HIT %:      85.17  MISS %:      14.83   MPKI: 0.04616
LLC PREFETCH  ACCESS:    6804252  HIT:    2824799  MISS:    3979453  HIT %:    41.5152  MISS %:    58.4848   MPKI: 79.5891
LLC WRITEBACK ACCESS:     144836  HIT:     144759  MISS:         77  HIT %:    99.9468  MISS %:  0.0531636   MPKI: 0.00154
LLC LOAD TRANSLATION ACCESS:      18312  HIT:       5948  MISS:      12364  HIT %:    32.4814  MISS %:    67.5186   MPKI: 0.24728
LLC PREFETCH  REQUESTED:          0  ISSUED:          0  USEFUL:     128930  USELESS:    3850618
LLC USEFUL LOAD PREFETCHES:     128930 PREFETCH ISSUED TO LOWER LEVEL:    3979457  ACCURACY: 3.23989
LLC TIMELY PREFETCHES:     128930 LATE PREFETCHES: 0 DROPPED PREFETCHES: 0
LLC PREFETCHES SAME FILL-ORIGIN LEVEL: 0 DIFFERENT FILL-ORIGIN LEVEL: 0
LLC AVERAGE MISS LATENCY: 307.153 cycles
LLC RQ	ACCESS:    4559485	FORWARD:          0	MERGED:          0	TO_CACHE:    4559485
LLC WQ	ACCESS:     144836	FORWARD:          0	MERGED:          0	TO_CACHE:     144836
LLC PQ	ACCESS:    6804255	FORWARD:          0	MERGED:          0	TO_CACHE:    6804255

LLC Dense regions hint to LLC: 0

RAW hits: 130383
Loads Generated: 18004006
Loads sent to L1D: 17873623
Stores Generated: 1026019
Stores sent to L1D: 1026019
Major fault: 0 Minor fault: 52663
Allocated PAGES: 52663

stream: 
stream:times selected: 11456000
stream:pref_filled: 5505671
stream:pref_useful: 67588
stream:pref_late: 11540
stream:misses: 1315314
stream:misses_by_poll: 0

CS: 
CS:times selected: 3118521
CS:pref_filled: 1807016
CS:pref_useful: 1764277
CS:pref_late: 892071
CS:misses: 1324275
CS:misses_by_poll: 5238

CPLX: 
CPLX:times selected: 8265613
CPLX:pref_filled: 345296
CPLX:pref_useful: 33084
CPLX:pref_late: 5626
CPLX:misses: 4891808
CPLX:misses_by_poll: 425

NL_L1: 
NL:times selected: 10672
NL:pref_filled: 4537
NL:pref_useful: 169
NL:pref_late: 13
NL:misses: 6382
NL:misses_by_poll: 0

total selections: 22850806
total_filled: 6447992
total_useful: 1583989
total_late: 935738
total_polluted: 5663
total_misses_after_warmup: 6208534
conflicts: 23269
Degree Incremented Times: 74255
Degree Decremented Times: 117499

L1 IP Table Write Accesses: 10651442
L1 IP Table Read Accesses: 10628173
L1 RST Write Accesses: 9202969
L1 RST Read Accesses: 18405938
L1 CSPT Write Accesses: 9202969
L1 CSPT Read Accesses: 15909713
L1 RR Filter Tag Write Accesses: 8344564
L1 RR Filter Tag Read Accesses: 497451983
L1 IP Table Tag Write Accesses: 10715276
L1 IP Table Tag Read Accesses: 10715276
L1 RST Tag Write Accesses: 0
L1 RST Tag Read Accesses: 82961954
L1 RR Filter Write Accesses: 0
L1 RR Filter Read Accesses: 16825993
test: 5238253
L2 IP Table Read Accesses: 22638287
L2 IP Table Write Accesses: 17342767
L2 IP Table Tag Read Accesses: 11321205
L2 IP Table Tag Write Accesses: 11321205

DRAM Statistics
 CHANNEL 0
 RQ ROW_BUFFER_HIT:    1136903  ROW_BUFFER_MISS:    4423475
 DBUS_CONGESTED:    4318802
 WQ ROW_BUFFER_HIT:      19300  ROW_BUFFER_MISS:      42898  FULL:          0

 AVG_CONGESTED_CYCLE: 35
 All warmup complete: 2
Channel 0 Bank busy for read cycles: 0
Channel 0 Bank busy for write cycles: 0
Channel 0
Rank 0
0banks busy for read cycles: 55046289
0banks busy for write cycles: 17600
1banks busy for read cycles: 53270538
1banks busy for write cycles: 5072151
2banks busy for read cycles: 49469332
2banks busy for write cycles: 1209862
3banks busy for read cycles: 41622010
3banks busy for write cycles: 404672
4banks busy for read cycles: 38009545
4banks busy for write cycles: 222012
5banks busy for read cycles: 34917683
5banks busy for write cycles: 157769
6banks busy for read cycles: 32414433
6banks busy for write cycles: 134811
7banks busy for read cycles: 26649224
7banks busy for write cycles: 251022
8banks busy for read cycles: 16293225
8banks busy for write cycles: 1906124

CPU 0 Branch Prediction Accuracy: 96.3481% MPKI: 11.0798 Average ROB Occupancy at Mispredict: 47.3045
Branch types
NOT_BRANCH: 34829913 69.6598%
BRANCH_DIRECT_JUMP: 1888246 3.77649%
BRANCH_INDIRECT: 0 0%
BRANCH_CONDITIONAL: 12882825 25.7657%
BRANCH_DIRECT_CALL: 184334 0.368668%
BRANCH_INDIRECT_CALL: 15078 0.030156%
BRANCH_RETURN: 199412 0.398824%
BRANCH_OTHER: 0 0%

@sumon_overall_L1D   1583989    755658   4864002   6447992  16688328  16688486
@Sumon_Early_by_class_L1D     57112   1495629     31245         0
@Sumon_Late_by_class_L1D      9282    723091      5264         0

@Sumon_Early_by_cycle_L1D    329777    221364    538633    313955    113167     40907      4015      4505      7203      8307      2129        27
@Sumon_Late_by_cycle_L1D    226921    282356    197381     44034      4435       526         7         0         0         0         0         0
@Sumon_Early_stream_L1D      8664     10128      8496      3135      1328      1970      3257      4192      6420      7559      1938        25
@Sumon_Early_CS_L1D    318974    208321    523024    303926    106830     33660       183        18       249       339       104         1
@Sumon_Early_CPLX_L1D      2137      2915      7113      6893      5009      5277       575       295       534       409        87         1
@Sumon_Late_stream_L1D      5899      2147      1032       180        15         9         0         0         0         0         0         0
@Sumon_Late_CS_L1D    201102    278052    195367     43659      4393       511         7         0         0         0         0         0
@Sumon_Late_CPLX_L1D      1897      2157       982       195        27         6         0         0         0         0         0         0
@sumon_overall_L2C    229169     34394   6540833   6769858   4304824   4304830
@Sumon_Early_by_class_L2C    113363    108014      7124         0
@Sumon_Late_by_class_L2C         0     32862         0         0

@Sumon_Early_by_cycle_L2C     17784     26461     39277     16773      4006      1383        48        42      1371     23494     29817     68713
@Sumon_Late_by_cycle_L2C     15322     10506      7154      1228       136        47         1         0         0         0         0         0
@Sumon_Early_stream_L2C         0         0         0         0         0         0         6        21      1172     21342     26736     64086
@Sumon_Early_CS_L2C     17586     26452     39277     16773      4004      1198        35        10        57       501      1278       843
@Sumon_Early_CPLX_L2C         0         0         0         0         0         0         4         5        81      1463      1792      3779
@Sumon_Late_stream_L2C         0         0         0         0         0         0         0         0         0         0         0         0
@Sumon_Late_CS_L2C     13826     10470      7154      1228       136        47         1         0         0         0         0         0
@Sumon_Late_CPLX_L2C         0         0         0         0         0         0         0         0         0         0         0         0
DRAM PAGES: 1048576
Allocated PAGES: 52663
