
*** ChampSim Multicore Out-of-Order Simulator ***

Warmup Instructions: 10000000
Simulation Instructions: 50000000
Number of CPUs: 1
LLC sets: 2048
LLC ways: 16
Off-chip DRAM Size: 4096 MB Channels: 1 Width: 64-bit Data Rate: 800 MT/s
CPU 0 runs traces/SPEC2017/641.leela_s-1083B.champsimtrace.xz
.xz
CPU 0 Bimodal branch predictor
BTB has LRU replacement policy
ITLB has LRU replacement policy
DTLB has LRU replacement policy
STLB has LRU replacement policy
L1I has LRU replacement policy
IP Table Entries: 256
L1D has LRU replacement policy
IP_Table L2 entries: 256
L2C has LRU replacement policy
LLC has LRU replacement policy
Heartbeat CPU 0 instructions: 10000000 cycles: 3150384 heartbeat IPC: 3.17422 cumulative IPC: 3.17422 (Simulation time: 0 hr 21 min 33 sec) 

Warmup complete CPU 0 instructions: 10000001 cycles: 3150390 (Simulation time: 0 hr 21 min 33 sec) 

Heartbeat CPU 0 instructions: 20000002 cycles: 33043969 heartbeat IPC: 0.33452 cumulative IPC: 0.33452 (Simulation time: 0 hr 40 min 26 sec) 
Heartbeat CPU 0 instructions: 30000000 cycles: 63404086 heartbeat IPC: 0.329379 cumulative IPC: 0.33193 (Simulation time: 0 hr 59 min 35 sec) 
Heartbeat CPU 0 instructions: 40000003 cycles: 93428120 heartbeat IPC: 0.333067 cumulative IPC: 0.332308 (Simulation time: 1 hr 18 min 40 sec) 
Heartbeat CPU 0 instructions: 50000002 cycles: 123322344 heartbeat IPC: 0.334513 cumulative IPC: 0.332856 (Simulation time: 1 hr 37 min 42 sec) 
Heartbeat CPU 0 instructions: 60000002 cycles: 153136422 heartbeat IPC: 0.335412 cumulative IPC: 0.333364 (Simulation time: 1 hr 55 min 24 sec) 
Finished CPU 0 instructions: 50000001 cycles: 149986032 cumulative IPC: 0.333364 (Simulation time: 1 hr 55 min 24 sec) 

ChampSim completed all CPUs

Region of Interest Statistics

CPU 0 cumulative IPC: 0.333364 instructions: 50000001 cycles: 149986032
ITLB TOTAL     ACCESS:    8695673  HIT:    8695673  MISS:          0  HIT %:        100  MISS %:          0   MPKI: 0
ITLB LOAD TRANSLATION ACCESS:    8695673  HIT:    8695673  MISS:          0  HIT %:        100  MISS %:          0   MPKI: 0
ITLB PREFETCH  REQUESTED:          0  ISSUED:          0  USEFUL:          0  USELESS:          0
ITLB USEFUL LOAD PREFETCHES:          0 PREFETCH ISSUED TO LOWER LEVEL:          0  ACCURACY: -nan
ITLB TIMELY PREFETCHES:          0 LATE PREFETCHES: 0 DROPPED PREFETCHES: 0
ITLB PREFETCHES SAME FILL-ORIGIN LEVEL: 0 DIFFERENT FILL-ORIGIN LEVEL: 0
ITLB AVERAGE MISS LATENCY: -nan cycles
ITLB RQ	ACCESS:    9945196	FORWARD:          0	MERGED:    1249523	TO_CACHE:    8695673

DTLB TOTAL     ACCESS:   14310075  HIT:   14288860  MISS:      21215  HIT %:    99.8517  MISS %:   0.148252   MPKI: 0.4243
DTLB LOAD TRANSLATION ACCESS:   14310075  HIT:   14288860  MISS:      21215  HIT %:    99.8517  MISS %:   0.148252   MPKI: 0.4243
DTLB PREFETCH  REQUESTED:          0  ISSUED:          0  USEFUL:          0  USELESS:          0
DTLB USEFUL LOAD PREFETCHES:          0 PREFETCH ISSUED TO LOWER LEVEL:          0  ACCURACY: -nan
DTLB TIMELY PREFETCHES:          0 LATE PREFETCHES: 0 DROPPED PREFETCHES: 0
DTLB PREFETCHES SAME FILL-ORIGIN LEVEL: 0 DIFFERENT FILL-ORIGIN LEVEL: 0
DTLB AVERAGE MISS LATENCY: 10.623 cycles
DTLB RQ	ACCESS:   16204329	FORWARD:          0	MERGED:    1893478	TO_CACHE:   14310851

STLB TOTAL     ACCESS:     831690  HIT:     831497  MISS:        193  HIT %:    99.9768  MISS %:  0.0232058   MPKI: 0.00386
STLB LOAD TRANSLATION ACCESS:      21215  HIT:      21022  MISS:        193  HIT %:    99.0903  MISS %:   0.909734   MPKI: 0.00386
STLB TRANSLATION FROM L1D PREFETCHER ACCESS:     810475  HIT:     810475  MISS:          0  HIT %:        100  MISS %:          0   MPKI: 0
STLB PREFETCH  REQUESTED:          0  ISSUED:          0  USEFUL:          0  USELESS:          0
STLB USEFUL LOAD PREFETCHES:          0 PREFETCH ISSUED TO LOWER LEVEL:          0  ACCURACY: -nan
STLB TIMELY PREFETCHES:          0 LATE PREFETCHES: 0 DROPPED PREFETCHES: 0
STLB PREFETCHES SAME FILL-ORIGIN LEVEL: 0 DIFFERENT FILL-ORIGIN LEVEL: 0
STLB AVERAGE MISS LATENCY: 178.321 cycles
STLB RQ	ACCESS:    1054537	FORWARD:          0	MERGED:     222847	TO_CACHE:     831690

STLB Hit, L1D data hit: 0
STLB Hit, L2C data hit: 0
STLB Hit, LLC data hit: 0
STLB Hit, LLC data miss: 0
STLB STLB hints to L2: 0
L1D TOTAL     ACCESS:   17209238  HIT:   17032781  MISS:     176457  HIT %:    98.9746  MISS %:    1.02536   MPKI: 3.52914
L1D LOAD      ACCESS:   10467150  HIT:   10401741  MISS:      65409  HIT %:    99.3751  MISS %:   0.624898   MPKI: 1.30818
L1D RFO       ACCESS:    5715126  HIT:    5698878  MISS:      16248  HIT %:    99.7157  MISS %:   0.284298   MPKI: 0.32496
L1D PREFETCH  ACCESS:    1026962  HIT:     932162  MISS:      94800  HIT %:    90.7689  MISS %:    9.23111   MPKI: 1.896
L1D PREFETCH  REQUESTED:    2066669  ISSUED:    2066669  USEFUL:      56222  USELESS:      38660
L1D USEFUL LOAD PREFETCHES:      56222 PREFETCH ISSUED TO LOWER LEVEL:      97338  ACCURACY: 57.7596
L1D TIMELY PREFETCHES:      56222 LATE PREFETCHES: 2518 DROPPED PREFETCHES: 0
L1D PREFETCHES SAME FILL-ORIGIN LEVEL: 97338 DIFFERENT FILL-ORIGIN LEVEL: 0
L1D AVERAGE MISS LATENCY: 1.236e+06 cycles
L1D RQ	ACCESS:   13170002	FORWARD:          0	MERGED:    2138585	TO_CACHE:   10467886
L1D WQ	ACCESS:    5839795	FORWARD:     563556	MERGED:     103352	TO_CACHE:    5736443
L1D PQ	ACCESS:    1033347	FORWARD:          0	MERGED:          0	TO_CACHE:    1033322

L1D UNIQUE REGIONS ACCESSED: 0
L1D REGIONS CONFLICTS: 0
L1D Cross Page Prefetch Requests: 0
L1D Same Page Prefetch Requests: 1257434
L1D ROI Sum of L1D PQ occupancy: 13171359
L1D PREFETCHES PUSHED FROM L2C: 0
L1I TOTAL     ACCESS:    9944114  HIT:    9940812  MISS:       3302  HIT %:    99.9668  MISS %:  0.0332056   MPKI: 0.06604
L1I LOAD      ACCESS:    9944114  HIT:    9940812  MISS:       3302  HIT %:    99.9668  MISS %:  0.0332056   MPKI: 0.06604
L1I PREFETCH  REQUESTED:          0  ISSUED:          0  USEFUL:          0  USELESS:          0
L1I USEFUL LOAD PREFETCHES:          0 PREFETCH ISSUED TO LOWER LEVEL:          0  ACCURACY: -nan
L1I TIMELY PREFETCHES:          0 LATE PREFETCHES: 0 DROPPED PREFETCHES: 0
L1I PREFETCHES SAME FILL-ORIGIN LEVEL: 0 DIFFERENT FILL-ORIGIN LEVEL: 0
L1I AVERAGE MISS LATENCY: 16.9146 cycles
L1I RQ	ACCESS:   13911266	FORWARD:          0	MERGED:    3966070	TO_CACHE:    9945196

BTB TOTAL     ACCESS:    7975109  HIT:    7388937  MISS:     586172  HIT %:      92.65  MISS %:    7.35002   MPKI: 11.7234
BTB BRANCH_DIRECT_JUMP	ACCESS:     266110  HIT:     266027  MISS:         83
BTB BRANCH_INDIRECT	ACCESS:        390  HIT:        347  MISS:         43
BTB BRANCH_CONDITIONAL	ACCESS:    4732433  HIT:    4731753  MISS:        680
BTB BRANCH_DIRECT_CALL	ACCESS:    1488087  HIT:    1487821  MISS:        266
BTB BRANCH_INDIRECT_CALL	ACCESS:          0  HIT:          0  MISS:          0
BTB BRANCH_RETURN	ACCESS:    1488089  HIT:     902989  MISS:     585100
BTB BRANCH_OTHER ACCESS:          0  HIT:          0  MISS:          0

L2C TOTAL     ACCESS:     297869  HIT:     291708  MISS:       6161  HIT %:    97.9316  MISS %:    2.06836   MPKI: 0.12322
L2C LOAD      ACCESS:      66188  HIT:      64937  MISS:       1251  HIT %:    98.1099  MISS %:    1.89007   MPKI: 0.02502
L2C DATA LOAD MPKI: 0.02406
L2C INSTRUCTION LOAD MPKI: 0.00096
L2C RFO       ACCESS:      16228  HIT:      16121  MISS:        107  HIT %:    99.3406  MISS %:   0.659354   MPKI: 0.00214
L2C PREFETCH  ACCESS:     184144  HIT:     179411  MISS:       4733  HIT %:    97.4297  MISS %:    2.57027   MPKI: 0.09466
L2C DATA PREFETCH MPKI: 0.09466
L2C INSTRUCTION PREFETCH MPKI: 0
L2C WRITEBACK ACCESS:      31116  HIT:      31114  MISS:          2  HIT %:    99.9936  MISS %: 0.00642756   MPKI: 4e-05
L2C LOAD TRANSLATION ACCESS:        193  HIT:        125  MISS:         68  HIT %:    64.7668  MISS %:    35.2332   MPKI: 0.00136
L2C PREFETCH  REQUESTED:     104191  ISSUED:     104191  USEFUL:        605  USELESS:       1882
L2C USEFUL LOAD PREFETCHES:        605 PREFETCH ISSUED TO LOWER LEVEL:       4733  ACCURACY: 12.7826
L2C TIMELY PREFETCHES:        605 LATE PREFETCHES: 0 DROPPED PREFETCHES: 0
L2C PREFETCHES SAME FILL-ORIGIN LEVEL: 2182 DIFFERENT FILL-ORIGIN LEVEL: 0
L2C AVERAGE MISS LATENCY: 158.731 cycles
L2C RQ	ACCESS:      82614	FORWARD:          0	MERGED:          0	TO_CACHE:      82609
L2C WQ	ACCESS:      31116	FORWARD:          5	MERGED:          0	TO_CACHE:      31116
L2C PQ	ACCESS:     201529	FORWARD:          0	MERGED:      15691	TO_CACHE:     185838

L2C Instructions Evicting Data 9
L2C Translations Evicting Data 22
L2C Data Evicting Data 2765
L2C Instructions Evicting Instructions 0
L2C Translations Evicting Instructions 1
L2C Data Evicting Instructions 215
L2C Instructions Evicting Translations 0
L2C Translations Evicting Translations 0
L2C Data Evicting Translations 72
L2C Dense regions hint from L2: 0
PSCL5 TOTAL     ACCESS:        193  HIT:        193  MISS:          0  HIT %:        100  MISS %:          0   MPKI: 0
PSCL5 LOAD TRANSLATION ACCESS:        193  HIT:        193  MISS:          0  HIT %:        100  MISS %:          0   MPKI: 0
PSCL5 PREFETCH  REQUESTED:          0  ISSUED:          0  USEFUL:          0  USELESS:          0
PSCL5 USEFUL LOAD PREFETCHES:          0 PREFETCH ISSUED TO LOWER LEVEL:          0  ACCURACY: -nan
PSCL5 TIMELY PREFETCHES:          0 LATE PREFETCHES: 0 DROPPED PREFETCHES: 0
PSCL5 PREFETCHES SAME FILL-ORIGIN LEVEL: 0 DIFFERENT FILL-ORIGIN LEVEL: 0

PSCL4 TOTAL     ACCESS:        193  HIT:        193  MISS:          0  HIT %:        100  MISS %:          0   MPKI: 0
PSCL4 LOAD TRANSLATION ACCESS:        193  HIT:        193  MISS:          0  HIT %:        100  MISS %:          0   MPKI: 0
PSCL4 PREFETCH  REQUESTED:          0  ISSUED:          0  USEFUL:          0  USELESS:          0
PSCL4 USEFUL LOAD PREFETCHES:          0 PREFETCH ISSUED TO LOWER LEVEL:          0  ACCURACY: -nan
PSCL4 TIMELY PREFETCHES:          0 LATE PREFETCHES: 0 DROPPED PREFETCHES: 0
PSCL4 PREFETCHES SAME FILL-ORIGIN LEVEL: 0 DIFFERENT FILL-ORIGIN LEVEL: 0

PSCL3 TOTAL     ACCESS:        193  HIT:        193  MISS:          0  HIT %:        100  MISS %:          0   MPKI: 0
PSCL3 LOAD TRANSLATION ACCESS:        193  HIT:        193  MISS:          0  HIT %:        100  MISS %:          0   MPKI: 0
PSCL3 PREFETCH  REQUESTED:          0  ISSUED:          0  USEFUL:          0  USELESS:          0
PSCL3 USEFUL LOAD PREFETCHES:          0 PREFETCH ISSUED TO LOWER LEVEL:          0  ACCURACY: -nan
PSCL3 TIMELY PREFETCHES:          0 LATE PREFETCHES: 0 DROPPED PREFETCHES: 0
PSCL3 PREFETCHES SAME FILL-ORIGIN LEVEL: 0 DIFFERENT FILL-ORIGIN LEVEL: 0

PSCL2 TOTAL     ACCESS:        193  HIT:        193  MISS:          0  HIT %:        100  MISS %:          0   MPKI: 0
PSCL2 LOAD TRANSLATION ACCESS:        193  HIT:        193  MISS:          0  HIT %:        100  MISS %:          0   MPKI: 0
PSCL2 PREFETCH  REQUESTED:          0  ISSUED:          0  USEFUL:          0  USELESS:          0
PSCL2 USEFUL LOAD PREFETCHES:          0 PREFETCH ISSUED TO LOWER LEVEL:          0  ACCURACY: -nan
PSCL2 TIMELY PREFETCHES:          0 LATE PREFETCHES: 0 DROPPED PREFETCHES: 0
PSCL2 PREFETCHES SAME FILL-ORIGIN LEVEL: 0 DIFFERENT FILL-ORIGIN LEVEL: 0

LLC TOTAL     ACCESS:       6446  HIT:       1376  MISS:       5070  HIT %:    21.3466  MISS %:    78.6534   MPKI: 0.1014
LLC LOAD      ACCESS:       1251  HIT:        438  MISS:        813  HIT %:     35.012  MISS %:     64.988   MPKI: 0.01626
LLC RFO       ACCESS:        107  HIT:          0  MISS:        107  HIT %:          0  MISS %:        100   MPKI: 0.00214
LLC PREFETCH  ACCESS:       4733  HIT:        644  MISS:       4089  HIT %:    13.6066  MISS %:    86.3934   MPKI: 0.08178
LLC WRITEBACK ACCESS:        287  HIT:        287  MISS:          0  HIT %:        100  MISS %:          0   MPKI: 0
LLC LOAD TRANSLATION ACCESS:         68  HIT:          7  MISS:         61  HIT %:    10.2941  MISS %:    89.7059   MPKI: 0.00122
LLC PREFETCH  REQUESTED:          0  ISSUED:          0  USEFUL:         63  USELESS:          0
LLC USEFUL LOAD PREFETCHES:         63 PREFETCH ISSUED TO LOWER LEVEL:       4089  ACCURACY: 1.54072
LLC TIMELY PREFETCHES:         63 LATE PREFETCHES: 0 DROPPED PREFETCHES: 0
LLC PREFETCHES SAME FILL-ORIGIN LEVEL: 0 DIFFERENT FILL-ORIGIN LEVEL: 0
LLC AVERAGE MISS LATENCY: 155.935 cycles
LLC RQ	ACCESS:       1426	FORWARD:          0	MERGED:          0	TO_CACHE:       1426
LLC WQ	ACCESS:        287	FORWARD:          0	MERGED:          0	TO_CACHE:        287
LLC PQ	ACCESS:       4733	FORWARD:          0	MERGED:          0	TO_CACHE:       4733

LLC Dense regions hint to LLC: 0

RAW hits: 375100
Loads Generated: 13545102
Loads sent to L1D: 13170002
Stores Generated: 5839795
Stores sent to L1D: 5839795
Major fault: 0 Minor fault: 541
Allocated PAGES: 541

stream: 
stream:times selected: 3120999
stream:pref_filled: 55983
stream:pref_useful: 24011
stream:pref_late: 1215
stream:misses: 6176
stream:misses_by_poll: 0

CS: 
CS:times selected: 140209
CS:pref_filled: 49560
CS:pref_useful: 43613
CS:pref_late: 1244
CS:misses: 3288
CS:misses_by_poll: 353

CPLX: 
CPLX:times selected: 2978946
CPLX:pref_filled: 13906
CPLX:pref_useful: 4439
CPLX:pref_late: 55
CPLX:misses: 40678
CPLX:misses_by_poll: 11

NL_L1: 
NL:times selected: 28678
NL:pref_filled: 1048
NL:pref_useful: 135
NL:pref_late: 1
NL:misses: 696
NL:misses_by_poll: 1

total selections: 6268832
total_filled: 94800
total_useful: 56222
total_late: 2686
total_polluted: 365
total_misses_after_warmup: 66146
conflicts: 1044572
Degree Incremented Times: 3399
Degree Decremented Times: 64759

L1 IP Table Write Accesses: 8641917
L1 IP Table Read Accesses: 7597345
L1 RST Write Accesses: 2625740
L1 RST Read Accesses: 5251480
L1 CSPT Write Accesses: 2625740
L1 CSPT Read Accesses: 5140922
L1 RR Filter Tag Write Accesses: 1033347
L1 RR Filter Tag Read Accesses: 85256079
L1 IP Table Tag Write Accesses: 10467887
L1 IP Table Tag Read Accesses: 10467887
L1 RST Tag Write Accesses: 0
L1 RST Tag Read Accesses: 28524167
L1 RR Filter Write Accesses: 0
L1 RR Filter Read Accesses: 3563372
test: 319891
L2 IP Table Read Accesses: 295371
L2 IP Table Write Accesses: 238010
L2 IP Table Tag Read Accesses: 150002
L2 IP Table Tag Write Accesses: 150002

DRAM Statistics
 CHANNEL 0
 RQ ROW_BUFFER_HIT:       2395  ROW_BUFFER_MISS:       2675
 DBUS_CONGESTED:       2242
 WQ ROW_BUFFER_HIT:          0  ROW_BUFFER_MISS:          0  FULL:          0

 AVG_CONGESTED_CYCLE: 34
 All warmup complete: 2
Channel 0 Bank busy for read cycles: 0
Channel 0 Bank busy for write cycles: 0
Channel 0
Rank 0
0banks busy for read cycles: 149566859
0banks busy for write cycles: 0
1banks busy for read cycles: 289562
1banks busy for write cycles: 0
2banks busy for read cycles: 63415
2banks busy for write cycles: 0
3banks busy for read cycles: 28929
3banks busy for write cycles: 0
4banks busy for read cycles: 27013
4banks busy for write cycles: 0
5banks busy for read cycles: 5564
5banks busy for write cycles: 0
6banks busy for read cycles: 1850
6banks busy for write cycles: 0
7banks busy for read cycles: 1417
7banks busy for write cycles: 0
8banks busy for read cycles: 1424
8banks busy for write cycles: 0

CPU 0 Branch Prediction Accuracy: 87.2784% MPKI: 21.4218 Average ROB Occupancy at Mispredict: 13.4624
Branch types
NOT_BRANCH: 41580273 83.1605%
BRANCH_DIRECT_JUMP: 266110 0.53222%
BRANCH_INDIRECT: 390 0.00078%
BRANCH_CONDITIONAL: 5176805 10.3536%
BRANCH_DIRECT_CALL: 1488087 2.97617%
BRANCH_INDIRECT_CALL: 0 0%
BRANCH_RETURN: 1488089 2.97618%
BRANCH_OTHER: 0 0%

@sumon_overall_L1D     56222      2518     38660     94800   2066669   2066669
@Sumon_Early_by_class_L1D     18162     34932      2997         1
@Sumon_Late_by_class_L1D      1129      1168        49         1

@Sumon_Early_by_cycle_L1D     17653     10404      9883      1048       853      5424      3856       927       615      1226       816      3517
@Sumon_Late_by_cycle_L1D      2459        59         0         0         0         0         0         0         0         0         0         0
@Sumon_Early_stream_L1D      3372       426       803       832       325      3603      3204       666       440       907       628      2956
@Sumon_Early_CS_L1D     14007      9836      8964       115       379      1172       198        90        41        83        26        21
@Sumon_Early_CPLX_L1D       267       142       115       100       146       589       451       153       130       229       157       518
@Sumon_Late_stream_L1D      1120         9         0         0         0         0         0         0         0         0         0         0
@Sumon_Late_CS_L1D      1119        49         0         0         0         0         0         0         0         0         0         0
@Sumon_Late_CPLX_L1D        48         1         0         0         0         0         0         0         0         0         0         0
@sumon_overall_L2C       605         0      1882      4733    104191    104191
@Sumon_Early_by_class_L2C       347       147        83         0
@Sumon_Late_by_class_L2C         0         0         0         0

@Sumon_Early_by_cycle_L2C         9         1         1         1         0         1         1         0         0         0         0       591
@Sumon_Late_by_cycle_L2C         0         0         0         0         0         0         0         0         0         0         0         0
@Sumon_Early_stream_L2C         0         0         0         0         0         0         0         0         0         0         0       347
@Sumon_Early_CS_L2C         8         0         1         0         0         1         0         0         0         0         0       137
@Sumon_Early_CPLX_L2C         0         0         0         0         0         0         0         0         0         0         0        83
@Sumon_Late_stream_L2C         0         0         0         0         0         0         0         0         0         0         0         0
@Sumon_Late_CS_L2C         0         0         0         0         0         0         0         0         0         0         0         0
@Sumon_Late_CPLX_L2C         0         0         0         0         0         0         0         0         0         0         0         0
DRAM PAGES: 1048576
Allocated PAGES: 541
