
*** ChampSim Multicore Out-of-Order Simulator ***

Warmup Instructions: 10000000
Simulation Instructions: 50000000
Number of CPUs: 1
LLC sets: 2048
LLC ways: 16
Off-chip DRAM Size: 4096 MB Channels: 1 Width: 64-bit Data Rate: 800 MT/s
CPU 0 runs traces/SPEC2017/649.fotonik3d_s-7084B.champsimtrace.xz
.xz
CPU 0 Bimodal branch predictor
BTB has LRU replacement policy
ITLB has LRU replacement policy
DTLB has LRU replacement policy
STLB has LRU replacement policy
L1I has LRU replacement policy
IP Table Entries: 256
L1D has LRU replacement policy
IP_Table L2 entries: 256
L2C has LRU replacement policy
LLC has LRU replacement policy
Heartbeat CPU 0 instructions: 10000001 cycles: 2908397 heartbeat IPC: 3.43832 cumulative IPC: 3.43832 (Simulation time: 0 hr 23 min 59 sec) 

Warmup complete CPU 0 instructions: 10000001 cycles: 2908397 (Simulation time: 0 hr 23 min 59 sec) 

Heartbeat CPU 0 instructions: 20000002 cycles: 14221913 heartbeat IPC: 0.883899 cumulative IPC: 0.883899 (Simulation time: 0 hr 44 min 16 sec) 
Heartbeat CPU 0 instructions: 30000002 cycles: 25607753 heartbeat IPC: 0.878284 cumulative IPC: 0.881082 (Simulation time: 1 hr 4 min 37 sec) 
Heartbeat CPU 0 instructions: 40000003 cycles: 36958690 heartbeat IPC: 0.880985 cumulative IPC: 0.88105 (Simulation time: 1 hr 24 min 46 sec) 
Heartbeat CPU 0 instructions: 50000002 cycles: 48288441 heartbeat IPC: 0.882632 cumulative IPC: 0.881445 (Simulation time: 1 hr 44 min 57 sec) 
Heartbeat CPU 0 instructions: 60000002 cycles: 59673326 heartbeat IPC: 0.878358 cumulative IPC: 0.880826 (Simulation time: 2 hr 2 min 13 sec) 
Finished CPU 0 instructions: 50000001 cycles: 56764929 cumulative IPC: 0.880826 (Simulation time: 2 hr 2 min 13 sec) 

ChampSim completed all CPUs

Region of Interest Statistics

CPU 0 cumulative IPC: 0.880826 instructions: 50000001 cycles: 56764929
ITLB TOTAL     ACCESS:    6090265  HIT:    6090265  MISS:          0  HIT %:        100  MISS %:          0   MPKI: 0
ITLB LOAD TRANSLATION ACCESS:    6090265  HIT:    6090265  MISS:          0  HIT %:        100  MISS %:          0   MPKI: 0
ITLB PREFETCH  REQUESTED:          0  ISSUED:          0  USEFUL:          0  USELESS:          0
ITLB USEFUL LOAD PREFETCHES:          0 PREFETCH ISSUED TO LOWER LEVEL:          0  ACCURACY: -nan
ITLB TIMELY PREFETCHES:          0 LATE PREFETCHES: 0 DROPPED PREFETCHES: 0
ITLB PREFETCHES SAME FILL-ORIGIN LEVEL: 0 DIFFERENT FILL-ORIGIN LEVEL: 0
ITLB AVERAGE MISS LATENCY: -nan cycles
ITLB RQ	ACCESS:    7432494	FORWARD:          0	MERGED:    1342228	TO_CACHE:    6090266

DTLB TOTAL     ACCESS:   13269999  HIT:   13200805  MISS:      69194  HIT %:    99.4786  MISS %:   0.521432   MPKI: 1.38388
DTLB LOAD TRANSLATION ACCESS:   13269999  HIT:   13200805  MISS:      69194  HIT %:    99.4786  MISS %:   0.521432   MPKI: 1.38388
DTLB PREFETCH  REQUESTED:          0  ISSUED:          0  USEFUL:          0  USELESS:          0
DTLB USEFUL LOAD PREFETCHES:          0 PREFETCH ISSUED TO LOWER LEVEL:          0  ACCURACY: -nan
DTLB TIMELY PREFETCHES:          0 LATE PREFETCHES: 0 DROPPED PREFETCHES: 0
DTLB PREFETCHES SAME FILL-ORIGIN LEVEL: 0 DIFFERENT FILL-ORIGIN LEVEL: 0
DTLB AVERAGE MISS LATENCY: 48.1068 cycles
DTLB RQ	ACCESS:   14574073	FORWARD:          0	MERGED:    1302680	TO_CACHE:   13271393

STLB TOTAL     ACCESS:    1264717  HIT:    1251071  MISS:      13646  HIT %:     98.921  MISS %:    1.07898   MPKI: 0.27292
STLB LOAD TRANSLATION ACCESS:      69194  HIT:      55548  MISS:      13646  HIT %:    80.2786  MISS %:    19.7214   MPKI: 0.27292
STLB TRANSLATION FROM L1D PREFETCHER ACCESS:    1195523  HIT:    1195523  MISS:          0  HIT %:        100  MISS %:          0   MPKI: 0
STLB PREFETCH  REQUESTED:          0  ISSUED:          0  USEFUL:          0  USELESS:          0
STLB USEFUL LOAD PREFETCHES:          0 PREFETCH ISSUED TO LOWER LEVEL:          0  ACCURACY: -nan
STLB TIMELY PREFETCHES:          0 LATE PREFETCHES: 0 DROPPED PREFETCHES: 0
STLB PREFETCHES SAME FILL-ORIGIN LEVEL: 0 DIFFERENT FILL-ORIGIN LEVEL: 0
STLB AVERAGE MISS LATENCY: 197.249 cycles
STLB RQ	ACCESS:    6486295	FORWARD:          0	MERGED:    5221578	TO_CACHE:    1264717

STLB Hit, L1D data hit: 0
STLB Hit, L2C data hit: 0
STLB Hit, LLC data hit: 0
STLB Hit, LLC data miss: 0
STLB STLB hints to L2: 0
L1D TOTAL     ACCESS:   20937493  HIT:   20060543  MISS:     876950  HIT %:    95.8116  MISS %:    4.18842   MPKI: 17.539
L1D LOAD      ACCESS:   12111945  HIT:   12094425  MISS:      17520  HIT %:    99.8553  MISS %:   0.144651   MPKI: 0.3504
L1D RFO       ACCESS:    2458592  HIT:    2458592  MISS:          0  HIT %:        100  MISS %:          0   MPKI: 0
L1D PREFETCH  ACCESS:    6366956  HIT:    5507526  MISS:     859430  HIT %:    86.5017  MISS %:    13.4983   MPKI: 17.1886
L1D PREFETCH  REQUESTED:   13165396  ISSUED:   12834540  USEFUL:     801847  USELESS:      57611
L1D USEFUL LOAD PREFETCHES:     801847 PREFETCH ISSUED TO LOWER LEVEL:    1075518  ACCURACY: 74.5545
L1D TIMELY PREFETCHES:     801847 LATE PREFETCHES: 2583 DROPPED PREFETCHES: 0
L1D PREFETCHES SAME FILL-ORIGIN LEVEL: 1075518 DIFFERENT FILL-ORIGIN LEVEL: 0
L1D AVERAGE MISS LATENCY: 93590.9 cycles
L1D RQ	ACCESS:   17578410	FORWARD:          0	MERGED:    5449919	TO_CACHE:   12115481
L1D WQ	ACCESS:    2458592	FORWARD:      13010	MERGED:          0	TO_CACHE:    2458592
L1D PQ	ACCESS:    6417439	FORWARD:          0	MERGED:        338	TO_CACHE:    6417101

L1D UNIQUE REGIONS ACCESSED: 0
L1D REGIONS CONFLICTS: 0
L1D Cross Page Prefetch Requests: 0
L1D Same Page Prefetch Requests: 7691395
L1D ROI Sum of L1D PQ occupancy: 97608016
L1D PREFETCHES PUSHED FROM L2C: 0
L1I TOTAL     ACCESS:    7432493  HIT:    7432493  MISS:          0  HIT %:        100  MISS %:          0   MPKI: 0
L1I LOAD      ACCESS:    7432493  HIT:    7432493  MISS:          0  HIT %:        100  MISS %:          0   MPKI: 0
L1I PREFETCH  REQUESTED:          0  ISSUED:          0  USEFUL:          0  USELESS:          0
L1I USEFUL LOAD PREFETCHES:          0 PREFETCH ISSUED TO LOWER LEVEL:          0  ACCURACY: -nan
L1I TIMELY PREFETCHES:          0 LATE PREFETCHES: 0 DROPPED PREFETCHES: 0
L1I PREFETCHES SAME FILL-ORIGIN LEVEL: 0 DIFFERENT FILL-ORIGIN LEVEL: 0
L1I AVERAGE MISS LATENCY: -nan cycles
L1I RQ	ACCESS:   10837416	FORWARD:          0	MERGED:    3404922	TO_CACHE:    7432494

BTB TOTAL     ACCESS:     336775  HIT:     336772  MISS:          3  HIT %:    99.9991  MISS %: 0.000890802   MPKI: 6e-05
BTB BRANCH_DIRECT_JUMP	ACCESS:          0  HIT:          0  MISS:          0
BTB BRANCH_INDIRECT	ACCESS:          0  HIT:          0  MISS:          0
BTB BRANCH_CONDITIONAL	ACCESS:     336775  HIT:     336772  MISS:          3
BTB BRANCH_DIRECT_CALL	ACCESS:          0  HIT:          0  MISS:          0
BTB BRANCH_INDIRECT_CALL	ACCESS:          0  HIT:          0  MISS:          0
BTB BRANCH_RETURN	ACCESS:          0  HIT:          0  MISS:          0
BTB BRANCH_OTHER ACCESS:          0  HIT:          0  MISS:          0

L2C TOTAL     ACCESS:    4349652  HIT:    3476547  MISS:     873105  HIT %:     79.927  MISS %:     20.073   MPKI: 17.4621
L2C LOAD      ACCESS:      14937  HIT:       1063  MISS:      13874  HIT %:    7.11656  MISS %:    92.8834   MPKI: 0.27748
L2C DATA LOAD MPKI: 0.27748
L2C INSTRUCTION LOAD MPKI: 0
L2C PREFETCH  ACCESS:    4061202  HIT:    3203802  MISS:     857400  HIT %:     78.888  MISS %:     21.112   MPKI: 17.148
L2C DATA PREFETCH MPKI: 17.148
L2C INSTRUCTION PREFETCH MPKI: 0
L2C WRITEBACK ACCESS:     259867  HIT:     259782  MISS:         85  HIT %:    99.9673  MISS %:   0.032709   MPKI: 0.0017
L2C LOAD TRANSLATION ACCESS:      13646  HIT:      11900  MISS:       1746  HIT %:     87.205  MISS %:     12.795   MPKI: 0.03492
L2C PREFETCH  REQUESTED:    4309073  ISSUED:    4233801  USEFUL:        602  USELESS:     856797
L2C USEFUL LOAD PREFETCHES:        602 PREFETCH ISSUED TO LOWER LEVEL:     857442  ACCURACY: 0.0702088
L2C TIMELY PREFETCHES:        602 LATE PREFETCHES: 31 DROPPED PREFETCHES: 0
L2C PREFETCHES SAME FILL-ORIGIN LEVEL: 757610 DIFFERENT FILL-ORIGIN LEVEL: 0
L2C AVERAGE MISS LATENCY: 849.491 cycles
L2C RQ	ACCESS:      28583	FORWARD:          0	MERGED:          0	TO_CACHE:      28583
L2C WQ	ACCESS:     259867	FORWARD:          0	MERGED:          0	TO_CACHE:     259867
L2C PQ	ACCESS:    5095815	FORWARD:          0	MERGED:     584525	TO_CACHE:    4511290

L2C Instructions Evicting Data 0
L2C Translations Evicting Data 1746
L2C Data Evicting Data 869525
L2C Instructions Evicting Instructions 0
L2C Translations Evicting Instructions 0
L2C Data Evicting Instructions 0
L2C Instructions Evicting Translations 0
L2C Translations Evicting Translations 0
L2C Data Evicting Translations 1749
L2C Dense regions hint from L2: 0
PSCL5 TOTAL     ACCESS:      13646  HIT:      13646  MISS:          0  HIT %:        100  MISS %:          0   MPKI: 0
PSCL5 LOAD TRANSLATION ACCESS:      13646  HIT:      13646  MISS:          0  HIT %:        100  MISS %:          0   MPKI: 0
PSCL5 PREFETCH  REQUESTED:          0  ISSUED:          0  USEFUL:          0  USELESS:          0
PSCL5 USEFUL LOAD PREFETCHES:          0 PREFETCH ISSUED TO LOWER LEVEL:          0  ACCURACY: -nan
PSCL5 TIMELY PREFETCHES:          0 LATE PREFETCHES: 0 DROPPED PREFETCHES: 0
PSCL5 PREFETCHES SAME FILL-ORIGIN LEVEL: 0 DIFFERENT FILL-ORIGIN LEVEL: 0

PSCL4 TOTAL     ACCESS:      13646  HIT:      13646  MISS:          0  HIT %:        100  MISS %:          0   MPKI: 0
PSCL4 LOAD TRANSLATION ACCESS:      13646  HIT:      13646  MISS:          0  HIT %:        100  MISS %:          0   MPKI: 0
PSCL4 PREFETCH  REQUESTED:          0  ISSUED:          0  USEFUL:          0  USELESS:          0
PSCL4 USEFUL LOAD PREFETCHES:          0 PREFETCH ISSUED TO LOWER LEVEL:          0  ACCURACY: -nan
PSCL4 TIMELY PREFETCHES:          0 LATE PREFETCHES: 0 DROPPED PREFETCHES: 0
PSCL4 PREFETCHES SAME FILL-ORIGIN LEVEL: 0 DIFFERENT FILL-ORIGIN LEVEL: 0

PSCL3 TOTAL     ACCESS:      13646  HIT:      13646  MISS:          0  HIT %:        100  MISS %:          0   MPKI: 0
PSCL3 LOAD TRANSLATION ACCESS:      13646  HIT:      13646  MISS:          0  HIT %:        100  MISS %:          0   MPKI: 0
PSCL3 PREFETCH  REQUESTED:          0  ISSUED:          0  USEFUL:          0  USELESS:          0
PSCL3 USEFUL LOAD PREFETCHES:          0 PREFETCH ISSUED TO LOWER LEVEL:          0  ACCURACY: -nan
PSCL3 TIMELY PREFETCHES:          0 LATE PREFETCHES: 0 DROPPED PREFETCHES: 0
PSCL3 PREFETCHES SAME FILL-ORIGIN LEVEL: 0 DIFFERENT FILL-ORIGIN LEVEL: 0

PSCL2 TOTAL     ACCESS:      13646  HIT:      13625  MISS:         21  HIT %:    99.8461  MISS %:   0.153891   MPKI: 0.00042
PSCL2 LOAD TRANSLATION ACCESS:      13646  HIT:      13625  MISS:         21  HIT %:    99.8461  MISS %:   0.153891   MPKI: 0.00042
PSCL2 PREFETCH  REQUESTED:          0  ISSUED:          0  USEFUL:          0  USELESS:          0
PSCL2 USEFUL LOAD PREFETCHES:          0 PREFETCH ISSUED TO LOWER LEVEL:          0  ACCURACY: -nan
PSCL2 TIMELY PREFETCHES:          0 LATE PREFETCHES: 0 DROPPED PREFETCHES: 0
PSCL2 PREFETCHES SAME FILL-ORIGIN LEVEL: 0 DIFFERENT FILL-ORIGIN LEVEL: 0

LLC TOTAL     ACCESS:    1132779  HIT:     260078  MISS:     872701  HIT %:    22.9593  MISS %:    77.0407   MPKI: 17.454
LLC LOAD      ACCESS:      13843  HIT:         44  MISS:      13799  HIT %:    0.31785  MISS %:    99.6821   MPKI: 0.27598
LLC PREFETCH  ACCESS:     857431  HIT:        323  MISS:     857108  HIT %:  0.0376707  MISS %:    99.9623   MPKI: 17.1422
LLC WRITEBACK ACCESS:     259759  HIT:     259711  MISS:         48  HIT %:    99.9815  MISS %:  0.0184787   MPKI: 0.00096
LLC LOAD TRANSLATION ACCESS:       1746  HIT:          0  MISS:       1746  HIT %:          0  MISS %:        100   MPKI: 0.03492
LLC PREFETCH  REQUESTED:          0  ISSUED:          0  USEFUL:          5  USELESS:     857107
LLC USEFUL LOAD PREFETCHES:          5 PREFETCH ISSUED TO LOWER LEVEL:     857119  ACCURACY: 0.00058335
LLC TIMELY PREFETCHES:          5 LATE PREFETCHES: 0 DROPPED PREFETCHES: 0
LLC PREFETCHES SAME FILL-ORIGIN LEVEL: 0 DIFFERENT FILL-ORIGIN LEVEL: 0
LLC AVERAGE MISS LATENCY: 819.001 cycles
LLC RQ	ACCESS:      15589	FORWARD:          0	MERGED:          0	TO_CACHE:      15589
LLC WQ	ACCESS:     259759	FORWARD:          0	MERGED:          0	TO_CACHE:     259759
LLC PQ	ACCESS:     857442	FORWARD:          0	MERGED:          0	TO_CACHE:     857442

LLC Dense regions hint to LLC: 0

RAW hits: 107996
Loads Generated: 17686394
Loads sent to L1D: 17578410
Stores Generated: 2458593
Stores sent to L1D: 2458592
Major fault: 0 Minor fault: 13917
Allocated PAGES: 13917

stream: 
stream:times selected: 2070179
stream:pref_filled: 1019708
stream:pref_useful: 953397
stream:pref_late: 2534
stream:misses: 70
stream:misses_by_poll: 0

CS: 
CS:times selected: 1801954
CS:pref_filled: 5461
CS:pref_useful: 5151
CS:pref_late: 25
CS:misses: 22754
CS:misses_by_poll: 19

CPLX: 
CPLX:times selected: 268112
CPLX:pref_filled: 6702
CPLX:pref_useful: 4177
CPLX:pref_late: 0
CPLX:misses: 282
CPLX:misses_by_poll: 13

NL_L1: 
NL:times selected: 6
NL:pref_filled: 5
NL:pref_useful: 5
NL:pref_late: 0
NL:misses: 0
NL:misses_by_poll: 0

total selections: 4140251
total_filled: 859430
total_useful: 801847
total_late: 2591
total_polluted: 32
total_misses_after_warmup: 21059
conflicts: 12538
Degree Incremented Times: 107065
Degree Decremented Times: 0

L1 IP Table Write Accesses: 11715129
L1 IP Table Read Accesses: 11702591
L1 RST Write Accesses: 1723393
L1 RST Read Accesses: 3446786
L1 CSPT Write Accesses: 1723393
L1 CSPT Read Accesses: 2399353
L1 RR Filter Tag Write Accesses: 6748295
L1 RR Filter Tag Read Accesses: 405108723
L1 IP Table Tag Write Accesses: 12115484
L1 IP Table Tag Read Accesses: 12115484
L1 RST Tag Write Accesses: 0
L1 RST Tag Read Accesses: 15922310
L1 RR Filter Write Accesses: 0
L1 RR Filter Read Accesses: 14792979
test: 46980
L2 IP Table Read Accesses: 1547317
L2 IP Table Write Accesses: 1532498
L2 IP Table Tag Read Accesses: 773715
L2 IP Table Tag Write Accesses: 773715

DRAM Statistics
 CHANNEL 0
 RQ ROW_BUFFER_HIT:     377082  ROW_BUFFER_MISS:     495570
 DBUS_CONGESTED:    1017623
 WQ ROW_BUFFER_HIT:      46348  ROW_BUFFER_MISS:     213898  FULL:          0

 AVG_CONGESTED_CYCLE: 37
 All warmup complete: 2
Channel 0 Bank busy for read cycles: 0
Channel 0 Bank busy for write cycles: 0
Channel 0
Rank 0
0banks busy for read cycles: 35270
0banks busy for write cycles: 2
1banks busy for read cycles: 3522747
1banks busy for write cycles: 45904
2banks busy for read cycles: 4408127
2banks busy for write cycles: 46312
3banks busy for read cycles: 4153764
3banks busy for write cycles: 45719
4banks busy for read cycles: 3805575
4banks busy for write cycles: 46068
5banks busy for read cycles: 3720738
5banks busy for write cycles: 46417
6banks busy for read cycles: 4040651
6banks busy for write cycles: 49246
7banks busy for read cycles: 6453484
7banks busy for write cycles: 321185
8banks busy for read cycles: 12344814
8banks busy for write cycles: 13678907

CPU 0 Branch Prediction Accuracy: 99.186% MPKI: 0.0562 Average ROB Occupancy at Mispredict: 62.0018
Branch types
NOT_BRANCH: 49654460 99.3089%
BRANCH_DIRECT_JUMP: 0 0%
BRANCH_INDIRECT: 0 0%
BRANCH_CONDITIONAL: 345199 0.690398%
BRANCH_DIRECT_CALL: 0 0%
BRANCH_INDIRECT_CALL: 0 0%
BRANCH_RETURN: 0 0%
BRANCH_OTHER: 0 0%

@sumon_overall_L1D    801847      2583     57611    859430  12834540  13165396
@Sumon_Early_by_class_L1D    793746      4258      3843         0
@Sumon_Late_by_class_L1D      2526        25         0         0

@Sumon_Early_by_cycle_L1D      1050      4459      4947      4205      8092    119493    503177    145343      8209      2022       850         0
@Sumon_Late_by_cycle_L1D       532       395       484       365       236       516        55         0         0         0         0         0
@Sumon_Early_stream_L1D      1044      4447      4931      4179      8066    118837    502642    144428      5171         1         0         0
@Sumon_Early_CS_L1D         3         7        13        20        24       604       265        24      1110      1342       846         0
@Sumon_Early_CPLX_L1D         3         5         3         6         2        52       270       891      1928       679         4         0
@Sumon_Late_stream_L1D       495       390       482       361       235       508        55         0         0         0         0         0
@Sumon_Late_CS_L1D         5         5         2         4         1         8         0         0         0         0         0         0
@Sumon_Late_CPLX_L1D         0         0         0         0         0         0         0         0         0         0         0         0
@sumon_overall_L2C       602        31    856797    857400   4233801   4309073
@Sumon_Early_by_class_L2C       583         4         0         0
@Sumon_Late_by_class_L2C        26         0         0         0

@Sumon_Early_by_cycle_L2C        31        30        32        19        36       126       255        69         0         2         0         2
@Sumon_Late_by_cycle_L2C        10         5         6         2         2         6         0         0         0         0         0         0
@Sumon_Early_stream_L2C        18        28        31        19        36       125       254        69         0         1         0         2
@Sumon_Early_CS_L2C         0         0         1         0         0         1         1         0         0         1         0         0
@Sumon_Early_CPLX_L2C         0         0         0         0         0         0         0         0         0         0         0         0
@Sumon_Late_stream_L2C         7         4         6         2         2         5         0         0         0         0         0         0
@Sumon_Late_CS_L2C         0         0         0         0         0         0         0         0         0         0         0         0
@Sumon_Late_CPLX_L2C         0         0         0         0         0         0         0         0         0         0         0         0
DRAM PAGES: 1048576
Allocated PAGES: 13917
