
*** ChampSim Multicore Out-of-Order Simulator ***

Warmup Instructions: 10000000
Simulation Instructions: 50000000
Number of CPUs: 1
LLC sets: 2048
LLC ways: 16
Off-chip DRAM Size: 4096 MB Channels: 1 Width: 64-bit Data Rate: 533 MT/s
CPU 0 runs traces/SPEC2017/649.fotonik3d_s-10881B.champsimtrace.xz
.xz
CPU 0 Bimodal branch predictor
BTB has LRU replacement policy
ITLB has LRU replacement policy
DTLB has LRU replacement policy
STLB has LRU replacement policy
L1I has LRU replacement policy
IP Table Entries: 256
L1D has LRU replacement policy
IP_Table L2 entries: 256
L2C has LRU replacement policy
LLC has LRU replacement policy
Heartbeat CPU 0 instructions: 10000003 cycles: 5058990 heartbeat IPC: 1.97668 cumulative IPC: 1.97668 (Simulation time: 0 hr 40 min 24 sec) 

Warmup complete CPU 0 instructions: 10000003 cycles: 5058990 (Simulation time: 0 hr 40 min 24 sec) 

Heartbeat CPU 0 instructions: 20000003 cycles: 29173664 heartbeat IPC: 0.414685 cumulative IPC: 0.414685 (Simulation time: 1 hr 17 min 39 sec) 
Heartbeat CPU 0 instructions: 30000001 cycles: 53314553 heartbeat IPC: 0.414235 cumulative IPC: 0.41446 (Simulation time: 1 hr 54 min 7 sec) 
Heartbeat CPU 0 instructions: 40000003 cycles: 77411859 heartbeat IPC: 0.414984 cumulative IPC: 0.414635 (Simulation time: 2 hr 17 min 24 sec) 
Heartbeat CPU 0 instructions: 50000002 cycles: 101609441 heartbeat IPC: 0.413264 cumulative IPC: 0.414291 (Simulation time: 2 hr 29 min 57 sec) 
Heartbeat CPU 0 instructions: 60000000 cycles: 125745754 heartbeat IPC: 0.414313 cumulative IPC: 0.414296 (Simulation time: 2 hr 39 min 39 sec) 
Finished CPU 0 instructions: 50000001 cycles: 120686765 cumulative IPC: 0.414296 (Simulation time: 2 hr 39 min 39 sec) 

ChampSim completed all CPUs

Region of Interest Statistics

CPU 0 cumulative IPC: 0.414296 instructions: 50000001 cycles: 120686765
ITLB TOTAL     ACCESS:    6505343  HIT:    6505343  MISS:          0  HIT %:        100  MISS %:          0   MPKI: 0
ITLB LOAD TRANSLATION ACCESS:    6505343  HIT:    6505343  MISS:          0  HIT %:        100  MISS %:          0   MPKI: 0
ITLB PREFETCH  REQUESTED:          0  ISSUED:          0  USEFUL:          0  USELESS:          0
ITLB USEFUL LOAD PREFETCHES:          0 PREFETCH ISSUED TO LOWER LEVEL:          0  ACCURACY: -nan
ITLB TIMELY PREFETCHES:          0 LATE PREFETCHES: 0 DROPPED PREFETCHES: 0
ITLB PREFETCHES SAME FILL-ORIGIN LEVEL: 0 DIFFERENT FILL-ORIGIN LEVEL: 0
ITLB AVERAGE MISS LATENCY: -nan cycles
ITLB RQ	ACCESS:    6919548	FORWARD:          0	MERGED:     414206	TO_CACHE:    6505342

DTLB TOTAL     ACCESS:   21972717  HIT:   21712244  MISS:     260473  HIT %:    98.8146  MISS %:    1.18544   MPKI: 5.20946
DTLB LOAD TRANSLATION ACCESS:   21972717  HIT:   21712244  MISS:     260473  HIT %:    98.8146  MISS %:    1.18544   MPKI: 5.20946
DTLB PREFETCH  REQUESTED:          0  ISSUED:          0  USEFUL:          0  USELESS:          0
DTLB USEFUL LOAD PREFETCHES:          0 PREFETCH ISSUED TO LOWER LEVEL:          0  ACCURACY: -nan
DTLB TIMELY PREFETCHES:          0 LATE PREFETCHES: 0 DROPPED PREFETCHES: 0
DTLB PREFETCHES SAME FILL-ORIGIN LEVEL: 0 DIFFERENT FILL-ORIGIN LEVEL: 0
DTLB AVERAGE MISS LATENCY: 227.724 cycles
DTLB RQ	ACCESS:   24513313	FORWARD:          0	MERGED:    2528905	TO_CACHE:   21984408

STLB TOTAL     ACCESS:    1606746  HIT:    1437109  MISS:     169637  HIT %:    89.4422  MISS %:    10.5578   MPKI: 3.39274
STLB LOAD TRANSLATION ACCESS:     260473  HIT:      90850  MISS:     169623  HIT %:    34.8789  MISS %:    65.1211   MPKI: 3.39246
STLB TRANSLATION FROM L1D PREFETCHER ACCESS:    1346273  HIT:    1346259  MISS:         14  HIT %:     99.999  MISS %: 0.00103991   MPKI: 0.00028
STLB PREFETCH  REQUESTED:          0  ISSUED:          0  USEFUL:         14  USELESS:          0
STLB USEFUL LOAD PREFETCHES:         14 PREFETCH ISSUED TO LOWER LEVEL:          0  ACCURACY: inf
STLB TIMELY PREFETCHES:         14 LATE PREFETCHES: 0 DROPPED PREFETCHES: 0
STLB PREFETCHES SAME FILL-ORIGIN LEVEL: 0 DIFFERENT FILL-ORIGIN LEVEL: 0
STLB AVERAGE MISS LATENCY: 317.542 cycles
STLB RQ	ACCESS:    2925249	FORWARD:          0	MERGED:    1318503	TO_CACHE:    1606746

STLB Hit, L1D data hit: 0
STLB Hit, L2C data hit: 0
STLB Hit, LLC data hit: 0
STLB Hit, LLC data miss: 0
STLB STLB hints to L2: 0
L1D TOTAL     ACCESS:   26999150  HIT:   25570809  MISS:    1428341  HIT %:    94.7097  MISS %:    5.29032   MPKI: 28.5668
L1D LOAD      ACCESS:   21172872  HIT:   20909526  MISS:     263346  HIT %:    98.7562  MISS %:    1.24379   MPKI: 5.26692
L1D RFO       ACCESS:    3204301  HIT:    3200447  MISS:       3854  HIT %:    99.8797  MISS %:   0.120276   MPKI: 0.07708
L1D PREFETCH  ACCESS:    2621977  HIT:    1460836  MISS:    1161141  HIT %:    55.7151  MISS %:    44.2849   MPKI: 23.2228
L1D PREFETCH  REQUESTED:    5334652  ISSUED:    5329553  USEFUL:     693545  USELESS:     467614
L1D USEFUL LOAD PREFETCHES:     693545 PREFETCH ISSUED TO LOWER LEVEL:    1164997  ACCURACY: 59.5319
L1D TIMELY PREFETCHES:     693545 LATE PREFETCHES: 45113 DROPPED PREFETCHES: 0
L1D PREFETCHES SAME FILL-ORIGIN LEVEL: 1164997 DIFFERENT FILL-ORIGIN LEVEL: 0
L1D AVERAGE MISS LATENCY: 177826 cycles
L1D RQ	ACCESS:   31958110	FORWARD:          0	MERGED:   10647492	TO_CACHE:   21307653
L1D WQ	ACCESS:    3205660	FORWARD:       2966	MERGED:          0	TO_CACHE:    3205660
L1D PQ	ACCESS:    2664777	FORWARD:          0	MERGED:          0	TO_CACHE:    2664776

L1D UNIQUE REGIONS ACCESSED: 0
L1D REGIONS CONFLICTS: 0
L1D Cross Page Prefetch Requests: 0
L1D Same Page Prefetch Requests: 3211015
L1D ROI Sum of L1D PQ occupancy: 58437718
L1D PREFETCHES PUSHED FROM L2C: 0
L1I TOTAL     ACCESS:    6919549  HIT:    6919549  MISS:          0  HIT %:        100  MISS %:          0   MPKI: 0
L1I LOAD      ACCESS:    6919549  HIT:    6919549  MISS:          0  HIT %:        100  MISS %:          0   MPKI: 0
L1I PREFETCH  REQUESTED:          0  ISSUED:          0  USEFUL:          0  USELESS:          0
L1I USEFUL LOAD PREFETCHES:          0 PREFETCH ISSUED TO LOWER LEVEL:          0  ACCURACY: -nan
L1I TIMELY PREFETCHES:          0 LATE PREFETCHES: 0 DROPPED PREFETCHES: 0
L1I PREFETCHES SAME FILL-ORIGIN LEVEL: 0 DIFFERENT FILL-ORIGIN LEVEL: 0
L1I AVERAGE MISS LATENCY: -nan cycles
L1I RQ	ACCESS:   15699897	FORWARD:          0	MERGED:    8780349	TO_CACHE:    6919548

BTB TOTAL     ACCESS:     560943  HIT:     560938  MISS:          5  HIT %:    99.9991  MISS %: 0.000891356   MPKI: 0.0001
BTB BRANCH_DIRECT_JUMP	ACCESS:      40061  HIT:      40060  MISS:          1
BTB BRANCH_INDIRECT	ACCESS:          0  HIT:          0  MISS:          0
BTB BRANCH_CONDITIONAL	ACCESS:     520882  HIT:     520878  MISS:          4
BTB BRANCH_DIRECT_CALL	ACCESS:          0  HIT:          0  MISS:          0
BTB BRANCH_INDIRECT_CALL	ACCESS:          0  HIT:          0  MISS:          0
BTB BRANCH_RETURN	ACCESS:          0  HIT:          0  MISS:          0
BTB BRANCH_OTHER ACCESS:          0  HIT:          0  MISS:          0

L2C TOTAL     ACCESS:    2085189  HIT:     643109  MISS:    1442080  HIT %:    30.8418  MISS %:    69.1582   MPKI: 28.8416
L2C LOAD      ACCESS:     263345  HIT:        466  MISS:     262879  HIT %:   0.176954  MISS %:     99.823   MPKI: 5.25758
L2C DATA LOAD MPKI: 5.25758
L2C INSTRUCTION LOAD MPKI: 0
L2C PREFETCH  ACCESS:    1166403  HIT:       8910  MISS:    1157493  HIT %:   0.763887  MISS %:    99.2361   MPKI: 23.1499
L2C DATA PREFETCH MPKI: 23.1499
L2C INSTRUCTION PREFETCH MPKI: 0
L2C WRITEBACK ACCESS:     485745  HIT:     485745  MISS:          0  HIT %:        100  MISS %:          0   MPKI: 0
L2C LOAD TRANSLATION ACCESS:     169682  HIT:     147976  MISS:      21706  HIT %:    87.2078  MISS %:    12.7922   MPKI: 0.43412
L2C TRANSLATION FROM L1D PREFETCHER ACCESS:         14  HIT:         12  MISS:          2  HIT %:    85.7143  MISS %:    14.2857   MPKI: 4e-05
L2C PREFETCH  REQUESTED:       1676  ISSUED:       1676  USEFUL:        466  USELESS:    1157055
L2C USEFUL LOAD PREFETCHES:        466 PREFETCH ISSUED TO LOWER LEVEL:    1157495  ACCURACY: 0.0402594
L2C TIMELY PREFETCHES:        466 LATE PREFETCHES: 0 DROPPED PREFETCHES: 0
L2C PREFETCHES SAME FILL-ORIGIN LEVEL: 700 DIFFERENT FILL-ORIGIN LEVEL: 0
L2C AVERAGE MISS LATENCY: 538.59 cycles
L2C RQ	ACCESS:     433041	FORWARD:          0	MERGED:          0	TO_CACHE:     433041
L2C WQ	ACCESS:     485745	FORWARD:          0	MERGED:          0	TO_CACHE:     485745
L2C PQ	ACCESS:    1166673	FORWARD:          0	MERGED:        163	TO_CACHE:    1166510

L2C Instructions Evicting Data 0
L2C Translations Evicting Data 21487
L2C Data Evicting Data 1398898
L2C Instructions Evicting Instructions 0
L2C Translations Evicting Instructions 0
L2C Data Evicting Instructions 0
L2C Instructions Evicting Translations 0
L2C Translations Evicting Translations 221
L2C Data Evicting Translations 21474
L2C Dense regions hint from L2: 0
PSCL5 TOTAL     ACCESS:     169637  HIT:     169637  MISS:          0  HIT %:        100  MISS %:          0   MPKI: 0
PSCL5 LOAD TRANSLATION ACCESS:     169623  HIT:     169623  MISS:          0  HIT %:        100  MISS %:          0   MPKI: 0
PSCL5 TRANSLATION FROM L1D PREFETCHER ACCESS:         14  HIT:         14  MISS:          0  HIT %:        100  MISS %:          0   MPKI: 0
PSCL5 PREFETCH  REQUESTED:          0  ISSUED:          0  USEFUL:          0  USELESS:          0
PSCL5 USEFUL LOAD PREFETCHES:          0 PREFETCH ISSUED TO LOWER LEVEL:          0  ACCURACY: -nan
PSCL5 TIMELY PREFETCHES:          0 LATE PREFETCHES: 0 DROPPED PREFETCHES: 0
PSCL5 PREFETCHES SAME FILL-ORIGIN LEVEL: 0 DIFFERENT FILL-ORIGIN LEVEL: 0

PSCL4 TOTAL     ACCESS:     169637  HIT:     169637  MISS:          0  HIT %:        100  MISS %:          0   MPKI: 0
PSCL4 LOAD TRANSLATION ACCESS:     169623  HIT:     169623  MISS:          0  HIT %:        100  MISS %:          0   MPKI: 0
PSCL4 TRANSLATION FROM L1D PREFETCHER ACCESS:         14  HIT:         14  MISS:          0  HIT %:        100  MISS %:          0   MPKI: 0
PSCL4 PREFETCH  REQUESTED:          0  ISSUED:          0  USEFUL:          0  USELESS:          0
PSCL4 USEFUL LOAD PREFETCHES:          0 PREFETCH ISSUED TO LOWER LEVEL:          0  ACCURACY: -nan
PSCL4 TIMELY PREFETCHES:          0 LATE PREFETCHES: 0 DROPPED PREFETCHES: 0
PSCL4 PREFETCHES SAME FILL-ORIGIN LEVEL: 0 DIFFERENT FILL-ORIGIN LEVEL: 0

PSCL3 TOTAL     ACCESS:     169637  HIT:     169637  MISS:          0  HIT %:        100  MISS %:          0   MPKI: 0
PSCL3 LOAD TRANSLATION ACCESS:     169623  HIT:     169623  MISS:          0  HIT %:        100  MISS %:          0   MPKI: 0
PSCL3 TRANSLATION FROM L1D PREFETCHER ACCESS:         14  HIT:         14  MISS:          0  HIT %:        100  MISS %:          0   MPKI: 0
PSCL3 PREFETCH  REQUESTED:          0  ISSUED:          0  USEFUL:          0  USELESS:          0
PSCL3 USEFUL LOAD PREFETCHES:          0 PREFETCH ISSUED TO LOWER LEVEL:          0  ACCURACY: -nan
PSCL3 TIMELY PREFETCHES:          0 LATE PREFETCHES: 0 DROPPED PREFETCHES: 0
PSCL3 PREFETCHES SAME FILL-ORIGIN LEVEL: 0 DIFFERENT FILL-ORIGIN LEVEL: 0

PSCL2 TOTAL     ACCESS:     169637  HIT:     169326  MISS:        311  HIT %:    99.8167  MISS %:   0.183333   MPKI: 0.00622
PSCL2 LOAD TRANSLATION ACCESS:     169623  HIT:     169312  MISS:        311  HIT %:    99.8167  MISS %:   0.183348   MPKI: 0.00622
PSCL2 TRANSLATION FROM L1D PREFETCHER ACCESS:         14  HIT:         14  MISS:          0  HIT %:        100  MISS %:          0   MPKI: 0
PSCL2 PREFETCH  REQUESTED:          0  ISSUED:          0  USEFUL:          0  USELESS:          0
PSCL2 USEFUL LOAD PREFETCHES:          0 PREFETCH ISSUED TO LOWER LEVEL:          0  ACCURACY: -nan
PSCL2 TIMELY PREFETCHES:          0 LATE PREFETCHES: 0 DROPPED PREFETCHES: 0
PSCL2 PREFETCHES SAME FILL-ORIGIN LEVEL: 0 DIFFERENT FILL-ORIGIN LEVEL: 0

LLC TOTAL     ACCESS:    1927886  HIT:     592608  MISS:    1335278  HIT %:    30.7387  MISS %:    69.2613   MPKI: 26.7056
LLC LOAD      ACCESS:     262879  HIT:      24382  MISS:     238497  HIT %:    9.27499  MISS %:     90.725   MPKI: 4.76994
LLC PREFETCH  ACCESS:    1157493  HIT:      80126  MISS:    1077367  HIT %:    6.92237  MISS %:    93.0776   MPKI: 21.5473
LLC WRITEBACK ACCESS:     485806  HIT:     485806  MISS:          0  HIT %:        100  MISS %:          0   MPKI: 0
LLC LOAD TRANSLATION ACCESS:      21706  HIT:       2292  MISS:      19414  HIT %:    10.5593  MISS %:    89.4407   MPKI: 0.38828
LLC TRANSLATION FROM L1D PREFETCHER ACCESS:          2  HIT:          2  MISS:          0  HIT %:        100  MISS %:          0   MPKI: 0
LLC PREFETCH  REQUESTED:          0  ISSUED:          0  USEFUL:       6032  USELESS:    1071508
LLC USEFUL LOAD PREFETCHES:       6032 PREFETCH ISSUED TO LOWER LEVEL:    1077370  ACCURACY: 0.559882
LLC TIMELY PREFETCHES:       6032 LATE PREFETCHES: 0 DROPPED PREFETCHES: 0
LLC PREFETCHES SAME FILL-ORIGIN LEVEL: 0 DIFFERENT FILL-ORIGIN LEVEL: 0
LLC AVERAGE MISS LATENCY: 544.613 cycles
LLC RQ	ACCESS:     284587	FORWARD:          0	MERGED:          0	TO_CACHE:     284587
LLC WQ	ACCESS:     485805	FORWARD:          0	MERGED:          0	TO_CACHE:     485805
LLC PQ	ACCESS:    1157495	FORWARD:          0	MERGED:          0	TO_CACHE:    1157495

LLC Dense regions hint to LLC: 0

RAW hits: 52291
Loads Generated: 32010399
Loads sent to L1D: 31958110
Stores Generated: 3205665
Stores sent to L1D: 3205660
Major fault: 0 Minor fault: 154689
Allocated PAGES: 154689

stream: 
stream:times selected: 2126831
stream:pref_filled: 573611
stream:pref_useful: 230626
stream:pref_late: 10773
stream:misses: 153156
stream:misses_by_poll: 0

CS: 
CS:times selected: 378204
CS:pref_filled: 376030
CS:pref_useful: 252768
CS:pref_late: 33
CS:misses: 13915
CS:misses_by_poll: 1173

CPLX: 
CPLX:times selected: 1456544
CPLX:pref_filled: 448012
CPLX:pref_useful: 352521
CPLX:pref_late: 13229
CPLX:misses: 140407
CPLX:misses_by_poll: 1880

NL_L1: 
NL:times selected: 226
NL:pref_filled: 152
NL:pref_useful: 44
NL:pref_late: 1
NL:misses: 95
NL:misses_by_poll: 0

total selections: 3961805
total_filled: 1161141
total_useful: 693545
total_late: 24036
total_polluted: 3053
total_misses_after_warmup: 398130
conflicts: 401772
Degree Incremented Times: 94188
Degree Decremented Times: 493

L1 IP Table Write Accesses: 20002443
L1 IP Table Read Accesses: 19600671
L1 RST Write Accesses: 1776510
L1 RST Read Accesses: 3553020
L1 CSPT Write Accesses: 1776510
L1 CSPT Read Accesses: 5057432
L1 RR Filter Tag Write Accesses: 2669876
L1 RR Filter Tag Read Accesses: 137932928
L1 IP Table Tag Write Accesses: 21307656
L1 IP Table Tag Read Accesses: 21307656
L1 RST Tag Write Accesses: 0
L1 RST Tag Read Accesses: 16813604
L1 RR Filter Write Accesses: 0
L1 RR Filter Read Accesses: 5225549
test: 324168
L2 IP Table Read Accesses: 2846145
L2 IP Table Write Accesses: 2583720
L2 IP Table Tag Read Accesses: 1424018
L2 IP Table Tag Write Accesses: 1424018

DRAM Statistics
 CHANNEL 0
 RQ ROW_BUFFER_HIT:     503318  ROW_BUFFER_MISS:     831959
 DBUS_CONGESTED:    1635273
 WQ ROW_BUFFER_HIT:     117314  ROW_BUFFER_MISS:     368476  FULL:          0

 AVG_CONGESTED_CYCLE: 50
 All warmup complete: 2
Channel 0 Bank busy for read cycles: 0
Channel 0 Bank busy for write cycles: 0
Channel 0
Rank 0
0banks busy for read cycles: 122241
0banks busy for write cycles: 1
1banks busy for read cycles: 11913873
1banks busy for write cycles: 98033
2banks busy for read cycles: 15614967
2banks busy for write cycles: 98040
3banks busy for read cycles: 16331440
3banks busy for write cycles: 97825
4banks busy for read cycles: 14536062
4banks busy for write cycles: 97669
5banks busy for read cycles: 11735160
5banks busy for write cycles: 98909
6banks busy for read cycles: 9451667
6banks busy for write cycles: 139643
7banks busy for read cycles: 6151903
7banks busy for write cycles: 1714891
8banks busy for read cycles: 2053187
8banks busy for write cycles: 30431255

CPU 0 Branch Prediction Accuracy: 93.3273% MPKI: 0.80206 Average ROB Occupancy at Mispredict: 340.492
Branch types
NOT_BRANCH: 49398999 98.798%
BRANCH_DIRECT_JUMP: 40061 0.080122%
BRANCH_INDIRECT: 0 0%
BRANCH_CONDITIONAL: 560943 1.12189%
BRANCH_DIRECT_CALL: 0 0%
BRANCH_INDIRECT_CALL: 0 0%
BRANCH_RETURN: 0 0%
BRANCH_OTHER: 0 0%

@sumon_overall_L1D    693545     45113    467614   1161141   5329553   5334652
@Sumon_Early_by_class_L1D    188213    210488    294797         0
@Sumon_Late_by_class_L1D     10759        32     13095         0

@Sumon_Early_by_cycle_L1D     10897     15660     43299     51153     44195    197851    223708     87517        30      1607     17613        15
@Sumon_Late_by_cycle_L1D      8727      5353      5712      2389       978       723         4         0         0         0         0         0
@Sumon_Early_stream_L1D      7656     11389     33001     38202     27659     66142      3280        41        25       818         0         0
@Sumon_Early_CS_L1D        16        30        80       206       299      3528    103948     83992         5       780     17604         0
@Sumon_Early_CPLX_L1D      3225      4239     10216     12733     16231    128164    116473      3484         0         8         9        15
@Sumon_Late_stream_L1D      4932      2027      2147       959       404       288         2         0         0         0         0         0
@Sumon_Late_CS_L1D        10         6        12         1         2         1         0         0         0         0         0         0
@Sumon_Late_CPLX_L1D      3785      3320      3553      1429       572       434         2         0         0         0         0         0
@sumon_overall_L2C       466         0   1157055   1157495      1676      1676
@Sumon_Early_by_class_L2C         5       418         8         0
@Sumon_Late_by_class_L2C         0         0         0         0

@Sumon_Early_by_cycle_L2C         0         0         0         0         3        24         7         0         2         8       413         9
@Sumon_Late_by_cycle_L2C         0         0         0         0         0         0         0         0         0         0         0         0
@Sumon_Early_stream_L2C         0         0         0         0         0         0         0         0         2         3         0         0
@Sumon_Early_CS_L2C         0         0         0         0         0         0         0         0         0         5       413         0
@Sumon_Early_CPLX_L2C         0         0         0         0         0         0         0         0         0         0         0         8
@Sumon_Late_stream_L2C         0         0         0         0         0         0         0         0         0         0         0         0
@Sumon_Late_CS_L2C         0         0         0         0         0         0         0         0         0         0         0         0
@Sumon_Late_CPLX_L2C         0         0         0         0         0         0         0         0         0         0         0         0
DRAM PAGES: 1048576
Allocated PAGES: 154689
