
*** ChampSim Multicore Out-of-Order Simulator ***

Warmup Instructions: 10000000
Simulation Instructions: 50000000
Number of CPUs: 1
LLC sets: 2048
LLC ways: 16
Off-chip DRAM Size: 4096 MB Channels: 1 Width: 64-bit Data Rate: 533 MT/s
CPU 0 runs traces/SPEC2017/649.fotonik3d_s-8225B.champsimtrace.xz
.xz
CPU 0 Bimodal branch predictor
BTB has LRU replacement policy
ITLB has LRU replacement policy
DTLB has LRU replacement policy
STLB has LRU replacement policy
L1I has LRU replacement policy
IP Table Entries: 256
L1D has LRU replacement policy
IP_Table L2 entries: 256
L2C has LRU replacement policy
LLC has LRU replacement policy
Heartbeat CPU 0 instructions: 10000001 cycles: 2903770 heartbeat IPC: 3.4438 cumulative IPC: 3.4438 (Simulation time: 0 hr 23 min 27 sec) 

Warmup complete CPU 0 instructions: 10000001 cycles: 2903770 (Simulation time: 0 hr 23 min 27 sec) 

Heartbeat CPU 0 instructions: 20000001 cycles: 14815064 heartbeat IPC: 0.839539 cumulative IPC: 0.839539 (Simulation time: 0 hr 43 min 29 sec) 
Heartbeat CPU 0 instructions: 30000000 cycles: 26663789 heartbeat IPC: 0.843973 cumulative IPC: 0.84175 (Simulation time: 1 hr 3 min 14 sec) 
Heartbeat CPU 0 instructions: 40000002 cycles: 38564722 heartbeat IPC: 0.84027 cumulative IPC: 0.841256 (Simulation time: 1 hr 23 min 11 sec) 
Heartbeat CPU 0 instructions: 50000001 cycles: 50425115 heartbeat IPC: 0.843142 cumulative IPC: 0.841727 (Simulation time: 1 hr 43 min 7 sec) 
Heartbeat CPU 0 instructions: 60000000 cycles: 62333134 heartbeat IPC: 0.83977 cumulative IPC: 0.841335 (Simulation time: 2 hr 0 min 46 sec) 
Finished CPU 0 instructions: 50000003 cycles: 59429365 cumulative IPC: 0.841335 (Simulation time: 2 hr 0 min 46 sec) 

ChampSim completed all CPUs

Region of Interest Statistics

CPU 0 cumulative IPC: 0.841335 instructions: 50000003 cycles: 59429365
ITLB TOTAL     ACCESS:    7046391  HIT:    7046391  MISS:          0  HIT %:        100  MISS %:          0   MPKI: 0
ITLB LOAD TRANSLATION ACCESS:    7046391  HIT:    7046391  MISS:          0  HIT %:        100  MISS %:          0   MPKI: 0
ITLB PREFETCH  REQUESTED:          0  ISSUED:          0  USEFUL:          0  USELESS:          0
ITLB USEFUL LOAD PREFETCHES:          0 PREFETCH ISSUED TO LOWER LEVEL:          0  ACCURACY: -nan
ITLB TIMELY PREFETCHES:          0 LATE PREFETCHES: 0 DROPPED PREFETCHES: 0
ITLB PREFETCHES SAME FILL-ORIGIN LEVEL: 0 DIFFERENT FILL-ORIGIN LEVEL: 0
ITLB AVERAGE MISS LATENCY: -nan cycles
ITLB RQ	ACCESS:    8801691	FORWARD:          0	MERGED:    1755299	TO_CACHE:    7046392

DTLB TOTAL     ACCESS:    7327945  HIT:    7316152  MISS:      11793  HIT %:    99.8391  MISS %:   0.160932   MPKI: 0.23586
DTLB LOAD TRANSLATION ACCESS:    7327945  HIT:    7316152  MISS:      11793  HIT %:    99.8391  MISS %:   0.160932   MPKI: 0.23586
DTLB PREFETCH  REQUESTED:          0  ISSUED:          0  USEFUL:          0  USELESS:          0
DTLB USEFUL LOAD PREFETCHES:          0 PREFETCH ISSUED TO LOWER LEVEL:          0  ACCURACY: -nan
DTLB TIMELY PREFETCHES:          0 LATE PREFETCHES: 0 DROPPED PREFETCHES: 0
DTLB PREFETCHES SAME FILL-ORIGIN LEVEL: 0 DIFFERENT FILL-ORIGIN LEVEL: 0
DTLB AVERAGE MISS LATENCY: 96.7315 cycles
DTLB RQ	ACCESS:   11479844	FORWARD:          0	MERGED:    4151185	TO_CACHE:    7328659

STLB TOTAL     ACCESS:     605978  HIT:     599120  MISS:       6858  HIT %:    98.8683  MISS %:    1.13172   MPKI: 0.13716
STLB LOAD TRANSLATION ACCESS:      11793  HIT:       4935  MISS:       6858  HIT %:    41.8469  MISS %:    58.1531   MPKI: 0.13716
STLB TRANSLATION FROM L1D PREFETCHER ACCESS:     594185  HIT:     594185  MISS:          0  HIT %:        100  MISS %:          0   MPKI: 0
STLB PREFETCH  REQUESTED:          0  ISSUED:          0  USEFUL:          0  USELESS:          0
STLB USEFUL LOAD PREFETCHES:          0 PREFETCH ISSUED TO LOWER LEVEL:          0  ACCURACY: -nan
STLB TIMELY PREFETCHES:          0 LATE PREFETCHES: 0 DROPPED PREFETCHES: 0
STLB PREFETCHES SAME FILL-ORIGIN LEVEL: 0 DIFFERENT FILL-ORIGIN LEVEL: 0
STLB AVERAGE MISS LATENCY: 150.639 cycles
STLB RQ	ACCESS:     668441	FORWARD:          0	MERGED:      62463	TO_CACHE:     605978

STLB Hit, L1D data hit: 0
STLB Hit, L2C data hit: 0
STLB Hit, LLC data hit: 0
STLB Hit, LLC data miss: 0
STLB STLB hints to L2: 0
L1D TOTAL     ACCESS:   11665880  HIT:   11001331  MISS:     664549  HIT %:    94.3035  MISS %:    5.69652   MPKI: 13.291
L1D LOAD      ACCESS:    7700651  HIT:    7683424  MISS:      17227  HIT %:    99.7763  MISS %:   0.223708   MPKI: 0.34454
L1D RFO       ACCESS:    3385201  HIT:    3309121  MISS:      76080  HIT %:    97.7526  MISS %:    2.24743   MPKI: 1.5216
L1D PREFETCH  ACCESS:     580028  HIT:       8786  MISS:     571242  HIT %:    1.51475  MISS %:    98.4852   MPKI: 11.4248
L1D PREFETCH  REQUESTED:    1313296  ISSUED:    1313296  USEFUL:     568281  USELESS:       2964
L1D USEFUL LOAD PREFETCHES:     568281 PREFETCH ISSUED TO LOWER LEVEL:     646874  ACCURACY: 87.8503
L1D TIMELY PREFETCHES:     568281 LATE PREFETCHES: 136249 DROPPED PREFETCHES: 0
L1D PREFETCHES SAME FILL-ORIGIN LEVEL: 646874 DIFFERENT FILL-ORIGIN LEVEL: 0
L1D AVERAGE MISS LATENCY: 3.71058e+06 cycles
L1D RQ	ACCESS:   17541460	FORWARD:          0	MERGED:    9571815	TO_CACHE:    7969562
L1D WQ	ACCESS:    3510282	FORWARD:         83	MERGED:          0	TO_CACHE:    3510282
L1D PQ	ACCESS:     656648	FORWARD:          0	MERGED:          0	TO_CACHE:     656648

L1D UNIQUE REGIONS ACCESSED: 0
L1D REGIONS CONFLICTS: 0
L1D Cross Page Prefetch Requests: 0
L1D Same Page Prefetch Requests: 788085
L1D ROI Sum of L1D PQ occupancy: 8626558
L1D PREFETCHES PUSHED FROM L2C: 0
L1I TOTAL     ACCESS:    8801689  HIT:    8801689  MISS:          0  HIT %:        100  MISS %:          0   MPKI: 0
L1I LOAD      ACCESS:    8801689  HIT:    8801689  MISS:          0  HIT %:        100  MISS %:          0   MPKI: 0
L1I PREFETCH  REQUESTED:          0  ISSUED:          0  USEFUL:          0  USELESS:          0
L1I USEFUL LOAD PREFETCHES:          0 PREFETCH ISSUED TO LOWER LEVEL:          0  ACCURACY: -nan
L1I TIMELY PREFETCHES:          0 LATE PREFETCHES: 0 DROPPED PREFETCHES: 0
L1I PREFETCHES SAME FILL-ORIGIN LEVEL: 0 DIFFERENT FILL-ORIGIN LEVEL: 0
L1I AVERAGE MISS LATENCY: -nan cycles
L1I RQ	ACCESS:   11477898	FORWARD:          0	MERGED:    2676207	TO_CACHE:    8801691

BTB TOTAL     ACCESS:     877290  HIT:     877281  MISS:          9  HIT %:     99.999  MISS %: 0.00102589   MPKI: 0.00018
BTB BRANCH_DIRECT_JUMP	ACCESS:        220  HIT:        218  MISS:          2
BTB BRANCH_INDIRECT	ACCESS:          0  HIT:          0  MISS:          0
BTB BRANCH_CONDITIONAL	ACCESS:     876630  HIT:     876627  MISS:          3
BTB BRANCH_DIRECT_CALL	ACCESS:        220  HIT:        218  MISS:          2
BTB BRANCH_INDIRECT_CALL	ACCESS:          0  HIT:          0  MISS:          0
BTB BRANCH_RETURN	ACCESS:        220  HIT:        218  MISS:          2
BTB BRANCH_OTHER ACCESS:          0  HIT:          0  MISS:          0

L2C TOTAL     ACCESS:    2270819  HIT:    1821201  MISS:     449618  HIT %:    80.2002  MISS %:    19.7998   MPKI: 8.99236
L2C LOAD      ACCESS:      17227  HIT:       8986  MISS:       8241  HIT %:    52.1623  MISS %:    47.8377   MPKI: 0.16482
L2C DATA LOAD MPKI: 0.16482
L2C INSTRUCTION LOAD MPKI: 0
L2C RFO       ACCESS:        661  HIT:        468  MISS:        193  HIT %:    70.8018  MISS %:    29.1982   MPKI: 0.00386
L2C PREFETCH  ACCESS:    1806711  HIT:    1366408  MISS:     440303  HIT %:    75.6296  MISS %:    24.3704   MPKI: 8.80606
L2C DATA PREFETCH MPKI: 8.80606
L2C INSTRUCTION PREFETCH MPKI: 0
L2C WRITEBACK ACCESS:     439360  HIT:     439360  MISS:          0  HIT %:        100  MISS %:          0   MPKI: 0
L2C LOAD TRANSLATION ACCESS:       6860  HIT:       5979  MISS:        881  HIT %:    87.1574  MISS %:    12.8426   MPKI: 0.01762
L2C PREFETCH  REQUESTED:    1632601  ISSUED:    1632564  USEFUL:       2237  USELESS:     438307
L2C USEFUL LOAD PREFETCHES:       2237 PREFETCH ISSUED TO LOWER LEVEL:     440590  ACCURACY: 0.507728
L2C TIMELY PREFETCHES:       2237 LATE PREFETCHES: 281 DROPPED PREFETCHES: 0
L2C PREFETCHES SAME FILL-ORIGIN LEVEL: 345055 DIFFERENT FILL-ORIGIN LEVEL: 0
L2C AVERAGE MISS LATENCY: 907.252 cycles
L2C RQ	ACCESS:      24748	FORWARD:          0	MERGED:          0	TO_CACHE:      24748
L2C WQ	ACCESS:     439360	FORWARD:          0	MERGED:          0	TO_CACHE:     439360
L2C PQ	ACCESS:    2279228	FORWARD:          0	MERGED:      82339	TO_CACHE:    2196889

L2C Instructions Evicting Data 0
L2C Translations Evicting Data 875
L2C Data Evicting Data 447861
L2C Instructions Evicting Instructions 0
L2C Translations Evicting Instructions 0
L2C Data Evicting Instructions 0
L2C Instructions Evicting Translations 0
L2C Translations Evicting Translations 6
L2C Data Evicting Translations 876
L2C Dense regions hint from L2: 0
PSCL5 TOTAL     ACCESS:       6858  HIT:       6858  MISS:          0  HIT %:        100  MISS %:          0   MPKI: 0
PSCL5 LOAD TRANSLATION ACCESS:       6858  HIT:       6858  MISS:          0  HIT %:        100  MISS %:          0   MPKI: 0
PSCL5 PREFETCH  REQUESTED:          0  ISSUED:          0  USEFUL:          0  USELESS:          0
PSCL5 USEFUL LOAD PREFETCHES:          0 PREFETCH ISSUED TO LOWER LEVEL:          0  ACCURACY: -nan
PSCL5 TIMELY PREFETCHES:          0 LATE PREFETCHES: 0 DROPPED PREFETCHES: 0
PSCL5 PREFETCHES SAME FILL-ORIGIN LEVEL: 0 DIFFERENT FILL-ORIGIN LEVEL: 0

PSCL4 TOTAL     ACCESS:       6858  HIT:       6858  MISS:          0  HIT %:        100  MISS %:          0   MPKI: 0
PSCL4 LOAD TRANSLATION ACCESS:       6858  HIT:       6858  MISS:          0  HIT %:        100  MISS %:          0   MPKI: 0
PSCL4 PREFETCH  REQUESTED:          0  ISSUED:          0  USEFUL:          0  USELESS:          0
PSCL4 USEFUL LOAD PREFETCHES:          0 PREFETCH ISSUED TO LOWER LEVEL:          0  ACCURACY: -nan
PSCL4 TIMELY PREFETCHES:          0 LATE PREFETCHES: 0 DROPPED PREFETCHES: 0
PSCL4 PREFETCHES SAME FILL-ORIGIN LEVEL: 0 DIFFERENT FILL-ORIGIN LEVEL: 0

PSCL3 TOTAL     ACCESS:       6858  HIT:       6857  MISS:          1  HIT %:    99.9854  MISS %:  0.0145815   MPKI: 2e-05
PSCL3 LOAD TRANSLATION ACCESS:       6858  HIT:       6857  MISS:          1  HIT %:    99.9854  MISS %:  0.0145815   MPKI: 2e-05
PSCL3 PREFETCH  REQUESTED:          0  ISSUED:          0  USEFUL:          0  USELESS:          0
PSCL3 USEFUL LOAD PREFETCHES:          0 PREFETCH ISSUED TO LOWER LEVEL:          0  ACCURACY: -nan
PSCL3 TIMELY PREFETCHES:          0 LATE PREFETCHES: 0 DROPPED PREFETCHES: 0
PSCL3 PREFETCHES SAME FILL-ORIGIN LEVEL: 0 DIFFERENT FILL-ORIGIN LEVEL: 0

PSCL2 TOTAL     ACCESS:       6858  HIT:       6837  MISS:         21  HIT %:    99.6938  MISS %:   0.306212   MPKI: 0.00042
PSCL2 LOAD TRANSLATION ACCESS:       6858  HIT:       6837  MISS:         21  HIT %:    99.6938  MISS %:   0.306212   MPKI: 0.00042
PSCL2 PREFETCH  REQUESTED:          0  ISSUED:          0  USEFUL:          0  USELESS:          0
PSCL2 USEFUL LOAD PREFETCHES:          0 PREFETCH ISSUED TO LOWER LEVEL:          0  ACCURACY: -nan
PSCL2 TIMELY PREFETCHES:          0 LATE PREFETCHES: 0 DROPPED PREFETCHES: 0
PSCL2 PREFETCHES SAME FILL-ORIGIN LEVEL: 0 DIFFERENT FILL-ORIGIN LEVEL: 0

LLC TOTAL     ACCESS:     888117  HIT:     445520  MISS:     442597  HIT %:    50.1646  MISS %:    49.8354   MPKI: 8.85194
LLC LOAD      ACCESS:       7960  HIT:        327  MISS:       7633  HIT %:    4.10804  MISS %:     95.892   MPKI: 0.15266
LLC RFO       ACCESS:        193  HIT:        193  MISS:          0  HIT %:        100  MISS %:          0   MPKI: 0
LLC PREFETCH  ACCESS:     440584  HIT:       6501  MISS:     434083  HIT %:    1.47554  MISS %:    98.5245   MPKI: 8.68166
LLC WRITEBACK ACCESS:     438499  HIT:     438499  MISS:          0  HIT %:        100  MISS %:          0   MPKI: 0
LLC LOAD TRANSLATION ACCESS:        881  HIT:          0  MISS:        881  HIT %:          0  MISS %:        100   MPKI: 0.01762
LLC PREFETCH  REQUESTED:          0  ISSUED:          0  USEFUL:         29  USELESS:     434096
LLC USEFUL LOAD PREFETCHES:         29 PREFETCH ISSUED TO LOWER LEVEL:     434089  ACCURACY: 0.00668066
LLC TIMELY PREFETCHES:         29 LATE PREFETCHES: 0 DROPPED PREFETCHES: 0
LLC PREFETCHES SAME FILL-ORIGIN LEVEL: 0 DIFFERENT FILL-ORIGIN LEVEL: 0
LLC AVERAGE MISS LATENCY: 891.497 cycles
LLC RQ	ACCESS:       9034	FORWARD:          0	MERGED:          0	TO_CACHE:       9034
LLC WQ	ACCESS:     438499	FORWARD:          0	MERGED:          0	TO_CACHE:     438499
LLC PQ	ACCESS:     440590	FORWARD:          0	MERGED:          0	TO_CACHE:     440590

LLC Dense regions hint to LLC: 0

RAW hits: 795
Loads Generated: 17542252
Loads sent to L1D: 17541460
Stores Generated: 3510282
Stores sent to L1D: 3510282
Major fault: 0 Minor fault: 8326
Allocated PAGES: 8326

stream: 
stream:times selected: 1921767
stream:pref_filled: 689135
stream:pref_useful: 685729
stream:pref_late: 31192
stream:misses: 689
stream:misses_by_poll: 0

CS: 
CS:times selected: 1616667
CS:pref_filled: 3911
CS:pref_useful: 3839
CS:pref_late: 8
CS:misses: 232477
CS:misses_by_poll: 9

CPLX: 
CPLX:times selected: 305005
CPLX:pref_filled: 7776
CPLX:pref_useful: 7692
CPLX:pref_late: 89
CPLX:misses: 52641
CPLX:misses_by_poll: 32

NL_L1: 
NL:times selected: 23
NL:pref_filled: 1
NL:pref_useful: 1
NL:pref_late: 0
NL:misses: 6
NL:misses_by_poll: 0

total selections: 3843462
total_filled: 571242
total_useful: 568281
total_late: 31293
total_polluted: 41
total_misses_after_warmup: 286140
conflicts: 500
Degree Incremented Times: 122896
Degree Decremented Times: 0

L1 IP Table Write Accesses: 7967701
L1 IP Table Read Accesses: 7967201
L1 RST Write Accesses: 1543399
L1 RST Read Accesses: 3086798
L1 CSPT Write Accesses: 1543399
L1 CSPT Read Accesses: 2274488
L1 RR Filter Tag Write Accesses: 656648
L1 RR Filter Tag Read Accesses: 344742108
L1 IP Table Tag Write Accesses: 7969564
L1 IP Table Tag Read Accesses: 7969564
L1 RST Tag Write Accesses: 0
L1 RST Tag Read Accesses: 13904744
L1 RR Filter Write Accesses: 0
L1 RR Filter Read Accesses: 13124382
test: 48335
L2 IP Table Read Accesses: 594773
L2 IP Table Write Accesses: 578078
L2 IP Table Tag Read Accesses: 297678
L2 IP Table Tag Write Accesses: 297678

DRAM Statistics
 CHANNEL 0
 RQ ROW_BUFFER_HIT:      69285  ROW_BUFFER_MISS:     373312
 DBUS_CONGESTED:     826080
 WQ ROW_BUFFER_HIT:      76004  ROW_BUFFER_MISS:     362105  FULL:          0

 AVG_CONGESTED_CYCLE: 54
 All warmup complete: 2
Channel 0 Bank busy for read cycles: 0
Channel 0 Bank busy for write cycles: 0
Channel 0
Rank 0
0banks busy for read cycles: 17452
0banks busy for write cycles: 0
1banks busy for read cycles: 1451010
1banks busy for write cycles: 52505
2banks busy for read cycles: 1698145
2banks busy for write cycles: 52500
3banks busy for read cycles: 2038780
3banks busy for write cycles: 52499
4banks busy for read cycles: 2467610
4banks busy for write cycles: 52493
5banks busy for read cycles: 3291332
5banks busy for write cycles: 52492
6banks busy for read cycles: 4384005
6banks busy for write cycles: 52514
7banks busy for read cycles: 4354785
7banks busy for write cycles: 492657
8banks busy for read cycles: 10790030
8banks busy for write cycles: 28128557

CPU 0 Branch Prediction Accuracy: 99.9751% MPKI: 0.00438 Average ROB Occupancy at Mispredict: 116.557
Branch types
NOT_BRANCH: 49121625 98.2432%
BRANCH_DIRECT_JUMP: 220 0.00044%
BRANCH_INDIRECT: 0 0%
BRANCH_CONDITIONAL: 877399 1.7548%
BRANCH_DIRECT_CALL: 220 0.00044%
BRANCH_INDIRECT_CALL: 0 0%
BRANCH_RETURN: 220 0.00044%
BRANCH_OTHER: 0 0%

@sumon_overall_L1D    568281    136249      2964    571242   1313296   1313296
@Sumon_Early_by_class_L1D    563879       562      3747         0
@Sumon_Late_by_class_L1D     31138         8        89         0

@Sumon_Early_by_cycle_L1D    125468     81642     90345     34502     16234    208018     12004        66         2         0         0         0
@Sumon_Late_by_cycle_L1D     27728       304      1605      1274       302        22         4         0         0         0         0         0
@Sumon_Early_stream_L1D    125134     81065     89553     34078     15859    206649     11535         6         0         0         0         0
@Sumon_Early_CS_L1D        31        32        66       105        67       169        88         4         0         0         0         0
@Sumon_Early_CPLX_L1D       268       508       710       315       308      1199       381        56         2         0         0         0
@Sumon_Late_stream_L1D     27684       294      1572      1262       300        22         4         0         0         0         0         0
@Sumon_Late_CS_L1D         4         0         1         3         0         0         0         0         0         0         0         0
@Sumon_Late_CPLX_L1D        37        10        31         9         2         0         0         0         0         0         0         0
@sumon_overall_L2C      2237       281    438307    440303   1632564   1632601
@Sumon_Early_by_class_L2C      2207        17         5         0
@Sumon_Late_by_class_L2C       278         0         0         0

@Sumon_Early_by_cycle_L2C       441       255       205        38        15        68        19         0         0         0         0      1196
@Sumon_Late_by_cycle_L2C        65        67        79        62         2         6         0         0         0         0         0         0
@Sumon_Early_stream_L2C       441       255       205        38        15        68        18         0         0         0         0      1167
@Sumon_Early_CS_L2C         0         0         0         0         0         0         0         0         0         0         0        17
@Sumon_Early_CPLX_L2C         0         0         0         0         0         0         0         0         0         0         0         5
@Sumon_Late_stream_L2C        62        67        79        62         2         6         0         0         0         0         0         0
@Sumon_Late_CS_L2C         0         0         0         0         0         0         0         0         0         0         0         0
@Sumon_Late_CPLX_L2C         0         0         0         0         0         0         0         0         0         0         0         0
DRAM PAGES: 1048576
Allocated PAGES: 8326
