
*** ChampSim Multicore Out-of-Order Simulator ***

Warmup Instructions: 10000000
Simulation Instructions: 50000000
Number of CPUs: 1
LLC sets: 2048
LLC ways: 16
Off-chip DRAM Size: 4096 MB Channels: 1 Width: 64-bit Data Rate: 533 MT/s
CPU 0 runs traces/SPEC2017/654.roms_s-293B.champsimtrace.xz
.xz
CPU 0 Bimodal branch predictor
BTB has LRU replacement policy
ITLB has LRU replacement policy
DTLB has LRU replacement policy
STLB has LRU replacement policy
L1I has LRU replacement policy
IP Table Entries: 256
L1D has LRU replacement policy
IP_Table L2 entries: 256
L2C has LRU replacement policy
LLC has LRU replacement policy
Heartbeat CPU 0 instructions: 10000001 cycles: 3119060 heartbeat IPC: 3.20609 cumulative IPC: 3.20609 (Simulation time: 0 hr 23 min 59 sec) 

Warmup complete CPU 0 instructions: 10000001 cycles: 3119060 (Simulation time: 0 hr 23 min 59 sec) 

Heartbeat CPU 0 instructions: 20000003 cycles: 14250214 heartbeat IPC: 0.89838 cumulative IPC: 0.89838 (Simulation time: 0 hr 45 min 31 sec) 
Heartbeat CPU 0 instructions: 30000000 cycles: 24421604 heartbeat IPC: 0.98315 cumulative IPC: 0.938855 (Simulation time: 1 hr 5 min 17 sec) 
Heartbeat CPU 0 instructions: 40000003 cycles: 35583718 heartbeat IPC: 0.895888 cumulative IPC: 0.924082 (Simulation time: 1 hr 26 min 40 sec) 
Heartbeat CPU 0 instructions: 50000000 cycles: 45774009 heartbeat IPC: 0.981326 cumulative IPC: 0.937757 (Simulation time: 1 hr 46 min 11 sec) 
Heartbeat CPU 0 instructions: 60000002 cycles: 56898301 heartbeat IPC: 0.898934 cumulative IPC: 0.929727 (Simulation time: 2 hr 3 min 41 sec) 
Finished CPU 0 instructions: 50000001 cycles: 53779241 cumulative IPC: 0.929727 (Simulation time: 2 hr 3 min 41 sec) 

ChampSim completed all CPUs

Region of Interest Statistics

CPU 0 cumulative IPC: 0.929727 instructions: 50000001 cycles: 53779241
ITLB TOTAL     ACCESS:    7048419  HIT:    7048419  MISS:          0  HIT %:        100  MISS %:          0   MPKI: 0
ITLB LOAD TRANSLATION ACCESS:    7048419  HIT:    7048419  MISS:          0  HIT %:        100  MISS %:          0   MPKI: 0
ITLB PREFETCH  REQUESTED:          0  ISSUED:          0  USEFUL:          0  USELESS:          0
ITLB USEFUL LOAD PREFETCHES:          0 PREFETCH ISSUED TO LOWER LEVEL:          0  ACCURACY: -nan
ITLB TIMELY PREFETCHES:          0 LATE PREFETCHES: 0 DROPPED PREFETCHES: 0
ITLB PREFETCHES SAME FILL-ORIGIN LEVEL: 0 DIFFERENT FILL-ORIGIN LEVEL: 0
ITLB AVERAGE MISS LATENCY: -nan cycles
ITLB RQ	ACCESS:    8969888	FORWARD:          0	MERGED:    1921469	TO_CACHE:    7048419

DTLB TOTAL     ACCESS:   13166976  HIT:   13152300  MISS:      14676  HIT %:    99.8885  MISS %:   0.111461   MPKI: 0.29352
DTLB LOAD TRANSLATION ACCESS:   13166976  HIT:   13152300  MISS:      14676  HIT %:    99.8885  MISS %:   0.111461   MPKI: 0.29352
DTLB PREFETCH  REQUESTED:          0  ISSUED:          0  USEFUL:          0  USELESS:          0
DTLB USEFUL LOAD PREFETCHES:          0 PREFETCH ISSUED TO LOWER LEVEL:          0  ACCURACY: -nan
DTLB TIMELY PREFETCHES:          0 LATE PREFETCHES: 0 DROPPED PREFETCHES: 0
DTLB PREFETCHES SAME FILL-ORIGIN LEVEL: 0 DIFFERENT FILL-ORIGIN LEVEL: 0
DTLB AVERAGE MISS LATENCY: 327.409 cycles
DTLB RQ	ACCESS:   15244916	FORWARD:          0	MERGED:    2030446	TO_CACHE:   13214470

STLB TOTAL     ACCESS:     387359  HIT:     382319  MISS:       5040  HIT %:    98.6989  MISS %:    1.30112   MPKI: 0.1008
STLB LOAD TRANSLATION ACCESS:      14676  HIT:       9636  MISS:       5040  HIT %:    65.6582  MISS %:    34.3418   MPKI: 0.1008
STLB TRANSLATION FROM L1D PREFETCHER ACCESS:     372683  HIT:     372683  MISS:          0  HIT %:        100  MISS %:          0   MPKI: 0
STLB PREFETCH  REQUESTED:          0  ISSUED:          0  USEFUL:          0  USELESS:          0
STLB USEFUL LOAD PREFETCHES:          0 PREFETCH ISSUED TO LOWER LEVEL:          0  ACCURACY: -nan
STLB TIMELY PREFETCHES:          0 LATE PREFETCHES: 0 DROPPED PREFETCHES: 0
STLB PREFETCHES SAME FILL-ORIGIN LEVEL: 0 DIFFERENT FILL-ORIGIN LEVEL: 0
STLB AVERAGE MISS LATENCY: 925.825 cycles
STLB RQ	ACCESS:    1295960	FORWARD:          0	MERGED:     908601	TO_CACHE:     387359

STLB Hit, L1D data hit: 0
STLB Hit, L2C data hit: 0
STLB Hit, LLC data hit: 0
STLB Hit, LLC data miss: 0
STLB STLB hints to L2: 0
L1D TOTAL     ACCESS:   15901321  HIT:   15288802  MISS:     612519  HIT %:     96.148  MISS %:      3.852   MPKI: 12.2504
L1D LOAD      ACCESS:   10542393  HIT:   10510008  MISS:      32385  HIT %:    99.6928  MISS %:   0.307188   MPKI: 0.6477
L1D RFO       ACCESS:    4119576  HIT:    3887448  MISS:     232128  HIT %:    94.3652  MISS %:    5.63475   MPKI: 4.64256
L1D PREFETCH  ACCESS:    1239352  HIT:     891346  MISS:     348006  HIT %:    71.9203  MISS %:    28.0797   MPKI: 6.96012
L1D PREFETCH  REQUESTED:    2775264  ISSUED:    2564717  USEFUL:     328313  USELESS:      19676
L1D USEFUL LOAD PREFETCHES:     328313 PREFETCH ISSUED TO LOWER LEVEL:     400331  ACCURACY: 82.0104
L1D TIMELY PREFETCHES:     328313 LATE PREFETCHES: 70469 DROPPED PREFETCHES: 0
L1D PREFETCHES SAME FILL-ORIGIN LEVEL: 400331 DIFFERENT FILL-ORIGIN LEVEL: 0
L1D AVERAGE MISS LATENCY: 352.575 cycles
L1D RQ	ACCESS:   16818169	FORWARD:          0	MERGED:    6054789	TO_CACHE:   10620948
L1D WQ	ACCESS:    4623972	FORWARD:     142432	MERGED:          4	TO_CACHE:    4623968
L1D PQ	ACCESS:    1283433	FORWARD:          0	MERGED:       2149	TO_CACHE:    1281284

L1D UNIQUE REGIONS ACCESSED: 0
L1D REGIONS CONFLICTS: 0
L1D Cross Page Prefetch Requests: 0
L1D Same Page Prefetch Requests: 1475701
L1D ROI Sum of L1D PQ occupancy: 86230991
L1D PREFETCHES PUSHED FROM L2C: 0
L1I TOTAL     ACCESS:    8969886  HIT:    8969886  MISS:          0  HIT %:        100  MISS %:          0   MPKI: 0
L1I LOAD      ACCESS:    8969886  HIT:    8969886  MISS:          0  HIT %:        100  MISS %:          0   MPKI: 0
L1I PREFETCH  REQUESTED:          0  ISSUED:          0  USEFUL:          0  USELESS:          0
L1I USEFUL LOAD PREFETCHES:          0 PREFETCH ISSUED TO LOWER LEVEL:          0  ACCURACY: -nan
L1I TIMELY PREFETCHES:          0 LATE PREFETCHES: 0 DROPPED PREFETCHES: 0
L1I PREFETCHES SAME FILL-ORIGIN LEVEL: 0 DIFFERENT FILL-ORIGIN LEVEL: 0
L1I AVERAGE MISS LATENCY: -nan cycles
L1I RQ	ACCESS:   11497817	FORWARD:          0	MERGED:    2527929	TO_CACHE:    8969888

BTB TOTAL     ACCESS:     648184  HIT:     648169  MISS:         15  HIT %:    99.9977  MISS %: 0.00231416   MPKI: 0.0003
BTB BRANCH_DIRECT_JUMP	ACCESS:          8  HIT:          7  MISS:          1
BTB BRANCH_INDIRECT	ACCESS:          0  HIT:          0  MISS:          0
BTB BRANCH_CONDITIONAL	ACCESS:     648176  HIT:     648162  MISS:         14
BTB BRANCH_DIRECT_CALL	ACCESS:          0  HIT:          0  MISS:          0
BTB BRANCH_INDIRECT_CALL	ACCESS:          0  HIT:          0  MISS:          0
BTB BRANCH_RETURN	ACCESS:          0  HIT:          0  MISS:          0
BTB BRANCH_OTHER ACCESS:          0  HIT:          0  MISS:          0

L2C TOTAL     ACCESS:    2252841  HIT:    1717159  MISS:     535682  HIT %:    76.2219  MISS %:    23.7781   MPKI: 10.7136
L2C LOAD      ACCESS:      32385  HIT:      24326  MISS:       8059  HIT %:     75.115  MISS %:     24.885   MPKI: 0.16118
L2C DATA LOAD MPKI: 0.16118
L2C INSTRUCTION LOAD MPKI: 0
L2C RFO       ACCESS:     232128  HIT:        350  MISS:     231778  HIT %:   0.150779  MISS %:    99.8492   MPKI: 4.63556
L2C PREFETCH  ACCESS:    1729574  HIT:    1438139  MISS:     291435  HIT %:    83.1499  MISS %:    16.8501   MPKI: 5.8287
L2C DATA PREFETCH MPKI: 5.8287
L2C INSTRUCTION PREFETCH MPKI: 0
L2C WRITEBACK ACCESS:     251136  HIT:     250846  MISS:        290  HIT %:    99.8845  MISS %:   0.115475   MPKI: 0.0058
L2C LOAD TRANSLATION ACCESS:       7618  HIT:       3498  MISS:       4120  HIT %:    45.9176  MISS %:    54.0824   MPKI: 0.0824
L2C PREFETCH  REQUESTED:    1674677  ISSUED:    1645340  USEFUL:      18833  USELESS:     272475
L2C USEFUL LOAD PREFETCHES:      18833 PREFETCH ISSUED TO LOWER LEVEL:     292325  ACCURACY: 6.44249
L2C TIMELY PREFETCHES:      18833 LATE PREFETCHES: 890 DROPPED PREFETCHES: 0
L2C PREFETCHES SAME FILL-ORIGIN LEVEL: 254791 DIFFERENT FILL-ORIGIN LEVEL: 0
L2C AVERAGE MISS LATENCY: 620.278 cycles
L2C RQ	ACCESS:     272133	FORWARD:          0	MERGED:          0	TO_CACHE:     272133
L2C WQ	ACCESS:     251136	FORWARD:          0	MERGED:          0	TO_CACHE:     251136
L2C PQ	ACCESS:    1993346	FORWARD:          0	MERGED:     143303	TO_CACHE:    1850043

L2C Instructions Evicting Data 0
L2C Translations Evicting Data 4093
L2C Data Evicting Data 527230
L2C Instructions Evicting Instructions 0
L2C Translations Evicting Instructions 0
L2C Data Evicting Instructions 0
L2C Instructions Evicting Translations 0
L2C Translations Evicting Translations 27
L2C Data Evicting Translations 4042
L2C Dense regions hint from L2: 0
PSCL5 TOTAL     ACCESS:       5040  HIT:       5040  MISS:          0  HIT %:        100  MISS %:          0   MPKI: 0
PSCL5 LOAD TRANSLATION ACCESS:       5040  HIT:       5040  MISS:          0  HIT %:        100  MISS %:          0   MPKI: 0
PSCL5 PREFETCH  REQUESTED:          0  ISSUED:          0  USEFUL:          0  USELESS:          0
PSCL5 USEFUL LOAD PREFETCHES:          0 PREFETCH ISSUED TO LOWER LEVEL:          0  ACCURACY: -nan
PSCL5 TIMELY PREFETCHES:          0 LATE PREFETCHES: 0 DROPPED PREFETCHES: 0
PSCL5 PREFETCHES SAME FILL-ORIGIN LEVEL: 0 DIFFERENT FILL-ORIGIN LEVEL: 0

PSCL4 TOTAL     ACCESS:       5040  HIT:       5040  MISS:          0  HIT %:        100  MISS %:          0   MPKI: 0
PSCL4 LOAD TRANSLATION ACCESS:       5040  HIT:       5040  MISS:          0  HIT %:        100  MISS %:          0   MPKI: 0
PSCL4 PREFETCH  REQUESTED:          0  ISSUED:          0  USEFUL:          0  USELESS:          0
PSCL4 USEFUL LOAD PREFETCHES:          0 PREFETCH ISSUED TO LOWER LEVEL:          0  ACCURACY: -nan
PSCL4 TIMELY PREFETCHES:          0 LATE PREFETCHES: 0 DROPPED PREFETCHES: 0
PSCL4 PREFETCHES SAME FILL-ORIGIN LEVEL: 0 DIFFERENT FILL-ORIGIN LEVEL: 0

PSCL3 TOTAL     ACCESS:       5031  HIT:       4954  MISS:         77  HIT %:    98.4695  MISS %:    1.53051   MPKI: 0.00154
PSCL3 LOAD TRANSLATION ACCESS:       5031  HIT:       4954  MISS:         77  HIT %:    98.4695  MISS %:    1.53051   MPKI: 0.00154
PSCL3 PREFETCH  REQUESTED:          0  ISSUED:          0  USEFUL:          0  USELESS:          0
PSCL3 USEFUL LOAD PREFETCHES:          0 PREFETCH ISSUED TO LOWER LEVEL:          0  ACCURACY: -nan
PSCL3 TIMELY PREFETCHES:          0 LATE PREFETCHES: 0 DROPPED PREFETCHES: 0
PSCL3 PREFETCHES SAME FILL-ORIGIN LEVEL: 0 DIFFERENT FILL-ORIGIN LEVEL: 0

PSCL2 TOTAL     ACCESS:       5040  HIT:       2517  MISS:       2523  HIT %:    49.9405  MISS %:    50.0595   MPKI: 0.05046
PSCL2 LOAD TRANSLATION ACCESS:       5040  HIT:       2517  MISS:       2523  HIT %:    49.9405  MISS %:    50.0595   MPKI: 0.05046
PSCL2 PREFETCH  REQUESTED:          0  ISSUED:          0  USEFUL:          0  USELESS:          0
PSCL2 USEFUL LOAD PREFETCHES:          0 PREFETCH ISSUED TO LOWER LEVEL:          0  ACCURACY: -nan
PSCL2 TIMELY PREFETCHES:          0 LATE PREFETCHES: 0 DROPPED PREFETCHES: 0
PSCL2 PREFETCHES SAME FILL-ORIGIN LEVEL: 0 DIFFERENT FILL-ORIGIN LEVEL: 0

LLC TOTAL     ACCESS:     787318  HIT:     418227  MISS:     369091  HIT %:    53.1205  MISS %:    46.8795   MPKI: 7.38182
LLC LOAD      ACCESS:       7169  HIT:       2511  MISS:       4658  HIT %:    35.0258  MISS %:    64.9742   MPKI: 0.09316
LLC RFO       ACCESS:     231778  HIT:      36544  MISS:     195234  HIT %:    15.7668  MISS %:    84.2332   MPKI: 3.90468
LLC PREFETCH  ACCESS:     292325  HIT:     127217  MISS:     165108  HIT %:     43.519  MISS %:     56.481   MPKI: 3.30216
LLC WRITEBACK ACCESS:     251926  HIT:     251881  MISS:         45  HIT %:    99.9821  MISS %:  0.0178624   MPKI: 0.0009
LLC LOAD TRANSLATION ACCESS:       4120  HIT:         74  MISS:       4046  HIT %:    1.79612  MISS %:    98.2039   MPKI: 0.08092
LLC PREFETCH  REQUESTED:          0  ISSUED:          0  USEFUL:      12165  USELESS:     148413
LLC USEFUL LOAD PREFETCHES:      12165 PREFETCH ISSUED TO LOWER LEVEL:     165108  ACCURACY: 7.3679
LLC TIMELY PREFETCHES:      12165 LATE PREFETCHES: 0 DROPPED PREFETCHES: 0
LLC PREFETCHES SAME FILL-ORIGIN LEVEL: 0 DIFFERENT FILL-ORIGIN LEVEL: 0
LLC AVERAGE MISS LATENCY: 860.727 cycles
LLC RQ	ACCESS:     243069	FORWARD:          0	MERGED:          0	TO_CACHE:     243069
LLC WQ	ACCESS:     251926	FORWARD:          0	MERGED:          0	TO_CACHE:     251926
LLC PQ	ACCESS:     292325	FORWARD:          0	MERGED:          0	TO_CACHE:     292325

LLC Dense regions hint to LLC: 0

RAW hits: 563707
Loads Generated: 17381878
Loads sent to L1D: 16818169
Stores Generated: 4623969
Stores sent to L1D: 4623972
Major fault: 0 Minor fault: 6614
Allocated PAGES: 6614

stream: 
stream:times selected: 516631
stream:pref_filled: 403064
stream:pref_useful: 381431
stream:pref_late: 12349
stream:misses: 21
stream:misses_by_poll: 0

CS: 
CS:times selected: 506144
CS:pref_filled: 296
CS:pref_useful: 293
CS:pref_late: 10
CS:misses: 106780
CS:misses_by_poll: 1

CPLX: 
CPLX:times selected: 10417
CPLX:pref_filled: 155
CPLX:pref_useful: 31
CPLX:pref_late: 0
CPLX:misses: 386
CPLX:misses_by_poll: 1

NL_L1: 
NL:times selected: 7
NL:pref_filled: 3
NL:pref_useful: 3
NL:pref_late: 0
NL:misses: 0
NL:misses_by_poll: 0

total selections: 1033199
total_filled: 348006
total_useful: 328313
total_late: 12372
total_polluted: 2
total_misses_after_warmup: 110941
conflicts: 33360
Degree Incremented Times: 67194
Degree Decremented Times: 0

L1 IP Table Write Accesses: 9954255
L1 IP Table Read Accesses: 9920895
L1 RST Write Accesses: 453804
L1 RST Read Accesses: 907608
L1 CSPT Write Accesses: 453804
L1 CSPT Read Accesses: 482532
L1 RR Filter Tag Write Accesses: 1493980
L1 RR Filter Tag Read Accesses: 101923249
L1 IP Table Tag Write Accesses: 10620949
L1 IP Table Tag Read Accesses: 10620949
L1 RST Tag Write Accesses: 0
L1 RST Tag Read Accesses: 3905673
L1 RR Filter Write Accesses: 0
L1 RR Filter Read Accesses: 3878680
test: 11115
L2 IP Table Read Accesses: 601385
L2 IP Table Write Accesses: 569619
L2 IP Table Tag Read Accesses: 300916
L2 IP Table Tag Write Accesses: 300916

DRAM Statistics
 CHANNEL 0
 RQ ROW_BUFFER_HIT:      67618  ROW_BUFFER_MISS:     301155
 DBUS_CONGESTED:     469096
 WQ ROW_BUFFER_HIT:      81905  ROW_BUFFER_MISS:     141602  FULL:          0

 AVG_CONGESTED_CYCLE: 50
 All warmup complete: 2
Channel 0 Bank busy for read cycles: 0
Channel 0 Bank busy for write cycles: 0
Channel 0
Rank 0
0banks busy for read cycles: 5163247
0banks busy for write cycles: 22292
1banks busy for read cycles: 9776700
1banks busy for write cycles: 3125169
2banks busy for read cycles: 6992110
2banks busy for write cycles: 1854924
3banks busy for read cycles: 2118585
3banks busy for write cycles: 1039269
4banks busy for read cycles: 925373
4banks busy for write cycles: 710710
5banks busy for read cycles: 895896
5banks busy for write cycles: 562366
6banks busy for read cycles: 910876
6banks busy for write cycles: 585414
7banks busy for read cycles: 1576144
7banks busy for write cycles: 975501
8banks busy for read cycles: 6924831
8banks busy for write cycles: 9619835

CPU 0 Branch Prediction Accuracy: 99.7993% MPKI: 0.02604 Average ROB Occupancy at Mispredict: 101.992
Branch types
NOT_BRANCH: 49351064 98.7021%
BRANCH_DIRECT_JUMP: 8 1.6e-05%
BRANCH_INDIRECT: 0 0%
BRANCH_CONDITIONAL: 648608 1.29722%
BRANCH_DIRECT_CALL: 0 0%
BRANCH_INDIRECT_CALL: 0 0%
BRANCH_RETURN: 0 0%
BRANCH_OTHER: 0 0%

@sumon_overall_L1D    328313     70469     19676    348006   2564717   2775264
@Sumon_Early_by_class_L1D    328045       226        28         0
@Sumon_Late_by_class_L1D     12333         9         0         0

@Sumon_Early_by_cycle_L1D     14208      8159     11047     12194     25742    146644     32008     14799     61670      1746        96         0
@Sumon_Late_by_cycle_L1D      3819      1061      1445      1187       888      2428      1255       265         7         0         0         0
@Sumon_Early_stream_L1D     14174      8141     11025     12188     25731    146564     31969     14752     61665      1745        91         0
@Sumon_Early_CS_L1D        32        13        15         3         5        73        38        44         2         0         1         0
@Sumon_Early_CPLX_L1D         0         1         5         2         6         6         1         3         3         1         0         0
@Sumon_Late_stream_L1D      3810      1061      1442      1187       887      2419      1255       265         7         0         0         0
@Sumon_Late_CS_L1D         7         0         0         0         0         2         0         0         0         0         0         0
@Sumon_Late_CPLX_L1D         0         0         0         0         0         0         0         0         0         0         0         0
@sumon_overall_L2C     18833       890    272475    291435   1645340   1674677
@Sumon_Early_by_class_L2C     18781         0         0         0
@Sumon_Late_by_class_L2C       882         0         0         0

@Sumon_Early_by_cycle_L2C       485       454       696      2418       559      9496      2066       495        79      1368       270       447
@Sumon_Late_by_cycle_L2C        82        55        96        61       108       388        97         3         0         0         0         0
@Sumon_Early_stream_L2C       484       453       693      2413       551      9493      2059       488        79      1360       270       438
@Sumon_Early_CS_L2C         0         0         0         0         0         0         0         0         0         0         0         0
@Sumon_Early_CPLX_L2C         0         0         0         0         0         0         0         0         0         0         0         0
@Sumon_Late_stream_L2C        79        54        96        61       108       388        93         3         0         0         0         0
@Sumon_Late_CS_L2C         0         0         0         0         0         0         0         0         0         0         0         0
@Sumon_Late_CPLX_L2C         0         0         0         0         0         0         0         0         0         0         0         0
DRAM PAGES: 1048576
Allocated PAGES: 6614
