
*** ChampSim Multicore Out-of-Order Simulator ***

Warmup Instructions: 10000000
Simulation Instructions: 50000000
Number of CPUs: 1
LLC sets: 2048
LLC ways: 16
Off-chip DRAM Size: 4096 MB Channels: 1 Width: 64-bit Data Rate: 533 MT/s
CPU 0 runs traces/SPEC2017/654.roms_s-1390B.champsimtrace.xz
.xz
CPU 0 Bimodal branch predictor
BTB has LRU replacement policy
ITLB has LRU replacement policy
DTLB has LRU replacement policy
STLB has LRU replacement policy
L1I has LRU replacement policy
IP Table Entries: 256
L1D has LRU replacement policy
IP_Table L2 entries: 256
L2C has LRU replacement policy
LLC has LRU replacement policy
Heartbeat CPU 0 instructions: 10000001 cycles: 3756032 heartbeat IPC: 2.66238 cumulative IPC: 2.66238 (Simulation time: 0 hr 34 min 9 sec) 

Warmup complete CPU 0 instructions: 10000001 cycles: 3756032 (Simulation time: 0 hr 34 min 9 sec) 

Heartbeat CPU 0 instructions: 20000000 cycles: 36675266 heartbeat IPC: 0.303774 cumulative IPC: 0.303774 (Simulation time: 1 hr 13 min 6 sec) 
Heartbeat CPU 0 instructions: 30000003 cycles: 66747072 heartbeat IPC: 0.332538 cumulative IPC: 0.317506 (Simulation time: 1 hr 44 min 58 sec) 
Heartbeat CPU 0 instructions: 40000002 cycles: 102876071 heartbeat IPC: 0.276786 cumulative IPC: 0.302663 (Simulation time: 2 hr 19 min 42 sec) 
Heartbeat CPU 0 instructions: 50000000 cycles: 140978687 heartbeat IPC: 0.262449 cumulative IPC: 0.291497 (Simulation time: 2 hr 38 min 32 sec) 
Heartbeat CPU 0 instructions: 60000001 cycles: 157018227 heartbeat IPC: 0.623459 cumulative IPC: 0.326238 (Simulation time: 2 hr 43 min 3 sec) 
Finished CPU 0 instructions: 50000000 cycles: 153262195 cumulative IPC: 0.326238 (Simulation time: 2 hr 43 min 3 sec) 

ChampSim completed all CPUs

Region of Interest Statistics

CPU 0 cumulative IPC: 0.326238 instructions: 50000000 cycles: 153262195
ITLB TOTAL     ACCESS:    7894206  HIT:    7894183  MISS:         23  HIT %:    99.9997  MISS %: 0.000291353   MPKI: 0.00046
ITLB LOAD TRANSLATION ACCESS:    7894206  HIT:    7894183  MISS:         23  HIT %:    99.9997  MISS %: 0.000291353   MPKI: 0.00046
ITLB PREFETCH  REQUESTED:          0  ISSUED:          0  USEFUL:          0  USELESS:          0
ITLB USEFUL LOAD PREFETCHES:          0 PREFETCH ISSUED TO LOWER LEVEL:          0  ACCURACY: -nan
ITLB TIMELY PREFETCHES:          0 LATE PREFETCHES: 0 DROPPED PREFETCHES: 0
ITLB PREFETCHES SAME FILL-ORIGIN LEVEL: 0 DIFFERENT FILL-ORIGIN LEVEL: 0
ITLB AVERAGE MISS LATENCY: 418.739 cycles
ITLB RQ	ACCESS:    8765494	FORWARD:          0	MERGED:     871282	TO_CACHE:    7894212

DTLB TOTAL     ACCESS:   13534538  HIT:   13480026  MISS:      54512  HIT %:    99.5972  MISS %:   0.402762   MPKI: 1.09024
DTLB LOAD TRANSLATION ACCESS:   13534538  HIT:   13480026  MISS:      54512  HIT %:    99.5972  MISS %:   0.402762   MPKI: 1.09024
DTLB PREFETCH  REQUESTED:          0  ISSUED:          0  USEFUL:          0  USELESS:          0
DTLB USEFUL LOAD PREFETCHES:          0 PREFETCH ISSUED TO LOWER LEVEL:          0  ACCURACY: -nan
DTLB TIMELY PREFETCHES:          0 LATE PREFETCHES: 0 DROPPED PREFETCHES: 0
DTLB PREFETCHES SAME FILL-ORIGIN LEVEL: 0 DIFFERENT FILL-ORIGIN LEVEL: 0
DTLB AVERAGE MISS LATENCY: 474.829 cycles
DTLB RQ	ACCESS:   14817962	FORWARD:          0	MERGED:    1208763	TO_CACHE:   13609199

STLB TOTAL     ACCESS:    1048413  HIT:    1009439  MISS:      38974  HIT %:    96.2826  MISS %:    3.71743   MPKI: 0.77948
STLB LOAD TRANSLATION ACCESS:      54535  HIT:      15562  MISS:      38973  HIT %:    28.5358  MISS %:    71.4642   MPKI: 0.77946
STLB TRANSLATION FROM L1D PREFETCHER ACCESS:     993878  HIT:     993877  MISS:          1  HIT %:    99.9999  MISS %: 0.000100616   MPKI: 2e-05
STLB PREFETCH  REQUESTED:          0  ISSUED:          0  USEFUL:          0  USELESS:          1
STLB USEFUL LOAD PREFETCHES:          0 PREFETCH ISSUED TO LOWER LEVEL:          0  ACCURACY: -nan
STLB TIMELY PREFETCHES:          0 LATE PREFETCHES: 0 DROPPED PREFETCHES: 0
STLB PREFETCHES SAME FILL-ORIGIN LEVEL: 0 DIFFERENT FILL-ORIGIN LEVEL: 0
STLB AVERAGE MISS LATENCY: 650.787 cycles
STLB RQ	ACCESS:    2701650	FORWARD:          0	MERGED:    1653236	TO_CACHE:    1048414

STLB Hit, L1D data hit: 0
STLB Hit, L2C data hit: 0
STLB Hit, LLC data hit: 0
STLB Hit, LLC data miss: 0
STLB STLB hints to L2: 0
L1D TOTAL     ACCESS:   13082611  HIT:   11269463  MISS:    1813148  HIT %:    86.1408  MISS %:    13.8592   MPKI: 36.263
L1D LOAD      ACCESS:    8726089  HIT:    8513072  MISS:     213017  HIT %:    97.5588  MISS %:    2.44115   MPKI: 4.26034
L1D RFO       ACCESS:    1848363  HIT:    1317261  MISS:     531102  HIT %:    71.2664  MISS %:    28.7336   MPKI: 10.622
L1D PREFETCH  ACCESS:    2508159  HIT:    1439130  MISS:    1069029  HIT %:    57.3779  MISS %:    42.6221   MPKI: 21.3806
L1D PREFETCH  REQUESTED:    7147714  ISSUED:    5338668  USEFUL:     865267  USELESS:     203753
L1D USEFUL LOAD PREFETCHES:     865267 PREFETCH ISSUED TO LOWER LEVEL:    1587842  ACCURACY: 54.4933
L1D TIMELY PREFETCHES:     865267 LATE PREFETCHES: 793204 DROPPED PREFETCHES: 0
L1D PREFETCHES SAME FILL-ORIGIN LEVEL: 1587842 DIFFERENT FILL-ORIGIN LEVEL: 0
L1D AVERAGE MISS LATENCY: 1.21516e+06 cycles
L1D RQ	ACCESS:   17793173	FORWARD:          0	MERGED:    8168284	TO_CACHE:    9624682
L1D WQ	ACCESS:    5193298	FORWARD:        209	MERGED:         18	TO_CACHE:    5193280
L1D PQ	ACCESS:    2691553	FORWARD:          0	MERGED:      44436	TO_CACHE:    2647115

L1D UNIQUE REGIONS ACCESSED: 0
L1D REGIONS CONFLICTS: 0
L1D Cross Page Prefetch Requests: 0
L1D Same Page Prefetch Requests: 4130214
L1D ROI Sum of L1D PQ occupancy: 825558942
L1D PREFETCHES PUSHED FROM L2C: 0
L1I TOTAL     ACCESS:    8765258  HIT:    8764839  MISS:        419  HIT %:    99.9952  MISS %: 0.00478024   MPKI: 0.00838
L1I LOAD      ACCESS:    8765258  HIT:    8764839  MISS:        419  HIT %:    99.9952  MISS %: 0.00478024   MPKI: 0.00838
L1I PREFETCH  REQUESTED:          0  ISSUED:          0  USEFUL:          0  USELESS:          0
L1I USEFUL LOAD PREFETCHES:          0 PREFETCH ISSUED TO LOWER LEVEL:          0  ACCURACY: -nan
L1I TIMELY PREFETCHES:          0 LATE PREFETCHES: 0 DROPPED PREFETCHES: 0
L1I PREFETCHES SAME FILL-ORIGIN LEVEL: 0 DIFFERENT FILL-ORIGIN LEVEL: 0
L1I AVERAGE MISS LATENCY: 456.506 cycles
L1I RQ	ACCESS:   13233295	FORWARD:          0	MERGED:    4467801	TO_CACHE:    8765494

BTB TOTAL     ACCESS:    3086896  HIT:    3086656  MISS:        240  HIT %:    99.9922  MISS %:  0.0077748   MPKI: 0.0048
BTB BRANCH_DIRECT_JUMP	ACCESS:        167  HIT:        144  MISS:         23
BTB BRANCH_INDIRECT	ACCESS:          0  HIT:          0  MISS:          0
BTB BRANCH_CONDITIONAL	ACCESS:    3086455  HIT:    3086363  MISS:         92
BTB BRANCH_DIRECT_CALL	ACCESS:        137  HIT:         76  MISS:         61
BTB BRANCH_INDIRECT_CALL	ACCESS:          0  HIT:          0  MISS:          0
BTB BRANCH_RETURN	ACCESS:        137  HIT:         73  MISS:         64
BTB BRANCH_OTHER ACCESS:          0  HIT:          0  MISS:          0

L2C TOTAL     ACCESS:    4378373  HIT:    2643408  MISS:    1734965  HIT %:    60.3742  MISS %:    39.6258   MPKI: 34.6993
L2C LOAD      ACCESS:     213436  HIT:     130702  MISS:      82734  HIT %:    61.2371  MISS %:    38.7629   MPKI: 1.65468
L2C DATA LOAD MPKI: 1.6463
L2C INSTRUCTION LOAD MPKI: 0.00838
L2C RFO       ACCESS:     498444  HIT:         18  MISS:     498426  HIT %: 0.00361124  MISS %:    99.9964   MPKI: 9.96852
L2C PREFETCH  ACCESS:    2960075  HIT:    1814900  MISS:    1145175  HIT %:    61.3126  MISS %:    38.6874   MPKI: 22.9035
L2C DATA PREFETCH MPKI: 22.9035
L2C INSTRUCTION PREFETCH MPKI: 0
L2C WRITEBACK ACCESS:     667348  HIT:     667334  MISS:         14  HIT %:    99.9979  MISS %: 0.00209786   MPKI: 0.00028
L2C LOAD TRANSLATION ACCESS:      39068  HIT:      30454  MISS:       8614  HIT %:    77.9513  MISS %:    22.0487   MPKI: 0.17228
L2C TRANSLATION FROM L1D PREFETCHER ACCESS:          2  HIT:          0  MISS:          2  HIT %:          0  MISS %:        100   MPKI: 4e-05
L2C PREFETCH  REQUESTED:    3817287  ISSUED:    3702672  USEFUL:     115347  USELESS:    1030181
L2C USEFUL LOAD PREFETCHES:     115347 PREFETCH ISSUED TO LOWER LEVEL:    1185110  ACCURACY: 9.73302
L2C TIMELY PREFETCHES:     115347 LATE PREFETCHES: 39930 DROPPED PREFETCHES: 0
L2C PREFETCHES SAME FILL-ORIGIN LEVEL: 994693 DIFFERENT FILL-ORIGIN LEVEL: 0
L2C AVERAGE MISS LATENCY: 1741.71 cycles
L2C RQ	ACCESS:     750951	FORWARD:          0	MERGED:          0	TO_CACHE:     750951
L2C WQ	ACCESS:     667348	FORWARD:          0	MERGED:          0	TO_CACHE:     667348
L2C PQ	ACCESS:    4804363	FORWARD:          0	MERGED:     666319	TO_CACHE:    4138044

L2C Instructions Evicting Data 419
L2C Translations Evicting Data 8564
L2C Data Evicting Data 1716921
L2C Instructions Evicting Instructions 0
L2C Translations Evicting Instructions 3
L2C Data Evicting Instructions 416
L2C Instructions Evicting Translations 0
L2C Translations Evicting Translations 49
L2C Data Evicting Translations 8579
L2C Dense regions hint from L2: 0
PSCL5 TOTAL     ACCESS:      38974  HIT:      38974  MISS:          0  HIT %:        100  MISS %:          0   MPKI: 0
PSCL5 LOAD TRANSLATION ACCESS:      38973  HIT:      38973  MISS:          0  HIT %:        100  MISS %:          0   MPKI: 0
PSCL5 TRANSLATION FROM L1D PREFETCHER ACCESS:          1  HIT:          1  MISS:          0  HIT %:        100  MISS %:          0   MPKI: 0
PSCL5 PREFETCH  REQUESTED:          0  ISSUED:          0  USEFUL:          0  USELESS:          0
PSCL5 USEFUL LOAD PREFETCHES:          0 PREFETCH ISSUED TO LOWER LEVEL:          0  ACCURACY: -nan
PSCL5 TIMELY PREFETCHES:          0 LATE PREFETCHES: 0 DROPPED PREFETCHES: 0
PSCL5 PREFETCHES SAME FILL-ORIGIN LEVEL: 0 DIFFERENT FILL-ORIGIN LEVEL: 0

PSCL4 TOTAL     ACCESS:      38974  HIT:      38974  MISS:          0  HIT %:        100  MISS %:          0   MPKI: 0
PSCL4 LOAD TRANSLATION ACCESS:      38973  HIT:      38973  MISS:          0  HIT %:        100  MISS %:          0   MPKI: 0
PSCL4 TRANSLATION FROM L1D PREFETCHER ACCESS:          1  HIT:          1  MISS:          0  HIT %:        100  MISS %:          0   MPKI: 0
PSCL4 PREFETCH  REQUESTED:          0  ISSUED:          0  USEFUL:          0  USELESS:          0
PSCL4 USEFUL LOAD PREFETCHES:          0 PREFETCH ISSUED TO LOWER LEVEL:          0  ACCURACY: -nan
PSCL4 TIMELY PREFETCHES:          0 LATE PREFETCHES: 0 DROPPED PREFETCHES: 0
PSCL4 PREFETCHES SAME FILL-ORIGIN LEVEL: 0 DIFFERENT FILL-ORIGIN LEVEL: 0

PSCL3 TOTAL     ACCESS:      38974  HIT:      38973  MISS:          1  HIT %:    99.9974  MISS %: 0.00256581   MPKI: 2e-05
PSCL3 LOAD TRANSLATION ACCESS:      38973  HIT:      38972  MISS:          1  HIT %:    99.9974  MISS %: 0.00256588   MPKI: 2e-05
PSCL3 TRANSLATION FROM L1D PREFETCHER ACCESS:          1  HIT:          1  MISS:          0  HIT %:        100  MISS %:          0   MPKI: 0
PSCL3 PREFETCH  REQUESTED:          0  ISSUED:          0  USEFUL:          0  USELESS:          0
PSCL3 USEFUL LOAD PREFETCHES:          0 PREFETCH ISSUED TO LOWER LEVEL:          0  ACCURACY: -nan
PSCL3 TIMELY PREFETCHES:          0 LATE PREFETCHES: 0 DROPPED PREFETCHES: 0
PSCL3 PREFETCHES SAME FILL-ORIGIN LEVEL: 0 DIFFERENT FILL-ORIGIN LEVEL: 0

PSCL2 TOTAL     ACCESS:      38974  HIT:      38782  MISS:        192  HIT %:    99.5074  MISS %:   0.492636   MPKI: 0.00384
PSCL2 LOAD TRANSLATION ACCESS:      38974  HIT:      38782  MISS:        192  HIT %:    99.5074  MISS %:   0.492636   MPKI: 0.00384
PSCL2 PREFETCH  REQUESTED:          0  ISSUED:          0  USEFUL:          0  USELESS:          0
PSCL2 USEFUL LOAD PREFETCHES:          0 PREFETCH ISSUED TO LOWER LEVEL:          0  ACCURACY: -nan
PSCL2 TIMELY PREFETCHES:          0 LATE PREFETCHES: 0 DROPPED PREFETCHES: 0
PSCL2 PREFETCHES SAME FILL-ORIGIN LEVEL: 0 DIFFERENT FILL-ORIGIN LEVEL: 0

LLC TOTAL     ACCESS:    2400381  HIT:     666699  MISS:    1733682  HIT %:    27.7747  MISS %:    72.2253   MPKI: 34.6736
LLC LOAD      ACCESS:      42804  HIT:        202  MISS:      42602  HIT %:   0.471919  MISS %:    99.5281   MPKI: 0.85204
LLC RFO       ACCESS:     498426  HIT:          9  MISS:     498417  HIT %: 0.00180568  MISS %:    99.9982   MPKI: 9.96834
LLC PREFETCH  ACCESS:    1185106  HIT:       1043  MISS:    1184063  HIT %:   0.088009  MISS %:     99.912   MPKI: 23.6813
LLC WRITEBACK ACCESS:     665429  HIT:     665408  MISS:         21  HIT %:    99.9968  MISS %: 0.00315586   MPKI: 0.00042
LLC LOAD TRANSLATION ACCESS:       8614  HIT:         37  MISS:       8577  HIT %:   0.429533  MISS %:    99.5705   MPKI: 0.17154
LLC TRANSLATION FROM L1D PREFETCHER ACCESS:          2  HIT:          0  MISS:          2  HIT %:          0  MISS %:        100   MPKI: 4e-05
LLC PREFETCH  REQUESTED:          0  ISSUED:          0  USEFUL:          0  USELESS:    1185678
LLC USEFUL LOAD PREFETCHES:          0 PREFETCH ISSUED TO LOWER LEVEL:    1184067  ACCURACY: 0
LLC TIMELY PREFETCHES:          0 LATE PREFETCHES: 0 DROPPED PREFETCHES: 0
LLC PREFETCHES SAME FILL-ORIGIN LEVEL: 0 DIFFERENT FILL-ORIGIN LEVEL: 0
LLC AVERAGE MISS LATENCY: 1736.17 cycles
LLC RQ	ACCESS:     549847	FORWARD:          0	MERGED:          0	TO_CACHE:     549847
LLC WQ	ACCESS:     665429	FORWARD:          0	MERGED:          0	TO_CACHE:     665429
LLC PQ	ACCESS:    1185110	FORWARD:          0	MERGED:          0	TO_CACHE:    1185110

LLC Dense regions hint to LLC: 0

RAW hits: 1829
Loads Generated: 17795006
Loads sent to L1D: 17793173
Stores Generated: 5193403
Stores sent to L1D: 5193404
Major fault: 0 Minor fault: 31870
Allocated PAGES: 31870

stream: 
stream:times selected: 2219744
stream:pref_filled: 1355414
stream:pref_useful: 1137938
stream:pref_late: 190882
stream:misses: 734
stream:misses_by_poll: 0

CS: 
CS:times selected: 2130755
CS:pref_filled: 1742
CS:pref_useful: 1506
CS:pref_late: 93
CS:misses: 1081287
CS:misses_by_poll: 16

CPLX: 
CPLX:times selected: 88872
CPLX:pref_filled: 350
CPLX:pref_useful: 77
CPLX:pref_late: 36
CPLX:misses: 29494
CPLX:misses_by_poll: 0

NL_L1: 
NL:times selected: 92
NL:pref_filled: 3
NL:pref_useful: 3
NL:pref_late: 0
NL:misses: 28
NL:misses_by_poll: 0

total selections: 4439463
total_filled: 1069029
total_useful: 865267
total_late: 191013
total_polluted: 16
total_misses_after_warmup: 1111611
conflicts: 1100
Degree Incremented Times: 76141
Degree Decremented Times: 68160

L1 IP Table Write Accesses: 9610889
L1 IP Table Read Accesses: 9609789
L1 RST Write Accesses: 1811920
L1 RST Read Accesses: 3623840
L1 CSPT Write Accesses: 1811920
L1 CSPT Read Accesses: 1960193
L1 RR Filter Tag Write Accesses: 4500599
L1 RR Filter Tag Read Accesses: 395807562
L1 IP Table Tag Write Accesses: 9624683
L1 IP Table Tag Read Accesses: 9624683
L1 RST Tag Write Accesses: 0
L1 RST Tag Read Accesses: 16345004
L1 RR Filter Write Accesses: 0
L1 RR Filter Read Accesses: 15392798
test: 48999
L2 IP Table Read Accesses: 1360870
L2 IP Table Write Accesses: 1150091
L2 IP Table Tag Read Accesses: 681244
L2 IP Table Tag Write Accesses: 681244

DRAM Statistics
 CHANNEL 0
 RQ ROW_BUFFER_HIT:     653288  ROW_BUFFER_MISS:    1080372
 DBUS_CONGESTED:    2296389
 WQ ROW_BUFFER_HIT:      66334  ROW_BUFFER_MISS:     597637  FULL:          0

 AVG_CONGESTED_CYCLE: 54
 All warmup complete: 2
Channel 0 Bank busy for read cycles: 0
Channel 0 Bank busy for write cycles: 0
Channel 0
Rank 0
0banks busy for read cycles: 1692306
0banks busy for write cycles: 2564
1banks busy for read cycles: 2105304
1banks busy for write cycles: 432115
2banks busy for read cycles: 2359935
2banks busy for write cycles: 154696
3banks busy for read cycles: 1795407
3banks busy for write cycles: 117103
4banks busy for read cycles: 2224320
4banks busy for write cycles: 118341
5banks busy for read cycles: 3076007
5banks busy for write cycles: 127908
6banks busy for read cycles: 4894153
6banks busy for write cycles: 155849
7banks busy for read cycles: 12165279
7banks busy for write cycles: 1027589
8banks busy for read cycles: 78349577
8banks busy for write cycles: 42463743

CPU 0 Branch Prediction Accuracy: 99.7911% MPKI: 0.12922 Average ROB Occupancy at Mispredict: 166.344
Branch types
NOT_BRANCH: 46907122 93.8142%
BRANCH_DIRECT_JUMP: 167 0.000334%
BRANCH_INDIRECT: 0 0%
BRANCH_CONDITIONAL: 3092362 6.18472%
BRANCH_DIRECT_CALL: 137 0.000274%
BRANCH_INDIRECT_CALL: 0 0%
BRANCH_RETURN: 137 0.000274%
BRANCH_OTHER: 0 0%

@sumon_overall_L1D    865267    793204    203753   1069029   5338668   7147714
@Sumon_Early_by_class_L1D    863919      1260        77         0
@Sumon_Late_by_class_L1D    190790        93        36         0

@Sumon_Early_by_cycle_L1D     56132     57046    100659     77066     61084    187321    237645     64657     12829     10500       328         0
@Sumon_Late_by_cycle_L1D     44360     28925     26211     20574     17638     42899      9504       805         5         0         0         0
@Sumon_Early_stream_L1D     56005     56903    100521     76997     61008    186947    237514     64389     12814     10493       328         0
@Sumon_Early_CS_L1D       117       132       127        64        69       367       123       239        15         7         0         0
@Sumon_Early_CPLX_L1D        10        10         9         4         7         3         5        29         0         0         0         0
@Sumon_Late_stream_L1D     44323     28914     26194     20563     17622     42868      9497       804         5         0         0         0
@Sumon_Late_CS_L1D        32         7        10         8        13        19         3         1         0         0         0         0
@Sumon_Late_CPLX_L1D         5         4         7         3         2        11         4         0         0         0         0         0
@sumon_overall_L2C    115347     39930   1030181   1145177   3702672   3817287
@Sumon_Early_by_class_L2C    115098       184         0         0
@Sumon_Late_by_class_L2C     39792        53         0         0

@Sumon_Early_by_cycle_L2C      2047      4973      5443      3234      2792     14214     17986     40289     12009      2099      2181      8080
@Sumon_Late_by_cycle_L2C      3861      3670      5229      3408      5449     16312      1992         9         0         0         0         0
@Sumon_Early_stream_L2C      2035      4965      5424      3226      2780     14133     17911     40277     12009      2095      2176      8067
@Sumon_Early_CS_L2C         7         6        14         8         9        66        64         8         0         1         0         1
@Sumon_Early_CPLX_L2C         0         0         0         0         0         0         0         0         0         0         0         0
@Sumon_Late_stream_L2C      3788      3657      5215      3404      5443     16292      1984         9         0         0         0         0
@Sumon_Late_CS_L2C         3         6         9         4         4        19         8         0         0         0         0         0
@Sumon_Late_CPLX_L2C         0         0         0         0         0         0         0         0         0         0         0         0
DRAM PAGES: 1048576
Allocated PAGES: 31870
