
*** ChampSim Multicore Out-of-Order Simulator ***

Warmup Instructions: 10000000
Simulation Instructions: 50000000
Number of CPUs: 1
LLC sets: 2048
LLC ways: 16
Off-chip DRAM Size: 4096 MB Channels: 1 Width: 64-bit Data Rate: 200 MT/s
CPU 0 runs traces/SPEC2017/605.mcf_s-1152B.champsimtrace.xz
.xz
CPU 0 Bimodal branch predictor
BTB has LRU replacement policy
ITLB has LRU replacement policy
DTLB has LRU replacement policy
STLB has LRU replacement policy
L1I has LRU replacement policy
IP Table Entries: 256
L1D has LRU replacement policy
IP_Table L2 entries: 256
L2C has LRU replacement policy
LLC has LRU replacement policy
Heartbeat CPU 0 instructions: 10000001 cycles: 3346592 heartbeat IPC: 2.98811 cumulative IPC: 2.98811 (Simulation time: 0 hr 27 min 37 sec) 

Warmup complete CPU 0 instructions: 10000001 cycles: 3346592 (Simulation time: 0 hr 27 min 37 sec) 

Heartbeat CPU 0 instructions: 20000003 cycles: 72407489 heartbeat IPC: 0.1448 cumulative IPC: 0.1448 (Simulation time: 1 hr 0 min 19 sec) 
Heartbeat CPU 0 instructions: 30000000 cycles: 140713673 heartbeat IPC: 0.1464 cumulative IPC: 0.145595 (Simulation time: 1 hr 32 min 45 sec) 
Heartbeat CPU 0 instructions: 40000003 cycles: 209141196 heartbeat IPC: 0.14614 cumulative IPC: 0.145776 (Simulation time: 2 hr 1 min 54 sec) 
Heartbeat CPU 0 instructions: 50000001 cycles: 278470201 heartbeat IPC: 0.14424 cumulative IPC: 0.145389 (Simulation time: 2 hr 22 min 16 sec) 
Heartbeat CPU 0 instructions: 60000001 cycles: 347496663 heartbeat IPC: 0.144872 cumulative IPC: 0.145285 (Simulation time: 2 hr 36 min 20 sec) 
Finished CPU 0 instructions: 50000000 cycles: 344150071 cumulative IPC: 0.145285 (Simulation time: 2 hr 36 min 20 sec) 

ChampSim completed all CPUs

Region of Interest Statistics

CPU 0 cumulative IPC: 0.145285 instructions: 50000000 cycles: 344150071
ITLB TOTAL     ACCESS:    8904558  HIT:    8904558  MISS:          0  HIT %:        100  MISS %:          0   MPKI: 0
ITLB LOAD TRANSLATION ACCESS:    8904558  HIT:    8904558  MISS:          0  HIT %:        100  MISS %:          0   MPKI: 0
ITLB PREFETCH  REQUESTED:          0  ISSUED:          0  USEFUL:          0  USELESS:          0
ITLB USEFUL LOAD PREFETCHES:          0 PREFETCH ISSUED TO LOWER LEVEL:          0  ACCURACY: -nan
ITLB TIMELY PREFETCHES:          0 LATE PREFETCHES: 0 DROPPED PREFETCHES: 0
ITLB PREFETCHES SAME FILL-ORIGIN LEVEL: 0 DIFFERENT FILL-ORIGIN LEVEL: 0
ITLB AVERAGE MISS LATENCY: -nan cycles
ITLB RQ	ACCESS:    9322047	FORWARD:          0	MERGED:     417489	TO_CACHE:    8904558

DTLB TOTAL     ACCESS:   14845288  HIT:   13550499  MISS:    1294789  HIT %:    91.2781  MISS %:    8.72189   MPKI: 25.8958
DTLB LOAD TRANSLATION ACCESS:   14845288  HIT:   13550499  MISS:    1294789  HIT %:    91.2781  MISS %:    8.72189   MPKI: 25.8958
DTLB PREFETCH  REQUESTED:          0  ISSUED:          0  USEFUL:          0  USELESS:          0
DTLB USEFUL LOAD PREFETCHES:          0 PREFETCH ISSUED TO LOWER LEVEL:          0  ACCURACY: -nan
DTLB TIMELY PREFETCHES:          0 LATE PREFETCHES: 0 DROPPED PREFETCHES: 0
DTLB PREFETCHES SAME FILL-ORIGIN LEVEL: 0 DIFFERENT FILL-ORIGIN LEVEL: 0
DTLB AVERAGE MISS LATENCY: 12.6328 cycles
DTLB RQ	ACCESS:   18148156	FORWARD:          0	MERGED:    3199063	TO_CACHE:   14949093

STLB TOTAL     ACCESS:    5026574  HIT:    5010100  MISS:      16474  HIT %:    99.6723  MISS %:   0.327738   MPKI: 0.32948
STLB LOAD TRANSLATION ACCESS:    1294789  HIT:    1278315  MISS:      16474  HIT %:    98.7277  MISS %:    1.27233   MPKI: 0.32948
STLB TRANSLATION FROM L1D PREFETCHER ACCESS:    3731785  HIT:    3731785  MISS:          0  HIT %:        100  MISS %:          0   MPKI: 0
STLB PREFETCH  REQUESTED:          0  ISSUED:          0  USEFUL:          0  USELESS:          0
STLB USEFUL LOAD PREFETCHES:          0 PREFETCH ISSUED TO LOWER LEVEL:          0  ACCURACY: -nan
STLB TIMELY PREFETCHES:          0 LATE PREFETCHES: 0 DROPPED PREFETCHES: 0
STLB PREFETCHES SAME FILL-ORIGIN LEVEL: 0 DIFFERENT FILL-ORIGIN LEVEL: 0
STLB AVERAGE MISS LATENCY: 267.122 cycles
STLB RQ	ACCESS:    5692209	FORWARD:          0	MERGED:     665634	TO_CACHE:    5026575

STLB Hit, L1D data hit: 0
STLB Hit, L2C data hit: 0
STLB Hit, LLC data hit: 0
STLB Hit, LLC data miss: 0
STLB STLB hints to L2: 0
L1D TOTAL     ACCESS:   21794207  HIT:   17221613  MISS:    4572594  HIT %:    79.0192  MISS %:    20.9808   MPKI: 91.4519
L1D LOAD      ACCESS:   12630328  HIT:   10818746  MISS:    1811582  HIT %:    85.6569  MISS %:    14.3431   MPKI: 36.2316
L1D RFO       ACCESS:    4863494  HIT:    4685948  MISS:     177546  HIT %:    96.3494  MISS %:    3.65059   MPKI: 3.55092
L1D PREFETCH  ACCESS:    4300385  HIT:    1716919  MISS:    2583466  HIT %:    39.9248  MISS %:    60.0752   MPKI: 51.6693
L1D PREFETCH  REQUESTED:    8805894  ISSUED:    8798987  USEFUL:     510497  USELESS:    2072982
L1D USEFUL LOAD PREFETCHES:     510497 PREFETCH ISSUED TO LOWER LEVEL:    2583681  ACCURACY: 19.7585
L1D TIMELY PREFETCHES:     510497 LATE PREFETCHES: 346601 DROPPED PREFETCHES: 0
L1D PREFETCHES SAME FILL-ORIGIN LEVEL: 2583681 DIFFERENT FILL-ORIGIN LEVEL: 0
L1D AVERAGE MISS LATENCY: 8629.63 cycles
L1D RQ	ACCESS:   17083554	FORWARD:          0	MERGED:    3607253	TO_CACHE:   12986437
L1D WQ	ACCESS:    5189939	FORWARD:     494003	MERGED:      28220	TO_CACHE:    5161719
L1D PQ	ACCESS:    4401567	FORWARD:          0	MERGED:          8	TO_CACHE:    4397420

L1D UNIQUE REGIONS ACCESSED: 0
L1D REGIONS CONFLICTS: 0
L1D Cross Page Prefetch Requests: 0
L1D Same Page Prefetch Requests: 5257476
L1D ROI Sum of L1D PQ occupancy: 122749628
L1D PREFETCHES PUSHED FROM L2C: 0
L1I TOTAL     ACCESS:    9322047  HIT:    9322047  MISS:          0  HIT %:        100  MISS %:          0   MPKI: 0
L1I LOAD      ACCESS:    9322047  HIT:    9322047  MISS:          0  HIT %:        100  MISS %:          0   MPKI: 0
L1I PREFETCH  REQUESTED:          0  ISSUED:          0  USEFUL:          0  USELESS:          0
L1I USEFUL LOAD PREFETCHES:          0 PREFETCH ISSUED TO LOWER LEVEL:          0  ACCURACY: -nan
L1I TIMELY PREFETCHES:          0 LATE PREFETCHES: 0 DROPPED PREFETCHES: 0
L1I PREFETCHES SAME FILL-ORIGIN LEVEL: 0 DIFFERENT FILL-ORIGIN LEVEL: 0
L1I AVERAGE MISS LATENCY: -nan cycles
L1I RQ	ACCESS:   14450574	FORWARD:          0	MERGED:    5128527	TO_CACHE:    9322047

BTB TOTAL     ACCESS:   11600278  HIT:   11097954  MISS:     502324  HIT %:    95.6697  MISS %:    4.33028   MPKI: 10.0465
BTB BRANCH_DIRECT_JUMP	ACCESS:    1321999  HIT:    1321963  MISS:         36
BTB BRANCH_INDIRECT	ACCESS:          0  HIT:          0  MISS:          0
BTB BRANCH_CONDITIONAL	ACCESS:    7949724  HIT:    7949650  MISS:         74
BTB BRANCH_DIRECT_CALL	ACCESS:    1094376  HIT:    1094358  MISS:         18
BTB BRANCH_INDIRECT_CALL	ACCESS:      69902  HIT:      69894  MISS:          8
BTB BRANCH_RETURN	ACCESS:    1164277  HIT:     662089  MISS:     502188
BTB BRANCH_OTHER ACCESS:          0  HIT:          0  MISS:          0

L2C TOTAL     ACCESS:    4928134  HIT:    1445128  MISS:    3483006  HIT %:     29.324  MISS %:     70.676   MPKI: 69.6601
L2C LOAD      ACCESS:    1811573  HIT:     478745  MISS:    1332828  HIT %:     26.427  MISS %:     73.573   MPKI: 26.6566
L2C DATA LOAD MPKI: 26.6566
L2C INSTRUCTION LOAD MPKI: 0
L2C RFO       ACCESS:     177331  HIT:      78715  MISS:      98616  HIT %:    44.3887  MISS %:    55.6113   MPKI: 1.97232
L2C PREFETCH  ACCESS:    2652686  HIT:     607611  MISS:    2045075  HIT %:    22.9055  MISS %:    77.0945   MPKI: 40.9015
L2C DATA PREFETCH MPKI: 40.9015
L2C INSTRUCTION PREFETCH MPKI: 0
L2C WRITEBACK ACCESS:     270021  HIT:     269710  MISS:        311  HIT %:    99.8848  MISS %:   0.115176   MPKI: 0.00622
L2C LOAD TRANSLATION ACCESS:      16523  HIT:      10347  MISS:       6176  HIT %:    62.6218  MISS %:    37.3782   MPKI: 0.12352
L2C PREFETCH  REQUESTED:     193686  ISSUED:     193686  USEFUL:      99624  USELESS:    1945167
L2C USEFUL LOAD PREFETCHES:      99624 PREFETCH ISSUED TO LOWER LEVEL:    2047639  ACCURACY: 4.86531
L2C TIMELY PREFETCHES:      99624 LATE PREFETCHES: 2564 DROPPED PREFETCHES: 0
L2C PREFETCHES SAME FILL-ORIGIN LEVEL: 84286 DIFFERENT FILL-ORIGIN LEVEL: 0
L2C AVERAGE MISS LATENCY: 433.688 cycles
L2C RQ	ACCESS:    2005436	FORWARD:          0	MERGED:          0	TO_CACHE:    2005427
L2C WQ	ACCESS:     270021	FORWARD:         13	MERGED:          0	TO_CACHE:     270021
L2C PQ	ACCESS:    2777367	FORWARD:          0	MERGED:      50349	TO_CACHE:    2727014

L2C Instructions Evicting Data 0
L2C Translations Evicting Data 6157
L2C Data Evicting Data 3470364
L2C Instructions Evicting Instructions 0
L2C Translations Evicting Instructions 0
L2C Data Evicting Instructions 0
L2C Instructions Evicting Translations 0
L2C Translations Evicting Translations 19
L2C Data Evicting Translations 6155
L2C Dense regions hint from L2: 0
PSCL5 TOTAL     ACCESS:      16474  HIT:      16474  MISS:          0  HIT %:        100  MISS %:          0   MPKI: 0
PSCL5 LOAD TRANSLATION ACCESS:      16474  HIT:      16474  MISS:          0  HIT %:        100  MISS %:          0   MPKI: 0
PSCL5 PREFETCH  REQUESTED:          0  ISSUED:          0  USEFUL:          0  USELESS:          0
PSCL5 USEFUL LOAD PREFETCHES:          0 PREFETCH ISSUED TO LOWER LEVEL:          0  ACCURACY: -nan
PSCL5 TIMELY PREFETCHES:          0 LATE PREFETCHES: 0 DROPPED PREFETCHES: 0
PSCL5 PREFETCHES SAME FILL-ORIGIN LEVEL: 0 DIFFERENT FILL-ORIGIN LEVEL: 0

PSCL4 TOTAL     ACCESS:      16474  HIT:      16474  MISS:          0  HIT %:        100  MISS %:          0   MPKI: 0
PSCL4 LOAD TRANSLATION ACCESS:      16474  HIT:      16474  MISS:          0  HIT %:        100  MISS %:          0   MPKI: 0
PSCL4 PREFETCH  REQUESTED:          0  ISSUED:          0  USEFUL:          0  USELESS:          0
PSCL4 USEFUL LOAD PREFETCHES:          0 PREFETCH ISSUED TO LOWER LEVEL:          0  ACCURACY: -nan
PSCL4 TIMELY PREFETCHES:          0 LATE PREFETCHES: 0 DROPPED PREFETCHES: 0
PSCL4 PREFETCHES SAME FILL-ORIGIN LEVEL: 0 DIFFERENT FILL-ORIGIN LEVEL: 0

PSCL3 TOTAL     ACCESS:      16474  HIT:      16474  MISS:          0  HIT %:        100  MISS %:          0   MPKI: 0
PSCL3 LOAD TRANSLATION ACCESS:      16474  HIT:      16474  MISS:          0  HIT %:        100  MISS %:          0   MPKI: 0
PSCL3 PREFETCH  REQUESTED:          0  ISSUED:          0  USEFUL:          0  USELESS:          0
PSCL3 USEFUL LOAD PREFETCHES:          0 PREFETCH ISSUED TO LOWER LEVEL:          0  ACCURACY: -nan
PSCL3 TIMELY PREFETCHES:          0 LATE PREFETCHES: 0 DROPPED PREFETCHES: 0
PSCL3 PREFETCHES SAME FILL-ORIGIN LEVEL: 0 DIFFERENT FILL-ORIGIN LEVEL: 0

PSCL2 TOTAL     ACCESS:      16474  HIT:      16318  MISS:        156  HIT %:    99.0531  MISS %:   0.946947   MPKI: 0.00312
PSCL2 LOAD TRANSLATION ACCESS:      16474  HIT:      16318  MISS:        156  HIT %:    99.0531  MISS %:   0.946947   MPKI: 0.00312
PSCL2 PREFETCH  REQUESTED:          0  ISSUED:          0  USEFUL:          0  USELESS:          0
PSCL2 USEFUL LOAD PREFETCHES:          0 PREFETCH ISSUED TO LOWER LEVEL:          0  ACCURACY: -nan
PSCL2 TIMELY PREFETCHES:          0 LATE PREFETCHES: 0 DROPPED PREFETCHES: 0
PSCL2 PREFETCHES SAME FILL-ORIGIN LEVEL: 0 DIFFERENT FILL-ORIGIN LEVEL: 0

LLC TOTAL     ACCESS:    3668861  HIT:    2291521  MISS:    1377340  HIT %:    62.4586  MISS %:    37.5414   MPKI: 27.5468
LLC LOAD      ACCESS:    1330262  HIT:     986893  MISS:     343369  HIT %:    74.1879  MISS %:    25.8121   MPKI: 6.86738
LLC RFO       ACCESS:      98616  HIT:      97570  MISS:       1046  HIT %:    98.9393  MISS %:    1.06068   MPKI: 0.02092
LLC PREFETCH  ACCESS:    2047638  HIT:    1018122  MISS:    1029516  HIT %:    49.7218  MISS %:    50.2782   MPKI: 20.5903
LLC WRITEBACK ACCESS:     186169  HIT:     185915  MISS:        254  HIT %:    99.8636  MISS %:   0.136435   MPKI: 0.00508
LLC LOAD TRANSLATION ACCESS:       6176  HIT:       3021  MISS:       3155  HIT %:    48.9152  MISS %:    51.0848   MPKI: 0.0631
LLC PREFETCH  REQUESTED:          0  ISSUED:          0  USEFUL:      85431  USELESS:     943901
LLC USEFUL LOAD PREFETCHES:      85431 PREFETCH ISSUED TO LOWER LEVEL:    1029516  ACCURACY: 8.29817
LLC TIMELY PREFETCHES:      85431 LATE PREFETCHES: 0 DROPPED PREFETCHES: 0
LLC PREFETCHES SAME FILL-ORIGIN LEVEL: 0 DIFFERENT FILL-ORIGIN LEVEL: 0
LLC AVERAGE MISS LATENCY: 1020.95 cycles
LLC RQ	ACCESS:    1435056	FORWARD:          0	MERGED:          0	TO_CACHE:    1435054
LLC WQ	ACCESS:     186169	FORWARD:          3	MERGED:          0	TO_CACHE:     186169
LLC PQ	ACCESS:    2047639	FORWARD:          0	MERGED:          0	TO_CACHE:    2047638

LLC Dense regions hint to LLC: 0

RAW hits: 651979
Loads Generated: 17735533
Loads sent to L1D: 17083554
Stores Generated: 5189909
Stores sent to L1D: 5189939
Major fault: 0 Minor fault: 14980
Allocated PAGES: 14980

stream: 
stream:times selected: 7024058
stream:pref_filled: 1999784
stream:pref_useful: 102884
stream:pref_late: 3552
stream:misses: 479648
stream:misses_by_poll: 0

CS: 
CS:times selected: 1083375
CS:pref_filled: 805557
CS:pref_useful: 502424
CS:pref_late: 315147
CS:misses: 382927
CS:misses_by_poll: 1837

CPLX: 
CPLX:times selected: 5887229
CPLX:pref_filled: 252989
CPLX:pref_useful: 30438
CPLX:pref_late: 2775
CPLX:misses: 1689781
CPLX:misses_by_poll: 771

NL_L1: 
NL:times selected: 45273
NL:pref_filled: 15481
NL:pref_useful: 1025
NL:pref_late: 243
NL:misses: 16201
NL:misses_by_poll: 2

total selections: 14039935
total_filled: 2583466
total_useful: 510497
total_late: 321724
total_polluted: 2610
total_misses_after_warmup: 2167691
conflicts: 83454
Degree Incremented Times: 11812
Degree Decremented Times: 175028

L1 IP Table Write Accesses: 12780100
L1 IP Table Read Accesses: 12696646
L1 RST Write Accesses: 5824965
L1 RST Read Accesses: 11649930
L1 CSPT Write Accesses: 5824965
L1 CSPT Read Accesses: 10726079
L1 RR Filter Tag Write Accesses: 4408474
L1 RR Filter Tag Read Accesses: 243707731
L1 IP Table Tag Write Accesses: 12986437
L1 IP Table Tag Read Accesses: 12986437
L1 RST Tag Write Accesses: 0
L1 RST Tag Read Accesses: 55504242
L1 RR Filter Write Accesses: 0
L1 RR Filter Read Accesses: 8810605
test: 3369534
L2 IP Table Read Accesses: 8667814
L2 IP Table Write Accesses: 6861465
L2 IP Table Tag Read Accesses: 4336764
L2 IP Table Tag Write Accesses: 4336764

DRAM Statistics
 CHANNEL 0
 RQ ROW_BUFFER_HIT:     320391  ROW_BUFFER_MISS:    1056608
 DBUS_CONGESTED:    1318966
 WQ ROW_BUFFER_HIT:       1108  ROW_BUFFER_MISS:       6783  FULL:          0

 AVG_CONGESTED_CYCLE: 149
 All warmup complete: 2
Channel 0 Bank busy for read cycles: 0
Channel 0 Bank busy for write cycles: 0
Channel 0
Rank 0
0banks busy for read cycles: 123395258
0banks busy for write cycles: 4243
1banks busy for read cycles: 26471373
1banks busy for write cycles: 2030991
2banks busy for read cycles: 32267145
2banks busy for write cycles: 776785
3banks busy for read cycles: 32507130
3banks busy for write cycles: 355649
4banks busy for read cycles: 30318193
4banks busy for write cycles: 175525
5banks busy for read cycles: 27072024
5banks busy for write cycles: 124497
6banks busy for read cycles: 24620749
6banks busy for write cycles: 89207
7banks busy for read cycles: 22891827
7banks busy for write cycles: 51695
8banks busy for read cycles: 20837681
8banks busy for write cycles: 160100

CPU 0 Branch Prediction Accuracy: 90.105% MPKI: 24.6801 Average ROB Occupancy at Mispredict: 14.9744
Branch types
NOT_BRANCH: 37528554 75.0571%
BRANCH_DIRECT_JUMP: 1321999 2.644%
BRANCH_INDIRECT: 0 0%
BRANCH_CONDITIONAL: 8820511 17.641%
BRANCH_DIRECT_CALL: 1094376 2.18875%
BRANCH_INDIRECT_CALL: 69902 0.139804%
BRANCH_RETURN: 1164277 2.32855%
BRANCH_OTHER: 0 0%

@sumon_overall_L1D    510497    346601   2072982   2583466   8798987   8805894
@Sumon_Early_by_class_L1D     86377    395602     27658       239
@Sumon_Late_by_class_L1D      2942    284659      2720       239

@Sumon_Early_by_cycle_L1D     31204     19524     75796     67167     68606    129258     20598     18114     18482     38629     16039      7080
@Sumon_Late_by_cycle_L1D     33946     47085     61214     44140     32510     67372      4289        11         0         0         0         0
@Sumon_Early_stream_L1D      6466      1600      1927      1489      1106      4726      5095      9259     14632     23049     11105      5923
@Sumon_Early_CS_L1D     24081     17402     72892     64390     65894    114889     13328      7368      1429     10934      2481       514
@Sumon_Early_CPLX_L1D       451       506       942      1265      1594      9500      2127      1410      2317      4521      2409       616
@Sumon_Late_stream_L1D      1365       402       335       227       228       361        24         0         0         0         0         0
@Sumon_Late_CS_L1D     31980     46198     60226     43527     32057     66439      4221        11         0         0         0         0
@Sumon_Late_CPLX_L1D       378       475       648       386       225       564        44         0         0         0         0         0
@sumon_overall_L2C     99624      2564   1945167   2045075    193686    193686
@Sumon_Early_by_class_L2C     58563     32564      7690         0
@Sumon_Late_by_class_L2C         0      2519         0         0

@Sumon_Early_by_cycle_L2C        99       100       432       302       288       674        32        39       178      2787      8275     86418
@Sumon_Late_by_cycle_L2C       258       298       359       246       198      1052       153         0         0         0         0         0
@Sumon_Early_stream_L2C         0         0         0         0         0         0         0        15       139      2395      6481     49533
@Sumon_Early_CS_L2C        57        82       429       300       286       661        21         2         2        76       760     29888
@Sumon_Early_CPLX_L2C         0         0         0         0         0         0         3         3        19       272       937      6456
@Sumon_Late_stream_L2C         0         0         0         0         0         0         0         0         0         0         0         0
@Sumon_Late_CS_L2C       236       275       359       246       198      1052       153         0         0         0         0         0
@Sumon_Late_CPLX_L2C         0         0         0         0         0         0         0         0         0         0         0         0
DRAM PAGES: 1048576
Allocated PAGES: 14980
