
*** ChampSim Multicore Out-of-Order Simulator ***

Warmup Instructions: 10000000
Simulation Instructions: 50000000
Number of CPUs: 1
LLC sets: 2048
LLC ways: 16
Off-chip DRAM Size: 4096 MB Channels: 1 Width: 64-bit Data Rate: 200 MT/s
CPU 0 runs traces/SPEC2017/623.xalancbmk_s-202B.champsimtrace.xz
.xz
CPU 0 Bimodal branch predictor
BTB has LRU replacement policy
ITLB has LRU replacement policy
DTLB has LRU replacement policy
STLB has LRU replacement policy
L1I has LRU replacement policy
IP Table Entries: 256
L1D has LRU replacement policy
IP_Table L2 entries: 256
L2C has LRU replacement policy
LLC has LRU replacement policy
Heartbeat CPU 0 instructions: 10000001 cycles: 2829976 heartbeat IPC: 3.5336 cumulative IPC: 3.5336 (Simulation time: 0 hr 21 min 21 sec) 

Warmup complete CPU 0 instructions: 10000001 cycles: 2829976 (Simulation time: 0 hr 21 min 21 sec) 

Heartbeat CPU 0 instructions: 20000002 cycles: 42557217 heartbeat IPC: 0.251716 cumulative IPC: 0.251716 (Simulation time: 0 hr 48 min 46 sec) 
Heartbeat CPU 0 instructions: 30000000 cycles: 80014900 heartbeat IPC: 0.266968 cumulative IPC: 0.259118 (Simulation time: 1 hr 14 min 51 sec) 
Heartbeat CPU 0 instructions: 40000002 cycles: 119062824 heartbeat IPC: 0.256096 cumulative IPC: 0.258103 (Simulation time: 1 hr 41 min 6 sec) 
Heartbeat CPU 0 instructions: 50000002 cycles: 156573972 heartbeat IPC: 0.266587 cumulative IPC: 0.260173 (Simulation time: 2 hr 3 min 24 sec) 
Heartbeat CPU 0 instructions: 60000002 cycles: 197228058 heartbeat IPC: 0.245978 cumulative IPC: 0.257204 (Simulation time: 2 hr 20 min 25 sec) 
Finished CPU 0 instructions: 50000001 cycles: 194398082 cumulative IPC: 0.257204 (Simulation time: 2 hr 20 min 25 sec) 

ChampSim completed all CPUs

Region of Interest Statistics

CPU 0 cumulative IPC: 0.257204 instructions: 50000001 cycles: 194398082
ITLB TOTAL     ACCESS:    7300091  HIT:    7300091  MISS:          0  HIT %:        100  MISS %:          0   MPKI: 0
ITLB LOAD TRANSLATION ACCESS:    7300091  HIT:    7300091  MISS:          0  HIT %:        100  MISS %:          0   MPKI: 0
ITLB PREFETCH  REQUESTED:          0  ISSUED:          0  USEFUL:          0  USELESS:          0
ITLB USEFUL LOAD PREFETCHES:          0 PREFETCH ISSUED TO LOWER LEVEL:          0  ACCURACY: -nan
ITLB TIMELY PREFETCHES:          0 LATE PREFETCHES: 0 DROPPED PREFETCHES: 0
ITLB PREFETCHES SAME FILL-ORIGIN LEVEL: 0 DIFFERENT FILL-ORIGIN LEVEL: 0
ITLB AVERAGE MISS LATENCY: -nan cycles
ITLB RQ	ACCESS:    8664070	FORWARD:          0	MERGED:    1363979	TO_CACHE:    7300091

DTLB TOTAL     ACCESS:    8323484  HIT:    8301463  MISS:      22021  HIT %:    99.7354  MISS %:   0.264565   MPKI: 0.44042
DTLB LOAD TRANSLATION ACCESS:    8323484  HIT:    8301463  MISS:      22021  HIT %:    99.7354  MISS %:   0.264565   MPKI: 0.44042
DTLB PREFETCH  REQUESTED:          0  ISSUED:          0  USEFUL:          0  USELESS:          0
DTLB USEFUL LOAD PREFETCHES:          0 PREFETCH ISSUED TO LOWER LEVEL:          0  ACCURACY: -nan
DTLB TIMELY PREFETCHES:          0 LATE PREFETCHES: 0 DROPPED PREFETCHES: 0
DTLB PREFETCHES SAME FILL-ORIGIN LEVEL: 0 DIFFERENT FILL-ORIGIN LEVEL: 0
DTLB AVERAGE MISS LATENCY: 13.0646 cycles
DTLB RQ	ACCESS:    9349937	FORWARD:          0	MERGED:    1026287	TO_CACHE:    8323650

STLB TOTAL     ACCESS:     649425  HIT:     649168  MISS:        257  HIT %:    99.9604  MISS %:  0.0395735   MPKI: 0.00514
STLB LOAD TRANSLATION ACCESS:      22021  HIT:      21764  MISS:        257  HIT %:    98.8329  MISS %:    1.16707   MPKI: 0.00514
STLB TRANSLATION FROM L1D PREFETCHER ACCESS:     627404  HIT:     627404  MISS:          0  HIT %:        100  MISS %:          0   MPKI: 0
STLB PREFETCH  REQUESTED:          0  ISSUED:          0  USEFUL:          0  USELESS:          0
STLB USEFUL LOAD PREFETCHES:          0 PREFETCH ISSUED TO LOWER LEVEL:          0  ACCURACY: -nan
STLB TIMELY PREFETCHES:          0 LATE PREFETCHES: 0 DROPPED PREFETCHES: 0
STLB PREFETCHES SAME FILL-ORIGIN LEVEL: 0 DIFFERENT FILL-ORIGIN LEVEL: 0
STLB AVERAGE MISS LATENCY: 348.265 cycles
STLB RQ	ACCESS:    1436596	FORWARD:          0	MERGED:     787171	TO_CACHE:     649425

STLB Hit, L1D data hit: 0
STLB Hit, L2C data hit: 0
STLB Hit, LLC data hit: 0
STLB Hit, LLC data miss: 0
STLB STLB hints to L2: 0
L1D TOTAL     ACCESS:    9690662  HIT:    8328583  MISS:    1362079  HIT %:    85.9444  MISS %:    14.0556   MPKI: 27.2416
L1D LOAD      ACCESS:    7450906  HIT:    7306787  MISS:     144119  HIT %:    98.0658  MISS %:    1.93425   MPKI: 2.88238
L1D RFO       ACCESS:     885861  HIT:     885861  MISS:          0  HIT %:        100  MISS %:          0   MPKI: 0
L1D PREFETCH  ACCESS:    1353895  HIT:     135935  MISS:    1217960  HIT %:    10.0403  MISS %:    89.9597   MPKI: 24.3592
L1D PREFETCH  REQUESTED:    2881089  ISSUED:    2829150  USEFUL:     636573  USELESS:     581086
L1D USEFUL LOAD PREFETCHES:     636573 PREFETCH ISSUED TO LOWER LEVEL:    1217988  ACCURACY: 52.2643
L1D TIMELY PREFETCHES:     636573 LATE PREFETCHES: 1012062 DROPPED PREFETCHES: 0
L1D PREFETCHES SAME FILL-ORIGIN LEVEL: 1217988 DIFFERENT FILL-ORIGIN LEVEL: 0
L1D AVERAGE MISS LATENCY: 1580.88 cycles
L1D RQ	ACCESS:   14945450	FORWARD:          0	MERGED:    6481375	TO_CACHE:    8464074
L1D WQ	ACCESS:     885863	FORWARD:          1	MERGED:          0	TO_CACHE:     885863
L1D PQ	ACCESS:    1414575	FORWARD:          0	MERGED:          0	TO_CACHE:    1414575

L1D UNIQUE REGIONS ACCESSED: 0
L1D REGIONS CONFLICTS: 0
L1D Cross Page Prefetch Requests: 0
L1D Same Page Prefetch Requests: 1721555
L1D ROI Sum of L1D PQ occupancy: 574747174
L1D PREFETCHES PUSHED FROM L2C: 0
L1I TOTAL     ACCESS:    8664070  HIT:    8664070  MISS:          0  HIT %:        100  MISS %:          0   MPKI: 0
L1I LOAD      ACCESS:    8664070  HIT:    8664070  MISS:          0  HIT %:        100  MISS %:          0   MPKI: 0
L1I PREFETCH  REQUESTED:          0  ISSUED:          0  USEFUL:          0  USELESS:          0
L1I USEFUL LOAD PREFETCHES:          0 PREFETCH ISSUED TO LOWER LEVEL:          0  ACCURACY: -nan
L1I TIMELY PREFETCHES:          0 LATE PREFETCHES: 0 DROPPED PREFETCHES: 0
L1I PREFETCHES SAME FILL-ORIGIN LEVEL: 0 DIFFERENT FILL-ORIGIN LEVEL: 0
L1I AVERAGE MISS LATENCY: -nan cycles
L1I RQ	ACCESS:   15861092	FORWARD:          0	MERGED:    7197022	TO_CACHE:    8664070

BTB TOTAL     ACCESS:    8732392  HIT:    8732375  MISS:         17  HIT %:    99.9998  MISS %: 0.000194677   MPKI: 0.00034
BTB BRANCH_DIRECT_JUMP	ACCESS:         40  HIT:         39  MISS:          1
BTB BRANCH_INDIRECT	ACCESS:          0  HIT:          0  MISS:          0
BTB BRANCH_CONDITIONAL	ACCESS:    7846776  HIT:    7846767  MISS:          9
BTB BRANCH_DIRECT_CALL	ACCESS:     221414  HIT:     221412  MISS:          2
BTB BRANCH_INDIRECT_CALL	ACCESS:     221374  HIT:     221373  MISS:          1
BTB BRANCH_RETURN	ACCESS:     442788  HIT:     442784  MISS:          4
BTB BRANCH_OTHER ACCESS:          0  HIT:          0  MISS:          0

L2C TOTAL     ACCESS:    1458484  HIT:     133501  MISS:    1324983  HIT %:    9.15341  MISS %:    90.8466   MPKI: 26.4997
L2C LOAD      ACCESS:     144119  HIT:       7893  MISS:     136226  HIT %:    5.47672  MISS %:    94.5233   MPKI: 2.72452
L2C DATA LOAD MPKI: 2.72452
L2C INSTRUCTION LOAD MPKI: 0
L2C PREFETCH  ACCESS:    1314068  HIT:     125378  MISS:    1188690  HIT %:    9.54121  MISS %:    90.4588   MPKI: 23.7738
L2C DATA PREFETCH MPKI: 23.7738
L2C INSTRUCTION PREFETCH MPKI: 0
L2C WRITEBACK ACCESS:         40  HIT:         40  MISS:          0  HIT %:        100  MISS %:          0   MPKI: 0
L2C LOAD TRANSLATION ACCESS:        257  HIT:        190  MISS:         67  HIT %:      73.93  MISS %:      26.07   MPKI: 0.00134
L2C PREFETCH  REQUESTED:     339405  ISSUED:     339405  USEFUL:       6031  USELESS:    1183034
L2C USEFUL LOAD PREFETCHES:       6031 PREFETCH ISSUED TO LOWER LEVEL:    1197190  ACCURACY: 0.503763
L2C TIMELY PREFETCHES:       6031 LATE PREFETCHES: 8484 DROPPED PREFETCHES: 0
L2C PREFETCHES SAME FILL-ORIGIN LEVEL: 157626 DIFFERENT FILL-ORIGIN LEVEL: 0
L2C AVERAGE MISS LATENCY: 1780.46 cycles
L2C RQ	ACCESS:     144376	FORWARD:          0	MERGED:          0	TO_CACHE:     144376
L2C WQ	ACCESS:         40	FORWARD:          0	MERGED:          0	TO_CACHE:         40
L2C PQ	ACCESS:    1557381	FORWARD:          0	MERGED:     102161	TO_CACHE:    1455220

L2C Instructions Evicting Data 0
L2C Translations Evicting Data 67
L2C Data Evicting Data 1324849
L2C Instructions Evicting Instructions 0
L2C Translations Evicting Instructions 0
L2C Data Evicting Instructions 0
L2C Instructions Evicting Translations 0
L2C Translations Evicting Translations 0
L2C Data Evicting Translations 67
L2C Dense regions hint from L2: 0
PSCL5 TOTAL     ACCESS:        257  HIT:        257  MISS:          0  HIT %:        100  MISS %:          0   MPKI: 0
PSCL5 LOAD TRANSLATION ACCESS:        257  HIT:        257  MISS:          0  HIT %:        100  MISS %:          0   MPKI: 0
PSCL5 PREFETCH  REQUESTED:          0  ISSUED:          0  USEFUL:          0  USELESS:          0
PSCL5 USEFUL LOAD PREFETCHES:          0 PREFETCH ISSUED TO LOWER LEVEL:          0  ACCURACY: -nan
PSCL5 TIMELY PREFETCHES:          0 LATE PREFETCHES: 0 DROPPED PREFETCHES: 0
PSCL5 PREFETCHES SAME FILL-ORIGIN LEVEL: 0 DIFFERENT FILL-ORIGIN LEVEL: 0

PSCL4 TOTAL     ACCESS:        257  HIT:        257  MISS:          0  HIT %:        100  MISS %:          0   MPKI: 0
PSCL4 LOAD TRANSLATION ACCESS:        257  HIT:        257  MISS:          0  HIT %:        100  MISS %:          0   MPKI: 0
PSCL4 PREFETCH  REQUESTED:          0  ISSUED:          0  USEFUL:          0  USELESS:          0
PSCL4 USEFUL LOAD PREFETCHES:          0 PREFETCH ISSUED TO LOWER LEVEL:          0  ACCURACY: -nan
PSCL4 TIMELY PREFETCHES:          0 LATE PREFETCHES: 0 DROPPED PREFETCHES: 0
PSCL4 PREFETCHES SAME FILL-ORIGIN LEVEL: 0 DIFFERENT FILL-ORIGIN LEVEL: 0

PSCL3 TOTAL     ACCESS:        257  HIT:        257  MISS:          0  HIT %:        100  MISS %:          0   MPKI: 0
PSCL3 LOAD TRANSLATION ACCESS:        257  HIT:        257  MISS:          0  HIT %:        100  MISS %:          0   MPKI: 0
PSCL3 PREFETCH  REQUESTED:          0  ISSUED:          0  USEFUL:          0  USELESS:          0
PSCL3 USEFUL LOAD PREFETCHES:          0 PREFETCH ISSUED TO LOWER LEVEL:          0  ACCURACY: -nan
PSCL3 TIMELY PREFETCHES:          0 LATE PREFETCHES: 0 DROPPED PREFETCHES: 0
PSCL3 PREFETCHES SAME FILL-ORIGIN LEVEL: 0 DIFFERENT FILL-ORIGIN LEVEL: 0

PSCL2 TOTAL     ACCESS:        257  HIT:        257  MISS:          0  HIT %:        100  MISS %:          0   MPKI: 0
PSCL2 LOAD TRANSLATION ACCESS:        257  HIT:        257  MISS:          0  HIT %:        100  MISS %:          0   MPKI: 0
PSCL2 PREFETCH  REQUESTED:          0  ISSUED:          0  USEFUL:          0  USELESS:          0
PSCL2 USEFUL LOAD PREFETCHES:          0 PREFETCH ISSUED TO LOWER LEVEL:          0  ACCURACY: -nan
PSCL2 TIMELY PREFETCHES:          0 LATE PREFETCHES: 0 DROPPED PREFETCHES: 0
PSCL2 PREFETCHES SAME FILL-ORIGIN LEVEL: 0 DIFFERENT FILL-ORIGIN LEVEL: 0

LLC TOTAL     ACCESS:    1325017  HIT:     231500  MISS:    1093517  HIT %:    17.4715  MISS %:    82.5285   MPKI: 21.8703
LLC LOAD      ACCESS:     127742  HIT:      12493  MISS:     115249  HIT %:    9.77987  MISS %:    90.2201   MPKI: 2.30498
LLC PREFETCH  ACCESS:    1197174  HIT:     218965  MISS:     978209  HIT %:    18.2902  MISS %:    81.7098   MPKI: 19.5642
LLC WRITEBACK ACCESS:         34  HIT:         34  MISS:          0  HIT %:        100  MISS %:          0   MPKI: 0
LLC LOAD TRANSLATION ACCESS:         67  HIT:          8  MISS:         59  HIT %:    11.9403  MISS %:    88.0597   MPKI: 0.00118
LLC PREFETCH  REQUESTED:          0  ISSUED:          0  USEFUL:        982  USELESS:     979625
LLC USEFUL LOAD PREFETCHES:        982 PREFETCH ISSUED TO LOWER LEVEL:     978225  ACCURACY: 0.100386
LLC TIMELY PREFETCHES:        982 LATE PREFETCHES: 0 DROPPED PREFETCHES: 0
LLC PREFETCHES SAME FILL-ORIGIN LEVEL: 0 DIFFERENT FILL-ORIGIN LEVEL: 0
LLC AVERAGE MISS LATENCY: 2138.73 cycles
LLC RQ	ACCESS:     127809	FORWARD:          0	MERGED:          0	TO_CACHE:     127809
LLC WQ	ACCESS:         34	FORWARD:          0	MERGED:          0	TO_CACHE:         34
LLC PQ	ACCESS:    1197190	FORWARD:          0	MERGED:          0	TO_CACHE:    1197190

LLC Dense regions hint to LLC: 0

RAW hits: 0
Loads Generated: 14945450
Loads sent to L1D: 14945450
Stores Generated: 885863
Stores sent to L1D: 885863
Major fault: 0 Minor fault: 1315
Allocated PAGES: 1315

stream: 
stream:times selected: 2873436
stream:pref_filled: 174947
stream:pref_useful: 28065
stream:pref_late: 39694
stream:misses: 134796
stream:misses_by_poll: 0

CS: 
CS:times selected: 2565722
CS:pref_filled: 1259176
CS:pref_useful: 809762
CS:pref_late: 461545
CS:misses: 1015809
CS:misses_by_poll: 5089

CPLX: 
CPLX:times selected: 307580
CPLX:pref_filled: 40786
CPLX:pref_useful: 33254
CPLX:pref_late: 7148
CPLX:misses: 31531
CPLX:misses_by_poll: 15

NL_L1: 
NL:times selected: 61
NL:pref_filled: 18
NL:pref_useful: 10
NL:pref_late: 4
NL:misses: 10
NL:misses_by_poll: 0

total selections: 5746799
total_filled: 1217960
total_useful: 636573
total_late: 508392
total_polluted: 5104
total_misses_after_warmup: 1157290
conflicts: 158
Degree Incremented Times: 71294
Degree Decremented Times: 40084

L1 IP Table Write Accesses: 8229264
L1 IP Table Read Accesses: 8229106
L1 RST Write Accesses: 2353473
L1 RST Read Accesses: 4706946
L1 CSPT Write Accesses: 2353473
L1 CSPT Read Accesses: 2913927
L1 RR Filter Tag Write Accesses: 1466514
L1 RR Filter Tag Read Accesses: 188162005
L1 IP Table Tag Write Accesses: 8464077
L1 IP Table Tag Read Accesses: 8464077
L1 RST Tag Write Accesses: 0
L1 RST Tag Read Accesses: 21211539
L1 RR Filter Write Accesses: 0
L1 RR Filter Read Accesses: 8075895
test: 287374
L2 IP Table Read Accesses: 2429181
L2 IP Table Write Accesses: 2285083
L2 IP Table Tag Read Accesses: 1214600
L2 IP Table Tag Write Accesses: 1214600

DRAM Statistics
 CHANNEL 0
 RQ ROW_BUFFER_HIT:    1040856  ROW_BUFFER_MISS:      52661
 DBUS_CONGESTED:    1078053
 WQ ROW_BUFFER_HIT:          0  ROW_BUFFER_MISS:         20  FULL:          0

 AVG_CONGESTED_CYCLE: 158
 All warmup complete: 2
Channel 0 Bank busy for read cycles: 0
Channel 0 Bank busy for write cycles: 0
Channel 0
Rank 0
0banks busy for read cycles: 21277917
0banks busy for write cycles: 20
1banks busy for read cycles: 3725320
1banks busy for write cycles: 5086
2banks busy for read cycles: 4045600
2banks busy for write cycles: 0
3banks busy for read cycles: 4755752
3banks busy for write cycles: 0
4banks busy for read cycles: 6612973
4banks busy for write cycles: 0
5banks busy for read cycles: 8473220
5banks busy for write cycles: 0
6banks busy for read cycles: 11642330
6banks busy for write cycles: 0
7banks busy for read cycles: 19181198
7banks busy for write cycles: 0
8banks busy for read cycles: 114678667
8banks busy for write cycles: 0

CPU 0 Branch Prediction Accuracy: 95.2006% MPKI: 13.2833 Average ROB Occupancy at Mispredict: 41.7258
Branch types
NOT_BRANCH: 36161176 72.3224%
BRANCH_DIRECT_JUMP: 40 8e-05%
BRANCH_INDIRECT: 0 0%
BRANCH_CONDITIONAL: 12952872 25.9057%
BRANCH_DIRECT_CALL: 221414 0.442828%
BRANCH_INDIRECT_CALL: 221374 0.442748%
BRANCH_RETURN: 442788 0.885576%
BRANCH_OTHER: 0 0%

@sumon_overall_L1D    636573   1012062    581086   1217960   2829150   2881089
@Sumon_Early_by_class_L1D     21581    593585     21395         4
@Sumon_Late_by_class_L1D     35744    461545      7083         4

@Sumon_Early_by_cycle_L1D     42835     38941     64347     60780     51463    300927     47198      7365      9374     12860       449        34
@Sumon_Late_by_cycle_L1D     30818     46543     59547     57576     57162    218266     34408        56         0         0         0         0
@Sumon_Early_stream_L1D      9007      2986      5148      1357      1556      1073       155       265        19        12         3         0
@Sumon_Early_CS_L1D     32915     35065     56788     56731     48416    290712     44161      6301      9347     12758       384         7
@Sumon_Early_CPLX_L1D       911       888      2405      2691      1491      9141      2882       799         8        90        62        27
@Sumon_Late_stream_L1D      3812      4366      5201      1446      2163     13523      5232         1         0         0         0         0
@Sumon_Late_CS_L1D     26424     41379     53208     55020     54095    202460     28904        55         0         0         0         0
@Sumon_Late_CPLX_L1D       582       795      1137      1110       904      2283       272         0         0         0         0         0
@sumon_overall_L2C      6031      8484   1183034   1188690    339405    339405
@Sumon_Early_by_class_L2C       220      5760        50         0
@Sumon_Late_by_class_L2C         0      8479         0         0

@Sumon_Early_by_cycle_L2C       164       491       519       479       462      2201       654        13         2        16        80       950
@Sumon_Late_by_cycle_L2C       129       366       858       455       719      3956      1999         2         0         0         0         0
@Sumon_Early_stream_L2C         0         0         0         0         0         0         0         0         0         0        17       203
@Sumon_Early_CS_L2C       164       491       519       479       462      2201       654        13         2        16        63       696
@Sumon_Early_CPLX_L2C         0         0         0         0         0         0         0         0         0         0         0        50
@Sumon_Late_stream_L2C         0         0         0         0         0         0         0         0         0         0         0         0
@Sumon_Late_CS_L2C       125       366       857       455       719      3956      1999         2         0         0         0         0
@Sumon_Late_CPLX_L2C         0         0         0         0         0         0         0         0         0         0         0         0
DRAM PAGES: 1048576
Allocated PAGES: 1315
