
*** ChampSim Multicore Out-of-Order Simulator ***

Warmup Instructions: 10000000
Simulation Instructions: 50000000
Number of CPUs: 1
LLC sets: 2048
LLC ways: 16
Off-chip DRAM Size: 4096 MB Channels: 1 Width: 64-bit Data Rate: 200 MT/s
CPU 0 runs traces/SPEC2017/623.xalancbmk_s-165B.champsimtrace.xz
.xz
CPU 0 Bimodal branch predictor
BTB has LRU replacement policy
ITLB has LRU replacement policy
DTLB has LRU replacement policy
STLB has LRU replacement policy
L1I has LRU replacement policy
IP Table Entries: 256
L1D has LRU replacement policy
IP_Table L2 entries: 256
L2C has LRU replacement policy
LLC has LRU replacement policy
Heartbeat CPU 0 instructions: 10000000 cycles: 2852051 heartbeat IPC: 3.50625 cumulative IPC: 3.50625 (Simulation time: 0 hr 20 min 44 sec) 

Warmup complete CPU 0 instructions: 10000002 cycles: 2852053 (Simulation time: 0 hr 20 min 44 sec) 

Heartbeat CPU 0 instructions: 20000001 cycles: 36899966 heartbeat IPC: 0.293704 cumulative IPC: 0.293704 (Simulation time: 0 hr 46 min 21 sec) 
Heartbeat CPU 0 instructions: 30000000 cycles: 71124119 heartbeat IPC: 0.292191 cumulative IPC: 0.292946 (Simulation time: 1 hr 12 min 15 sec) 
Heartbeat CPU 0 instructions: 40000000 cycles: 105706137 heartbeat IPC: 0.289168 cumulative IPC: 0.291675 (Simulation time: 1 hr 38 min 18 sec) 
Heartbeat CPU 0 instructions: 50000001 cycles: 139668621 heartbeat IPC: 0.294443 cumulative IPC: 0.292362 (Simulation time: 2 hr 1 min 3 sec) 
Heartbeat CPU 0 instructions: 60000000 cycles: 173892061 heartbeat IPC: 0.292197 cumulative IPC: 0.292329 (Simulation time: 2 hr 17 min 43 sec) 
Finished CPU 0 instructions: 50000002 cycles: 171040037 cumulative IPC: 0.292329 (Simulation time: 2 hr 17 min 43 sec) 

ChampSim completed all CPUs

Region of Interest Statistics

CPU 0 cumulative IPC: 0.292329 instructions: 50000002 cycles: 171040037
ITLB TOTAL     ACCESS:    7286748  HIT:    7286748  MISS:          0  HIT %:        100  MISS %:          0   MPKI: 0
ITLB LOAD TRANSLATION ACCESS:    7286748  HIT:    7286748  MISS:          0  HIT %:        100  MISS %:          0   MPKI: 0
ITLB PREFETCH  REQUESTED:          0  ISSUED:          0  USEFUL:          0  USELESS:          0
ITLB USEFUL LOAD PREFETCHES:          0 PREFETCH ISSUED TO LOWER LEVEL:          0  ACCURACY: -nan
ITLB TIMELY PREFETCHES:          0 LATE PREFETCHES: 0 DROPPED PREFETCHES: 0
ITLB PREFETCHES SAME FILL-ORIGIN LEVEL: 0 DIFFERENT FILL-ORIGIN LEVEL: 0
ITLB AVERAGE MISS LATENCY: -nan cycles
ITLB RQ	ACCESS:    9258101	FORWARD:          0	MERGED:    1971354	TO_CACHE:    7286747

DTLB TOTAL     ACCESS:    7514957  HIT:    7497044  MISS:      17913  HIT %:    99.7616  MISS %:   0.238365   MPKI: 0.35826
DTLB LOAD TRANSLATION ACCESS:    7514957  HIT:    7497044  MISS:      17913  HIT %:    99.7616  MISS %:   0.238365   MPKI: 0.35826
DTLB PREFETCH  REQUESTED:          0  ISSUED:          0  USEFUL:          0  USELESS:          0
DTLB USEFUL LOAD PREFETCHES:          0 PREFETCH ISSUED TO LOWER LEVEL:          0  ACCURACY: -nan
DTLB TIMELY PREFETCHES:          0 LATE PREFETCHES: 0 DROPPED PREFETCHES: 0
DTLB PREFETCHES SAME FILL-ORIGIN LEVEL: 0 DIFFERENT FILL-ORIGIN LEVEL: 0
DTLB AVERAGE MISS LATENCY: 14.6729 cycles
DTLB RQ	ACCESS:    8127756	FORWARD:          0	MERGED:     612738	TO_CACHE:    7515018

STLB TOTAL     ACCESS:     570740  HIT:     570680  MISS:         60  HIT %:    99.9895  MISS %:  0.0105127   MPKI: 0.0012
STLB LOAD TRANSLATION ACCESS:      17913  HIT:      17853  MISS:         60  HIT %:     99.665  MISS %:   0.334952   MPKI: 0.0012
STLB TRANSLATION FROM L1D PREFETCHER ACCESS:     552827  HIT:     552827  MISS:          0  HIT %:        100  MISS %:          0   MPKI: 0
STLB PREFETCH  REQUESTED:          0  ISSUED:          0  USEFUL:          0  USELESS:          0
STLB USEFUL LOAD PREFETCHES:          0 PREFETCH ISSUED TO LOWER LEVEL:          0  ACCURACY: -nan
STLB TIMELY PREFETCHES:          0 LATE PREFETCHES: 0 DROPPED PREFETCHES: 0
STLB PREFETCHES SAME FILL-ORIGIN LEVEL: 0 DIFFERENT FILL-ORIGIN LEVEL: 0
STLB AVERAGE MISS LATENCY: 1693.5 cycles
STLB RQ	ACCESS:    1588149	FORWARD:          0	MERGED:    1017409	TO_CACHE:     570740

STLB Hit, L1D data hit: 0
STLB Hit, L2C data hit: 0
STLB Hit, LLC data hit: 0
STLB Hit, LLC data miss: 0
STLB STLB hints to L2: 0
L1D TOTAL     ACCESS:    8489330  HIT:    7447982  MISS:    1041348  HIT %:    87.7334  MISS %:    12.2666   MPKI: 20.827
L1D LOAD      ACCESS:    6394434  HIT:    6298187  MISS:      96247  HIT %:    98.4948  MISS %:    1.50517   MPKI: 1.92494
L1D RFO       ACCESS:     655457  HIT:     655342  MISS:        115  HIT %:    99.9825  MISS %:   0.017545   MPKI: 0.0023
L1D PREFETCH  ACCESS:    1439439  HIT:     494453  MISS:     944986  HIT %:    34.3504  MISS %:    65.6496   MPKI: 18.8997
L1D PREFETCH  REQUESTED:    3375930  ISSUED:    3145186  USEFUL:     474153  USELESS:     470588
L1D USEFUL LOAD PREFETCHES:     474153 PREFETCH ISSUED TO LOWER LEVEL:     945077  ACCURACY: 50.1708
L1D TIMELY PREFETCHES:     474153 LATE PREFETCHES: 1070993 DROPPED PREFETCHES: 0
L1D PREFETCHES SAME FILL-ORIGIN LEVEL: 945077 DIFFERENT FILL-ORIGIN LEVEL: 0
L1D AVERAGE MISS LATENCY: 3036.47 cycles
L1D RQ	ACCESS:   14751939	FORWARD:          0	MERGED:    7280259	TO_CACHE:    7471673
L1D WQ	ACCESS:     656260	FORWARD:         10	MERGED:        177	TO_CACHE:     656083
L1D PQ	ACCESS:    1574950	FORWARD:          0	MERGED:       4711	TO_CACHE:    1570236

L1D UNIQUE REGIONS ACCESSED: 0
L1D REGIONS CONFLICTS: 0
L1D Cross Page Prefetch Requests: 0
L1D Same Page Prefetch Requests: 1975581
L1D ROI Sum of L1D PQ occupancy: 589974799
L1D PREFETCHES PUSHED FROM L2C: 0
L1I TOTAL     ACCESS:    9258101  HIT:    9258101  MISS:          0  HIT %:        100  MISS %:          0   MPKI: 0
L1I LOAD      ACCESS:    9258101  HIT:    9258101  MISS:          0  HIT %:        100  MISS %:          0   MPKI: 0
L1I PREFETCH  REQUESTED:          0  ISSUED:          0  USEFUL:          0  USELESS:          0
L1I USEFUL LOAD PREFETCHES:          0 PREFETCH ISSUED TO LOWER LEVEL:          0  ACCURACY: -nan
L1I TIMELY PREFETCHES:          0 LATE PREFETCHES: 0 DROPPED PREFETCHES: 0
L1I PREFETCHES SAME FILL-ORIGIN LEVEL: 0 DIFFERENT FILL-ORIGIN LEVEL: 0
L1I AVERAGE MISS LATENCY: -nan cycles
L1I RQ	ACCESS:   18345958	FORWARD:          0	MERGED:    9087857	TO_CACHE:    9258101

BTB TOTAL     ACCESS:    8408284  HIT:    8407871  MISS:        413  HIT %:    99.9951  MISS %: 0.00491182   MPKI: 0.00826
BTB BRANCH_DIRECT_JUMP	ACCESS:        432  HIT:        430  MISS:          2
BTB BRANCH_INDIRECT	ACCESS:          0  HIT:          0  MISS:          0
BTB BRANCH_CONDITIONAL	ACCESS:    7758887  HIT:    7758854  MISS:         33
BTB BRANCH_DIRECT_CALL	ACCESS:     162578  HIT:     162565  MISS:         13
BTB BRANCH_INDIRECT_CALL	ACCESS:     161904  HIT:     161898  MISS:          6
BTB BRANCH_RETURN	ACCESS:     324483  HIT:     324124  MISS:        359
BTB BRANCH_OTHER ACCESS:          0  HIT:          0  MISS:          0

L2C TOTAL     ACCESS:    1065315  HIT:      29805  MISS:    1035510  HIT %:    2.79776  MISS %:    97.2022   MPKI: 20.7102
L2C LOAD      ACCESS:      96247  HIT:       2176  MISS:      94071  HIT %:    2.26085  MISS %:    97.7392   MPKI: 1.88142
L2C DATA LOAD MPKI: 1.88142
L2C INSTRUCTION LOAD MPKI: 0
L2C RFO       ACCESS:        102  HIT:          0  MISS:        102  HIT %:          0  MISS %:        100   MPKI: 0.00204
L2C PREFETCH  ACCESS:     968494  HIT:      27201  MISS:     941293  HIT %:    2.80859  MISS %:    97.1914   MPKI: 18.8259
L2C DATA PREFETCH MPKI: 18.8259
L2C INSTRUCTION PREFETCH MPKI: 0
L2C WRITEBACK ACCESS:        412  HIT:        412  MISS:          0  HIT %:        100  MISS %:          0   MPKI: 0
L2C LOAD TRANSLATION ACCESS:         60  HIT:         16  MISS:         44  HIT %:    26.6667  MISS %:    73.3333   MPKI: 0.00088
L2C PREFETCH  REQUESTED:      91169  ISSUED:      91121  USEFUL:       2163  USELESS:     939637
L2C USEFUL LOAD PREFETCHES:       2163 PREFETCH ISSUED TO LOWER LEVEL:     942851  ACCURACY: 0.229411
L2C TIMELY PREFETCHES:       2163 LATE PREFETCHES: 1545 DROPPED PREFETCHES: 0
L2C PREFETCHES SAME FILL-ORIGIN LEVEL: 31897 DIFFERENT FILL-ORIGIN LEVEL: 0
L2C AVERAGE MISS LATENCY: 1976.52 cycles
L2C RQ	ACCESS:      96409	FORWARD:          0	MERGED:          0	TO_CACHE:      96409
L2C WQ	ACCESS:        412	FORWARD:          0	MERGED:          0	TO_CACHE:        412
L2C PQ	ACCESS:    1036133	FORWARD:          0	MERGED:      28525	TO_CACHE:    1007608

L2C Instructions Evicting Data 0
L2C Translations Evicting Data 44
L2C Data Evicting Data 1035422
L2C Instructions Evicting Instructions 0
L2C Translations Evicting Instructions 0
L2C Data Evicting Instructions 0
L2C Instructions Evicting Translations 0
L2C Translations Evicting Translations 0
L2C Data Evicting Translations 44
L2C Dense regions hint from L2: 0
PSCL5 TOTAL     ACCESS:         60  HIT:         60  MISS:          0  HIT %:        100  MISS %:          0   MPKI: 0
PSCL5 LOAD TRANSLATION ACCESS:         60  HIT:         60  MISS:          0  HIT %:        100  MISS %:          0   MPKI: 0
PSCL5 PREFETCH  REQUESTED:          0  ISSUED:          0  USEFUL:          0  USELESS:          0
PSCL5 USEFUL LOAD PREFETCHES:          0 PREFETCH ISSUED TO LOWER LEVEL:          0  ACCURACY: -nan
PSCL5 TIMELY PREFETCHES:          0 LATE PREFETCHES: 0 DROPPED PREFETCHES: 0
PSCL5 PREFETCHES SAME FILL-ORIGIN LEVEL: 0 DIFFERENT FILL-ORIGIN LEVEL: 0

PSCL4 TOTAL     ACCESS:         60  HIT:         60  MISS:          0  HIT %:        100  MISS %:          0   MPKI: 0
PSCL4 LOAD TRANSLATION ACCESS:         60  HIT:         60  MISS:          0  HIT %:        100  MISS %:          0   MPKI: 0
PSCL4 PREFETCH  REQUESTED:          0  ISSUED:          0  USEFUL:          0  USELESS:          0
PSCL4 USEFUL LOAD PREFETCHES:          0 PREFETCH ISSUED TO LOWER LEVEL:          0  ACCURACY: -nan
PSCL4 TIMELY PREFETCHES:          0 LATE PREFETCHES: 0 DROPPED PREFETCHES: 0
PSCL4 PREFETCHES SAME FILL-ORIGIN LEVEL: 0 DIFFERENT FILL-ORIGIN LEVEL: 0

PSCL3 TOTAL     ACCESS:         60  HIT:         60  MISS:          0  HIT %:        100  MISS %:          0   MPKI: 0
PSCL3 LOAD TRANSLATION ACCESS:         60  HIT:         60  MISS:          0  HIT %:        100  MISS %:          0   MPKI: 0
PSCL3 PREFETCH  REQUESTED:          0  ISSUED:          0  USEFUL:          0  USELESS:          0
PSCL3 USEFUL LOAD PREFETCHES:          0 PREFETCH ISSUED TO LOWER LEVEL:          0  ACCURACY: -nan
PSCL3 TIMELY PREFETCHES:          0 LATE PREFETCHES: 0 DROPPED PREFETCHES: 0
PSCL3 PREFETCHES SAME FILL-ORIGIN LEVEL: 0 DIFFERENT FILL-ORIGIN LEVEL: 0

PSCL2 TOTAL     ACCESS:         60  HIT:         60  MISS:          0  HIT %:        100  MISS %:          0   MPKI: 0
PSCL2 LOAD TRANSLATION ACCESS:         60  HIT:         60  MISS:          0  HIT %:        100  MISS %:          0   MPKI: 0
PSCL2 PREFETCH  REQUESTED:          0  ISSUED:          0  USEFUL:          0  USELESS:          0
PSCL2 USEFUL LOAD PREFETCHES:          0 PREFETCH ISSUED TO LOWER LEVEL:          0  ACCURACY: -nan
PSCL2 TIMELY PREFETCHES:          0 LATE PREFETCHES: 0 DROPPED PREFETCHES: 0
PSCL2 PREFETCHES SAME FILL-ORIGIN LEVEL: 0 DIFFERENT FILL-ORIGIN LEVEL: 0

LLC TOTAL     ACCESS:    1035922  HIT:       8292  MISS:    1027630  HIT %:   0.800446  MISS %:    99.1996   MPKI: 20.5526
LLC LOAD      ACCESS:      92526  HIT:       3100  MISS:      89426  HIT %:    3.35041  MISS %:    96.6496   MPKI: 1.78852
LLC RFO       ACCESS:        102  HIT:          0  MISS:        102  HIT %:          0  MISS %:        100   MPKI: 0.00204
LLC PREFETCH  ACCESS:     942838  HIT:       4780  MISS:     938058  HIT %:    0.50698  MISS %:     99.493   MPKI: 18.7612
LLC WRITEBACK ACCESS:        412  HIT:        412  MISS:          0  HIT %:        100  MISS %:          0   MPKI: 0
LLC LOAD TRANSLATION ACCESS:         44  HIT:          0  MISS:         44  HIT %:          0  MISS %:        100   MPKI: 0.00088
LLC PREFETCH  REQUESTED:          0  ISSUED:          0  USEFUL:        208  USELESS:     940002
LLC USEFUL LOAD PREFETCHES:        208 PREFETCH ISSUED TO LOWER LEVEL:     938071  ACCURACY: 0.0221732
LLC TIMELY PREFETCHES:        208 LATE PREFETCHES: 0 DROPPED PREFETCHES: 0
LLC PREFETCHES SAME FILL-ORIGIN LEVEL: 0 DIFFERENT FILL-ORIGIN LEVEL: 0
LLC AVERAGE MISS LATENCY: 1964.55 cycles
LLC RQ	ACCESS:      92672	FORWARD:          0	MERGED:          0	TO_CACHE:      92672
LLC WQ	ACCESS:        412	FORWARD:          0	MERGED:          0	TO_CACHE:        412
LLC PQ	ACCESS:     942851	FORWARD:          0	MERGED:          0	TO_CACHE:     942851

LLC Dense regions hint to LLC: 0

RAW hits: 496
Loads Generated: 14752436
Loads sent to L1D: 14751939
Stores Generated: 656260
Stores sent to L1D: 656260
Major fault: 0 Minor fault: 716
Allocated PAGES: 716

stream: 
stream:times selected: 2500594
stream:pref_filled: 266549
stream:pref_useful: 109921
stream:pref_late: 144319
stream:misses: 117937
stream:misses_by_poll: 0

CS: 
CS:times selected: 1850891
CS:pref_filled: 589586
CS:pref_useful: 326547
CS:pref_late: 199454
CS:misses: 918192
CS:misses_by_poll: 1452

CPLX: 
CPLX:times selected: 649456
CPLX:pref_filled: 289046
CPLX:pref_useful: 217903
CPLX:pref_late: 77333
CPLX:misses: 152338
CPLX:misses_by_poll: 271

NL_L1: 
NL:times selected: 33
NL:pref_filled: 20
NL:pref_useful: 8
NL:pref_late: 7
NL:misses: 11
NL:misses_by_poll: 0

total selections: 5000974
total_filled: 944986
total_useful: 474153
total_late: 421120
total_polluted: 1723
total_misses_after_warmup: 1173487
conflicts: 484
Degree Incremented Times: 50630
Degree Decremented Times: 0

L1 IP Table Write Accesses: 7282758
L1 IP Table Read Accesses: 7282274
L1 RST Write Accesses: 2063237
L1 RST Read Accesses: 4126474
L1 CSPT Write Accesses: 2063237
L1 CSPT Read Accesses: 3415878
L1 RR Filter Tag Write Accesses: 1805694
L1 RR Filter Tag Read Accesses: 336884257
L1 IP Table Tag Write Accesses: 7471674
L1 IP Table Tag Read Accesses: 7471674
L1 RST Tag Write Accesses: 0
L1 RST Tag Read Accesses: 18643477
L1 RR Filter Write Accesses: 0
L1 RR Filter Read Accesses: 16709021
test: 259246
L2 IP Table Read Accesses: 2029466
L2 IP Table Write Accesses: 1933338
L2 IP Table Tag Read Accesses: 1014814
L2 IP Table Tag Write Accesses: 1014814

DRAM Statistics
 CHANNEL 0
 RQ ROW_BUFFER_HIT:     980173  ROW_BUFFER_MISS:      47457
 DBUS_CONGESTED:    1009393
 WQ ROW_BUFFER_HIT:         92  ROW_BUFFER_MISS:        320  FULL:          0

 AVG_CONGESTED_CYCLE: 158
 All warmup complete: 2
Channel 0 Bank busy for read cycles: 0
Channel 0 Bank busy for write cycles: 0
Channel 0
Rank 0
0banks busy for read cycles: 8712293
0banks busy for write cycles: 115
1banks busy for read cycles: 4369520
1banks busy for write cycles: 28382
2banks busy for read cycles: 4817132
2banks busy for write cycles: 18636
3banks busy for read cycles: 5658385
3banks busy for write cycles: 12775
4banks busy for read cycles: 6719860
4banks busy for write cycles: 13755
5banks busy for read cycles: 8729035
5banks busy for write cycles: 11499
6banks busy for read cycles: 13178290
6banks busy for write cycles: 5520
7banks busy for read cycles: 31339464
7banks busy for write cycles: 7086
8banks busy for read cycles: 87416223
8banks busy for write cycles: 2068

CPU 0 Branch Prediction Accuracy: 96.5207% MPKI: 9.7029 Average ROB Occupancy at Mispredict: 37.8459
Branch types
NOT_BRANCH: 36055972 72.1119%
BRANCH_DIRECT_JUMP: 432 0.000864%
BRANCH_INDIRECT: 0 0%
BRANCH_CONDITIONAL: 13294297 26.5886%
BRANCH_DIRECT_CALL: 162578 0.325156%
BRANCH_INDIRECT_CALL: 161904 0.323808%
BRANCH_RETURN: 324483 0.648966%
BRANCH_OTHER: 0 0%

@sumon_overall_L1D    474153   1070993    470588    944986   3145186   3375930
@Sumon_Early_by_class_L1D     73175    248169    152785         7
@Sumon_Late_by_class_L1D    140950    199454     77319         7

@Sumon_Early_by_cycle_L1D     33359     37940     41960     42708     35152    161023     78040     22468       756     16811      3661       275
@Sumon_Late_by_cycle_L1D     40642     44991     61770     56047     47908    147383     18921        75         0         0         0         0
@Sumon_Early_stream_L1D     10401     10822      9637      6115      5965      9489       386       377       478     16346      3047       112
@Sumon_Early_CS_L1D     15400     19175     23150     25446     20107    102069     37526      4364       155       324       413        40
@Sumon_Early_CPLX_L1D      7555      7942      9172     11145      9080     49459     40126     17718       123       141       201       123
@Sumon_Late_stream_L1D     15878     19827     26796     21861     14298     35395      6851        44         0         0         0         0
@Sumon_Late_CS_L1D     16614     16995     24666     25536     23987     82695      8949        12         0         0         0         0
@Sumon_Late_CPLX_L1D      8148      8167     10307      8646      9622     29291      3119        19         0         0         0         0
@sumon_overall_L2C      2163      1545    939637    941293     91121     91169
@Sumon_Early_by_class_L2C       225      1698       235         0
@Sumon_Late_by_class_L2C       556       979         0         0

@Sumon_Early_by_cycle_L2C        30       136       172       139       161       444       290        36         1         3         9       742
@Sumon_Late_by_cycle_L2C        47       118       185       126       143       664       261         1         0         0         0         0
@Sumon_Early_stream_L2C         1        17        26        21        13        34         2         0         0         3         9        99
@Sumon_Early_CS_L2C        29       117       146       117       147       410       288        35         1         0         0       408
@Sumon_Early_CPLX_L2C         0         0         0         0         0         0         0         0         0         0         0       235
@Sumon_Late_stream_L2C         5        28        36        35        34       271       146         1         0         0         0         0
@Sumon_Late_CS_L2C        36        90       149        90       109       391       114         0         0         0         0         0
@Sumon_Late_CPLX_L2C         0         0         0         0         0         0         0         0         0         0         0         0
DRAM PAGES: 1048576
Allocated PAGES: 716
