
*** ChampSim Multicore Out-of-Order Simulator ***

Warmup Instructions: 10000000
Simulation Instructions: 50000000
Number of CPUs: 1
LLC sets: 2048
LLC ways: 16
Off-chip DRAM Size: 4096 MB Channels: 1 Width: 64-bit Data Rate: 200 MT/s
CPU 0 runs traces/SPEC2017/649.fotonik3d_s-8225B.champsimtrace.xz
.xz
CPU 0 Bimodal branch predictor
BTB has LRU replacement policy
ITLB has LRU replacement policy
DTLB has LRU replacement policy
STLB has LRU replacement policy
L1I has LRU replacement policy
IP Table Entries: 256
L1D has LRU replacement policy
IP_Table L2 entries: 256
L2C has LRU replacement policy
LLC has LRU replacement policy
Heartbeat CPU 0 instructions: 10000001 cycles: 2903770 heartbeat IPC: 3.4438 cumulative IPC: 3.4438 (Simulation time: 0 hr 22 min 7 sec) 

Warmup complete CPU 0 instructions: 10000001 cycles: 2903770 (Simulation time: 0 hr 22 min 7 sec) 

Heartbeat CPU 0 instructions: 20000001 cycles: 31778775 heartbeat IPC: 0.34632 cumulative IPC: 0.34632 (Simulation time: 0 hr 50 min 51 sec) 
Heartbeat CPU 0 instructions: 30000000 cycles: 60525387 heartbeat IPC: 0.347867 cumulative IPC: 0.347092 (Simulation time: 1 hr 19 min 36 sec) 
