
*** ChampSim Multicore Out-of-Order Simulator ***

Warmup Instructions: 10000000
Simulation Instructions: 50000000
Number of CPUs: 1
LLC sets: 2048
LLC ways: 16
Off-chip DRAM Size: 4096 MB Channels: 1 Width: 64-bit Data Rate: 200 MT/s
CPU 0 runs traces/SPEC2017/649.fotonik3d_s-1176B.champsimtrace.xz
.xz
CPU 0 Bimodal branch predictor
BTB has LRU replacement policy
ITLB has LRU replacement policy
DTLB has LRU replacement policy
STLB has LRU replacement policy
L1I has LRU replacement policy
IP Table Entries: 256
L1D has LRU replacement policy
IP_Table L2 entries: 256
L2C has LRU replacement policy
LLC has LRU replacement policy
Heartbeat CPU 0 instructions: 10000000 cycles: 2902852 heartbeat IPC: 3.44489 cumulative IPC: 3.44489 (Simulation time: 0 hr 22 min 17 sec) 

Warmup complete CPU 0 instructions: 10000004 cycles: 2902853 (Simulation time: 0 hr 22 min 17 sec) 

Heartbeat CPU 0 instructions: 20000002 cycles: 31641723 heartbeat IPC: 0.347961 cumulative IPC: 0.347961 (Simulation time: 0 hr 50 min 37 sec) 
Heartbeat CPU 0 instructions: 30000000 cycles: 60407644 heartbeat IPC: 0.347634 cumulative IPC: 0.347797 (Simulation time: 1 hr 19 min 3 sec) 
