
*** ChampSim Multicore Out-of-Order Simulator ***

Warmup Instructions: 10000000
Simulation Instructions: 50000000
Number of CPUs: 1
LLC sets: 2048
LLC ways: 16
Off-chip DRAM Size: 4096 MB Channels: 1 Width: 64-bit Data Rate: 200 MT/s
CPU 0 runs traces/SPEC2017/657.xz_s-2302B.champsimtrace.xz
.xz
CPU 0 Bimodal branch predictor
BTB has LRU replacement policy
ITLB has LRU replacement policy
DTLB has LRU replacement policy
STLB has LRU replacement policy
L1I has LRU replacement policy
IP Table Entries: 256
L1D has LRU replacement policy
IP_Table L2 entries: 256
L2C has LRU replacement policy
LLC has LRU replacement policy
Heartbeat CPU 0 instructions: 10000003 cycles: 2790797 heartbeat IPC: 3.58321 cumulative IPC: 3.58321 (Simulation time: 0 hr 18 min 31 sec) 

Warmup complete CPU 0 instructions: 10000003 cycles: 2790797 (Simulation time: 0 hr 18 min 31 sec) 

Heartbeat CPU 0 instructions: 20000002 cycles: 23188029 heartbeat IPC: 0.490263 cumulative IPC: 0.490263 (Simulation time: 0 hr 35 min 52 sec) 
Heartbeat CPU 0 instructions: 30000000 cycles: 44320268 heartbeat IPC: 0.473211 cumulative IPC: 0.481586 (Simulation time: 0 hr 54 min 20 sec) 
Heartbeat CPU 0 instructions: 40000000 cycles: 65193710 heartbeat IPC: 0.479078 cumulative IPC: 0.480747 (Simulation time: 1 hr 12 min 8 sec) 
Heartbeat CPU 0 instructions: 50000000 cycles: 86267889 heartbeat IPC: 0.474514 cumulative IPC: 0.479173 (Simulation time: 1 hr 30 min 7 sec) 
Heartbeat CPU 0 instructions: 60000001 cycles: 107600509 heartbeat IPC: 0.468766 cumulative IPC: 0.477055 (Simulation time: 1 hr 47 min 52 sec) 
Finished CPU 0 instructions: 50000000 cycles: 104809715 cumulative IPC: 0.477055 (Simulation time: 1 hr 47 min 52 sec) 

ChampSim completed all CPUs

Region of Interest Statistics

CPU 0 cumulative IPC: 0.477055 instructions: 50000000 cycles: 104809715
ITLB TOTAL     ACCESS:    7213384  HIT:    7213384  MISS:          0  HIT %:        100  MISS %:          0   MPKI: 0
ITLB LOAD TRANSLATION ACCESS:    7213384  HIT:    7213384  MISS:          0  HIT %:        100  MISS %:          0   MPKI: 0
ITLB PREFETCH  REQUESTED:          0  ISSUED:          0  USEFUL:          0  USELESS:          0
ITLB USEFUL LOAD PREFETCHES:          0 PREFETCH ISSUED TO LOWER LEVEL:          0  ACCURACY: -nan
ITLB TIMELY PREFETCHES:          0 LATE PREFETCHES: 0 DROPPED PREFETCHES: 0
ITLB PREFETCHES SAME FILL-ORIGIN LEVEL: 0 DIFFERENT FILL-ORIGIN LEVEL: 0
ITLB AVERAGE MISS LATENCY: -nan cycles
ITLB RQ	ACCESS:    8557778	FORWARD:          0	MERGED:    1344394	TO_CACHE:    7213384

DTLB TOTAL     ACCESS:   10188289  HIT:    9890037  MISS:     298252  HIT %:    97.0726  MISS %:     2.9274   MPKI: 5.96504
DTLB LOAD TRANSLATION ACCESS:   10188289  HIT:    9890037  MISS:     298252  HIT %:    97.0726  MISS %:     2.9274   MPKI: 5.96504
DTLB PREFETCH  REQUESTED:          0  ISSUED:          0  USEFUL:          0  USELESS:          0
DTLB USEFUL LOAD PREFETCHES:          0 PREFETCH ISSUED TO LOWER LEVEL:          0  ACCURACY: -nan
DTLB TIMELY PREFETCHES:          0 LATE PREFETCHES: 0 DROPPED PREFETCHES: 0
DTLB PREFETCHES SAME FILL-ORIGIN LEVEL: 0 DIFFERENT FILL-ORIGIN LEVEL: 0
DTLB AVERAGE MISS LATENCY: 16.5723 cycles
DTLB RQ	ACCESS:   12231637	FORWARD:          0	MERGED:    2040968	TO_CACHE:   10190669

STLB TOTAL     ACCESS:    1358671  HIT:    1312803  MISS:      45868  HIT %:    96.6241  MISS %:    3.37595   MPKI: 0.91736
STLB LOAD TRANSLATION ACCESS:     298252  HIT:     252384  MISS:      45868  HIT %:    84.6211  MISS %:    15.3789   MPKI: 0.91736
STLB TRANSLATION FROM L1D PREFETCHER ACCESS:    1060419  HIT:    1060419  MISS:          0  HIT %:        100  MISS %:          0   MPKI: 0
STLB PREFETCH  REQUESTED:          0  ISSUED:          0  USEFUL:          0  USELESS:          0
STLB USEFUL LOAD PREFETCHES:          0 PREFETCH ISSUED TO LOWER LEVEL:          0  ACCURACY: -nan
STLB TIMELY PREFETCHES:          0 LATE PREFETCHES: 0 DROPPED PREFETCHES: 0
STLB PREFETCHES SAME FILL-ORIGIN LEVEL: 0 DIFFERENT FILL-ORIGIN LEVEL: 0
STLB AVERAGE MISS LATENCY: 49.1436 cycles
STLB RQ	ACCESS:    1579894	FORWARD:          0	MERGED:     221223	TO_CACHE:    1358671

STLB Hit, L1D data hit: 0
STLB Hit, L2C data hit: 0
STLB Hit, LLC data hit: 0
STLB Hit, LLC data miss: 0
STLB STLB hints to L2: 0
L1D TOTAL     ACCESS:   13453868  HIT:   12739644  MISS:     714224  HIT %:    94.6913  MISS %:    5.30869   MPKI: 14.2845
L1D LOAD      ACCESS:    8332946  HIT:    8035321  MISS:     297625  HIT %:    96.4283  MISS %:    3.57167   MPKI: 5.9525
L1D RFO       ACCESS:    3840493  HIT:    3803690  MISS:      36803  HIT %:    99.0417  MISS %:   0.958288   MPKI: 0.73606
L1D PREFETCH  ACCESS:    1280429  HIT:     900633  MISS:     379796  HIT %:    70.3384  MISS %:    29.6616   MPKI: 7.59592
L1D PREFETCH  REQUESTED:    2563793  ISSUED:    2563671  USEFUL:      44518  USELESS:     335280
L1D USEFUL LOAD PREFETCHES:      44518 PREFETCH ISSUED TO LOWER LEVEL:     379813  ACCURACY: 11.721
L1D TIMELY PREFETCHES:      44518 LATE PREFETCHES: 12392 DROPPED PREFETCHES: 0
L1D PREFETCHES SAME FILL-ORIGIN LEVEL: 379813 DIFFERENT FILL-ORIGIN LEVEL: 0
L1D AVERAGE MISS LATENCY: 1321.47 cycles
L1D RQ	ACCESS:   11325184	FORWARD:          0	MERGED:    2926441	TO_CACHE:    8374151
L1D WQ	ACCESS:    3924692	FORWARD:      24979	MERGED:      67206	TO_CACHE:    3857486
L1D PQ	ACCESS:    1282029	FORWARD:          0	MERGED:          0	TO_CACHE:    1281642

L1D UNIQUE REGIONS ACCESSED: 0
L1D REGIONS CONFLICTS: 0
L1D Cross Page Prefetch Requests: 0
L1D Same Page Prefetch Requests: 1527655
L1D ROI Sum of L1D PQ occupancy: 17297680
L1D PREFETCHES PUSHED FROM L2C: 0
L1I TOTAL     ACCESS:    8557723  HIT:    8557622  MISS:        101  HIT %:    99.9988  MISS %: 0.00118022   MPKI: 0.00202
L1I LOAD      ACCESS:    8557723  HIT:    8557622  MISS:        101  HIT %:    99.9988  MISS %: 0.00118022   MPKI: 0.00202
L1I PREFETCH  REQUESTED:          0  ISSUED:          0  USEFUL:          0  USELESS:          0
L1I USEFUL LOAD PREFETCHES:          0 PREFETCH ISSUED TO LOWER LEVEL:          0  ACCURACY: -nan
L1I TIMELY PREFETCHES:          0 LATE PREFETCHES: 0 DROPPED PREFETCHES: 0
L1I PREFETCHES SAME FILL-ORIGIN LEVEL: 0 DIFFERENT FILL-ORIGIN LEVEL: 0
L1I AVERAGE MISS LATENCY: 609.871 cycles
L1I RQ	ACCESS:   13098249	FORWARD:          0	MERGED:    4540471	TO_CACHE:    8557778

BTB TOTAL     ACCESS:    6175373  HIT:    6121295  MISS:      54078  HIT %:    99.1243  MISS %:   0.875704   MPKI: 1.08156
BTB BRANCH_DIRECT_JUMP	ACCESS:     694882  HIT:     694800  MISS:         82
BTB BRANCH_INDIRECT	ACCESS:      93373  HIT:      41549  MISS:      51824
BTB BRANCH_CONDITIONAL	ACCESS:    5266896  HIT:    5266636  MISS:        260
BTB BRANCH_DIRECT_CALL	ACCESS:      37667  HIT:      37644  MISS:         23
BTB BRANCH_INDIRECT_CALL	ACCESS:      22444  HIT:      22437  MISS:          7
BTB BRANCH_RETURN	ACCESS:      60111  HIT:      58229  MISS:       1882
BTB BRANCH_OTHER ACCESS:          0  HIT:          0  MISS:          0

L2C TOTAL     ACCESS:    1008457  HIT:     611400  MISS:     397057  HIT %:    60.6273  MISS %:    39.3727   MPKI: 7.94114
L2C LOAD      ACCESS:     297724  HIT:     137579  MISS:     160145  HIT %:    46.2102  MISS %:    53.7898   MPKI: 3.2029
L2C DATA LOAD MPKI: 3.20088
L2C INSTRUCTION LOAD MPKI: 0.00202
L2C RFO       ACCESS:      36785  HIT:      22291  MISS:      14494  HIT %:    60.5981  MISS %:    39.4019   MPKI: 0.28988
L2C PREFETCH  ACCESS:     385487  HIT:     179021  MISS:     206466  HIT %:    46.4402  MISS %:    53.5598   MPKI: 4.12932
L2C DATA PREFETCH MPKI: 4.12932
L2C INSTRUCTION PREFETCH MPKI: 0
L2C WRITEBACK ACCESS:     242570  HIT:     242105  MISS:        465  HIT %:    99.8083  MISS %:   0.191697   MPKI: 0.0093
L2C LOAD TRANSLATION ACCESS:      45891  HIT:      30404  MISS:      15487  HIT %:    66.2526  MISS %:    33.7474   MPKI: 0.30974
L2C PREFETCH  REQUESTED:       6091  ISSUED:       6091  USEFUL:      17729  USELESS:     188646
L2C USEFUL LOAD PREFETCHES:      17729 PREFETCH ISSUED TO LOWER LEVEL:     206480  ACCURACY: 8.5863
L2C TIMELY PREFETCHES:      17729 LATE PREFETCHES: 14 DROPPED PREFETCHES: 0
L2C PREFETCHES SAME FILL-ORIGIN LEVEL: 701 DIFFERENT FILL-ORIGIN LEVEL: 0
L2C AVERAGE MISS LATENCY: 200.248 cycles
L2C RQ	ACCESS:     380404	FORWARD:          0	MERGED:          0	TO_CACHE:     380401
L2C WQ	ACCESS:     242570	FORWARD:          4	MERGED:          0	TO_CACHE:     242570
L2C PQ	ACCESS:     385904	FORWARD:          0	MERGED:        379	TO_CACHE:     385524

L2C Instructions Evicting Data 98
L2C Translations Evicting Data 14961
L2C Data Evicting Data 365873
L2C Instructions Evicting Instructions 0
L2C Translations Evicting Instructions 5
L2C Data Evicting Instructions 98
L2C Instructions Evicting Translations 3
L2C Translations Evicting Translations 521
L2C Data Evicting Translations 15033
L2C Dense regions hint from L2: 0
PSCL5 TOTAL     ACCESS:      45868  HIT:      45868  MISS:          0  HIT %:        100  MISS %:          0   MPKI: 0
PSCL5 LOAD TRANSLATION ACCESS:      45868  HIT:      45868  MISS:          0  HIT %:        100  MISS %:          0   MPKI: 0
PSCL5 PREFETCH  REQUESTED:          0  ISSUED:          0  USEFUL:          0  USELESS:          0
PSCL5 USEFUL LOAD PREFETCHES:          0 PREFETCH ISSUED TO LOWER LEVEL:          0  ACCURACY: -nan
PSCL5 TIMELY PREFETCHES:          0 LATE PREFETCHES: 0 DROPPED PREFETCHES: 0
PSCL5 PREFETCHES SAME FILL-ORIGIN LEVEL: 0 DIFFERENT FILL-ORIGIN LEVEL: 0

PSCL4 TOTAL     ACCESS:      45868  HIT:      45868  MISS:          0  HIT %:        100  MISS %:          0   MPKI: 0
PSCL4 LOAD TRANSLATION ACCESS:      45868  HIT:      45868  MISS:          0  HIT %:        100  MISS %:          0   MPKI: 0
PSCL4 PREFETCH  REQUESTED:          0  ISSUED:          0  USEFUL:          0  USELESS:          0
PSCL4 USEFUL LOAD PREFETCHES:          0 PREFETCH ISSUED TO LOWER LEVEL:          0  ACCURACY: -nan
PSCL4 TIMELY PREFETCHES:          0 LATE PREFETCHES: 0 DROPPED PREFETCHES: 0
PSCL4 PREFETCHES SAME FILL-ORIGIN LEVEL: 0 DIFFERENT FILL-ORIGIN LEVEL: 0

PSCL3 TOTAL     ACCESS:      45868  HIT:      45867  MISS:          1  HIT %:    99.9978  MISS %: 0.00218017   MPKI: 2e-05
PSCL3 LOAD TRANSLATION ACCESS:      45868  HIT:      45867  MISS:          1  HIT %:    99.9978  MISS %: 0.00218017   MPKI: 2e-05
PSCL3 PREFETCH  REQUESTED:          0  ISSUED:          0  USEFUL:          0  USELESS:          0
PSCL3 USEFUL LOAD PREFETCHES:          0 PREFETCH ISSUED TO LOWER LEVEL:          0  ACCURACY: -nan
PSCL3 TIMELY PREFETCHES:          0 LATE PREFETCHES: 0 DROPPED PREFETCHES: 0
PSCL3 PREFETCHES SAME FILL-ORIGIN LEVEL: 0 DIFFERENT FILL-ORIGIN LEVEL: 0

PSCL2 TOTAL     ACCESS:      45868  HIT:      45844  MISS:         24  HIT %:    99.9477  MISS %:  0.0523241   MPKI: 0.00048
PSCL2 LOAD TRANSLATION ACCESS:      45868  HIT:      45844  MISS:         24  HIT %:    99.9477  MISS %:  0.0523241   MPKI: 0.00048
PSCL2 PREFETCH  REQUESTED:          0  ISSUED:          0  USEFUL:          0  USELESS:          0
PSCL2 USEFUL LOAD PREFETCHES:          0 PREFETCH ISSUED TO LOWER LEVEL:          0  ACCURACY: -nan
PSCL2 TIMELY PREFETCHES:          0 LATE PREFETCHES: 0 DROPPED PREFETCHES: 0
PSCL2 PREFETCHES SAME FILL-ORIGIN LEVEL: 0 DIFFERENT FILL-ORIGIN LEVEL: 0

LLC TOTAL     ACCESS:     539678  HIT:     352328  MISS:     187350  HIT %:    65.2849  MISS %:    34.7151   MPKI: 3.747
LLC LOAD      ACCESS:     160131  HIT:      85002  MISS:      75129  HIT %:    53.0828  MISS %:    46.9172   MPKI: 1.50258
LLC RFO       ACCESS:      14494  HIT:       5797  MISS:       8697  HIT %:    39.9959  MISS %:    60.0041   MPKI: 0.17394
LLC PREFETCH  ACCESS:     206480  HIT:     105362  MISS:     101118  HIT %:    51.0277  MISS %:    48.9723   MPKI: 2.02236
LLC WRITEBACK ACCESS:     143086  HIT:     142407  MISS:        679  HIT %:    99.5255  MISS %:    0.47454   MPKI: 0.01358
LLC LOAD TRANSLATION ACCESS:      15487  HIT:      13760  MISS:       1727  HIT %:    88.8487  MISS %:    11.1513   MPKI: 0.03454
LLC PREFETCH  REQUESTED:          0  ISSUED:          0  USEFUL:      13307  USELESS:      87983
LLC USEFUL LOAD PREFETCHES:      13307 PREFETCH ISSUED TO LOWER LEVEL:     101118  ACCURACY: 13.1599
LLC TIMELY PREFETCHES:      13307 LATE PREFETCHES: 0 DROPPED PREFETCHES: 0
LLC PREFETCHES SAME FILL-ORIGIN LEVEL: 0 DIFFERENT FILL-ORIGIN LEVEL: 0
LLC AVERAGE MISS LATENCY: 360.672 cycles
LLC RQ	ACCESS:     190113	FORWARD:          0	MERGED:          0	TO_CACHE:     190113
LLC WQ	ACCESS:     143086	FORWARD:          0	MERGED:          0	TO_CACHE:     143086
LLC PQ	ACCESS:     206480	FORWARD:          0	MERGED:          0	TO_CACHE:     206480

LLC Dense regions hint to LLC: 0

RAW hits: 449585
Loads Generated: 11774763
Loads sent to L1D: 11325184
Stores Generated: 3924692
Stores sent to L1D: 3924692
Major fault: 0 Minor fault: 6477
Allocated PAGES: 6477

stream: 
stream:times selected: 2044693
stream:pref_filled: 319972
stream:pref_useful: 34070
stream:pref_late: 844
stream:misses: 58394
stream:misses_by_poll: 0

CS: 
CS:times selected: 173550
CS:pref_filled: 17053
CS:pref_useful: 11226
CS:pref_late: 1469
CS:misses: 11746
CS:misses_by_poll: 7

CPLX: 
CPLX:times selected: 1859667
CPLX:pref_filled: 111918
CPLX:pref_useful: 7426
CPLX:pref_late: 76
CPLX:misses: 248364
CPLX:misses_by_poll: 316

NL_L1: 
NL:times selected: 10637
NL:pref_filled: 3396
NL:pref_useful: 469
NL:pref_late: 8
NL:misses: 2585
NL:misses_by_poll: 1

total selections: 4088547
total_filled: 379796
total_useful: 44518
total_late: 2400
total_polluted: 324
total_misses_after_warmup: 338832
conflicts: 411600
Degree Incremented Times: 0
Degree Decremented Times: 147807

L1 IP Table Write Accesses: 7527245
L1 IP Table Read Accesses: 7115645
L1 RST Write Accesses: 1715378
L1 RST Read Accesses: 3430756
L1 CSPT Write Accesses: 1715378
L1 CSPT Read Accesses: 3277291
L1 RR Filter Tag Write Accesses: 1282151
L1 RR Filter Tag Read Accesses: 68962711
L1 IP Table Tag Write Accesses: 8374153
L1 IP Table Tag Read Accesses: 8374153
L1 RST Tag Write Accesses: 0
L1 RST Tag Read Accesses: 15515045
L1 RR Filter Write Accesses: 0
L1 RR Filter Read Accesses: 2490785
test: 775565
L2 IP Table Read Accesses: 1347903
L2 IP Table Write Accesses: 1056658
L2 IP Table Tag Read Accesses: 677019
L2 IP Table Tag Write Accesses: 677019

DRAM Statistics
 CHANNEL 0
 RQ ROW_BUFFER_HIT:       6596  ROW_BUFFER_MISS:     180069
 DBUS_CONGESTED:     218045
 WQ ROW_BUFFER_HIT:      15290  ROW_BUFFER_MISS:      65757  FULL:          0

 AVG_CONGESTED_CYCLE: 120
 All warmup complete: 2
Channel 0 Bank busy for read cycles: 0
Channel 0 Bank busy for write cycles: 0
Channel 0
Rank 0
0banks busy for read cycles: 59158015
0banks busy for write cycles: 30931
1banks busy for read cycles: 14905808
1banks busy for write cycles: 6170464
2banks busy for read cycles: 8822423
2banks busy for write cycles: 3449112
3banks busy for read cycles: 3240323
3banks busy for write cycles: 2270198
4banks busy for read cycles: 1229150
4banks busy for write cycles: 1558860
5banks busy for read cycles: 462757
5banks busy for write cycles: 1082349
6banks busy for read cycles: 215917
6banks busy for write cycles: 699384
7banks busy for read cycles: 110985
7banks busy for write cycles: 494940
8banks busy for read cycles: 390693
8banks busy for write cycles: 517407

CPU 0 Branch Prediction Accuracy: 87.3628% MPKI: 16.4726 Average ROB Occupancy at Mispredict: 21.7091
Branch types
NOT_BRANCH: 43482132 86.9643%
BRANCH_DIRECT_JUMP: 694882 1.38976%
BRANCH_INDIRECT: 93373 0.186746%
BRANCH_CONDITIONAL: 5609028 11.2181%
BRANCH_DIRECT_CALL: 37667 0.075334%
BRANCH_INDIRECT_CALL: 22444 0.044888%
BRANCH_RETURN: 60111 0.120222%
BRANCH_OTHER: 0 0%

@sumon_overall_L1D     44518     12392    335280    379796   2563671   2563793
@Sumon_Early_by_class_L1D     28320      9302      6411         6
@Sumon_Late_by_class_L1D       794      1469        75         6

@Sumon_Early_by_cycle_L1D      2473      1119       421       299       358      2294      5604      6040      6582      9080      6144      4104
@Sumon_Late_by_cycle_L1D      1008       173       148       121       118       555       190        33         1         0         0         0
@Sumon_Early_stream_L1D      2058       957       288       208       277      1900      3715      3973      3424      4660      4147      2713
@Sumon_Early_CS_L1D       190        83        83        44        39       112      1301      1360      2296      2840       397       557
@Sumon_Early_CPLX_L1D       191        74        48        41        36       245       509       627       794      1513      1534       799
@Sumon_Late_stream_L1D       694        48        31        12         5         3         1         0         0         0         0         0
@Sumon_Late_CS_L1D       238       120       116       109       112       551       189        33         1         0         0         0
@Sumon_Late_CPLX_L1D        68         4         1         0         1         1         0         0         0         0         0         0
@sumon_overall_L2C     17729        14    188646    206466      6091      6091
@Sumon_Early_by_class_L2C     11780       427      5145         0
@Sumon_Late_by_class_L2C         0         0         0         0

@Sumon_Early_by_cycle_L2C         5         5         1         0         1         2        29        43        50        44       328     17221
@Sumon_Late_by_cycle_L2C         8         5         1         0         0         0         0         0         0         0         0         0
@Sumon_Early_stream_L2C         0         0         0         0         0         0         0         0         0        15       204     11561
@Sumon_Early_CS_L2C         0         0         0         0         0         0         0         0         0         0         4       423
@Sumon_Early_CPLX_L2C         0         0         0         0         0         0         0         0         0         7       114      5024
@Sumon_Late_stream_L2C         0         0         0         0         0         0         0         0         0         0         0         0
@Sumon_Late_CS_L2C         0         0         0         0         0         0         0         0         0         0         0         0
@Sumon_Late_CPLX_L2C         0         0         0         0         0         0         0         0         0         0         0         0
DRAM PAGES: 1048576
Allocated PAGES: 6477
