
*** ChampSim Multicore Out-of-Order Simulator ***

Warmup Instructions: 10000000
Simulation Instructions: 50000000
Number of CPUs: 1
LLC sets: 2048
LLC ways: 16
Off-chip DRAM Size: 4096 MB Channels: 1 Width: 64-bit Data Rate: 400 MT/s
CPU 0 runs traces/SPEC2017/619.lbm_s-2677B.champsimtrace.xz
.xz
CPU 0 Bimodal branch predictor
BTB has LRU replacement policy
ITLB has LRU replacement policy
DTLB has LRU replacement policy
STLB has LRU replacement policy
L1I has LRU replacement policy
IP Table Entries: 256
L1D has LRU replacement policy
IP_Table L2 entries: 256
L2C has LRU replacement policy
LLC has LRU replacement policy
Heartbeat CPU 0 instructions: 10000001 cycles: 2911371 heartbeat IPC: 3.43481 cumulative IPC: 3.43481 (Simulation time: 0 hr 21 min 48 sec) 

Warmup complete CPU 0 instructions: 10000001 cycles: 2911371 (Simulation time: 0 hr 21 min 48 sec) 

Heartbeat CPU 0 instructions: 20000000 cycles: 73652598 heartbeat IPC: 0.14136 cumulative IPC: 0.14136 (Simulation time: 2 hr 5 min 50 sec) 
Heartbeat CPU 0 instructions: 30000001 cycles: 146442787 heartbeat IPC: 0.137381 cumulative IPC: 0.139342 (Simulation time: 2 hr 42 min 31 sec) 
Heartbeat CPU 0 instructions: 40000000 cycles: 218291900 heartbeat IPC: 0.139181 cumulative IPC: 0.139288 (Simulation time: 2 hr 54 min 39 sec) 
Heartbeat CPU 0 instructions: 50000002 cycles: 291862404 heartbeat IPC: 0.135924 cumulative IPC: 0.138432 (Simulation time: 3 hr 0 min 54 sec) 
Heartbeat CPU 0 instructions: 60000001 cycles: 364742493 heartbeat IPC: 0.137212 cumulative IPC: 0.138186 (Simulation time: 3 hr 6 min 14 sec) 
Finished CPU 0 instructions: 50000000 cycles: 361831122 cumulative IPC: 0.138186 (Simulation time: 3 hr 6 min 14 sec) 

ChampSim completed all CPUs

Region of Interest Statistics

CPU 0 cumulative IPC: 0.138186 instructions: 50000000 cycles: 361831122
ITLB TOTAL     ACCESS:    6817421  HIT:    6817421  MISS:          0  HIT %:        100  MISS %:          0   MPKI: 0
ITLB LOAD TRANSLATION ACCESS:    6817421  HIT:    6817421  MISS:          0  HIT %:        100  MISS %:          0   MPKI: 0
ITLB PREFETCH  REQUESTED:          0  ISSUED:          0  USEFUL:          0  USELESS:          0
ITLB USEFUL LOAD PREFETCHES:          0 PREFETCH ISSUED TO LOWER LEVEL:          0  ACCURACY: -nan
ITLB TIMELY PREFETCHES:          0 LATE PREFETCHES: 0 DROPPED PREFETCHES: 0
ITLB PREFETCHES SAME FILL-ORIGIN LEVEL: 0 DIFFERENT FILL-ORIGIN LEVEL: 0
ITLB AVERAGE MISS LATENCY: -nan cycles
ITLB RQ	ACCESS:    8789652	FORWARD:          0	MERGED:    1972232	TO_CACHE:    6817420

DTLB TOTAL     ACCESS:    8071398  HIT:    8003382  MISS:      68016  HIT %:    99.1573  MISS %:   0.842679   MPKI: 1.36032
DTLB LOAD TRANSLATION ACCESS:    8071398  HIT:    8003382  MISS:      68016  HIT %:    99.1573  MISS %:   0.842679   MPKI: 1.36032
DTLB PREFETCH  REQUESTED:          0  ISSUED:          0  USEFUL:          0  USELESS:          0
DTLB USEFUL LOAD PREFETCHES:          0 PREFETCH ISSUED TO LOWER LEVEL:          0  ACCURACY: -nan
DTLB TIMELY PREFETCHES:          0 LATE PREFETCHES: 0 DROPPED PREFETCHES: 0
DTLB PREFETCHES SAME FILL-ORIGIN LEVEL: 0 DIFFERENT FILL-ORIGIN LEVEL: 0
DTLB AVERAGE MISS LATENCY: 285.22 cycles
DTLB RQ	ACCESS:   11532489	FORWARD:          0	MERGED:    3426994	TO_CACHE:    8105495

STLB TOTAL     ACCESS:     427618  HIT:     390710  MISS:      36908  HIT %:    91.3689  MISS %:    8.63107   MPKI: 0.73816
STLB LOAD TRANSLATION ACCESS:      68016  HIT:      31108  MISS:      36908  HIT %:    45.7363  MISS %:    54.2637   MPKI: 0.73816
STLB TRANSLATION FROM L1D PREFETCHER ACCESS:     359602  HIT:     359602  MISS:          0  HIT %:        100  MISS %:          0   MPKI: 0
STLB PREFETCH  REQUESTED:          0  ISSUED:          0  USEFUL:          0  USELESS:          0
STLB USEFUL LOAD PREFETCHES:          0 PREFETCH ISSUED TO LOWER LEVEL:          0  ACCURACY: -nan
STLB TIMELY PREFETCHES:          0 LATE PREFETCHES: 0 DROPPED PREFETCHES: 0
STLB PREFETCHES SAME FILL-ORIGIN LEVEL: 0 DIFFERENT FILL-ORIGIN LEVEL: 0
STLB AVERAGE MISS LATENCY: 506.896 cycles
STLB RQ	ACCESS:     673469	FORWARD:          0	MERGED:     245851	TO_CACHE:     427618

STLB Hit, L1D data hit: 0
STLB Hit, L2C data hit: 0
STLB Hit, LLC data hit: 0
STLB Hit, LLC data miss: 0
STLB STLB hints to L2: 0
L1D TOTAL     ACCESS:   11816827  HIT:    7920497  MISS:    3896330  HIT %:    67.0273  MISS %:    32.9727   MPKI: 77.9266
L1D LOAD      ACCESS:    3514698  HIT:    3289595  MISS:     225103  HIT %:    93.5954  MISS %:    6.40462   MPKI: 4.50206
L1D RFO       ACCESS:    7854989  HIT:    4549053  MISS:    3305936  HIT %:    57.9129  MISS %:    42.0871   MPKI: 66.1187
L1D PREFETCH  ACCESS:     447140  HIT:      81849  MISS:     365291  HIT %:     18.305  MISS %:     81.695   MPKI: 7.30582
L1D PREFETCH  REQUESTED:    1234934  ISSUED:    1210921  USEFUL:     365292  USELESS:          0
L1D USEFUL LOAD PREFETCHES:     365292 PREFETCH ISSUED TO LOWER LEVEL:     432661  ACCURACY: 84.4291
L1D TIMELY PREFETCHES:     365292 LATE PREFETCHES: 67228 DROPPED PREFETCHES: 0
L1D PREFETCHES SAME FILL-ORIGIN LEVEL: 432661 DIFFERENT FILL-ORIGIN LEVEL: 0
L1D AVERAGE MISS LATENCY: 3.17812e+06 cycles
L1D RQ	ACCESS:   12103879	FORWARD:          0	MERGED:    5955818	TO_CACHE:    3570353
L1D WQ	ACCESS:    9189247	FORWARD:    2577708	MERGED:    1227111	TO_CACHE:    7962136
L1D PQ	ACCESS:     605468	FORWARD:          0	MERGED:         15	TO_CACHE:     605453

L1D UNIQUE REGIONS ACCESSED: 0
L1D REGIONS CONFLICTS: 0
L1D Cross Page Prefetch Requests: 0
L1D Same Page Prefetch Requests: 733484
L1D ROI Sum of L1D PQ occupancy: 2274530608
L1D PREFETCHES PUSHED FROM L2C: 0
L1I TOTAL     ACCESS:    8789653  HIT:    8789653  MISS:          0  HIT %:        100  MISS %:          0   MPKI: 0
L1I LOAD      ACCESS:    8789653  HIT:    8789653  MISS:          0  HIT %:        100  MISS %:          0   MPKI: 0
L1I PREFETCH  REQUESTED:          0  ISSUED:          0  USEFUL:          0  USELESS:          0
L1I USEFUL LOAD PREFETCHES:          0 PREFETCH ISSUED TO LOWER LEVEL:          0  ACCURACY: -nan
L1I TIMELY PREFETCHES:          0 LATE PREFETCHES: 0 DROPPED PREFETCHES: 0
L1I PREFETCHES SAME FILL-ORIGIN LEVEL: 0 DIFFERENT FILL-ORIGIN LEVEL: 0
L1I AVERAGE MISS LATENCY: -nan cycles
L1I RQ	ACCESS:   12622247	FORWARD:          0	MERGED:    3832595	TO_CACHE:    8789652

BTB TOTAL     ACCESS:     892808  HIT:     892802  MISS:          6  HIT %:    99.9993  MISS %: 0.000672037   MPKI: 0.00012
BTB BRANCH_DIRECT_JUMP	ACCESS:     143919  HIT:     143918  MISS:          1
BTB BRANCH_INDIRECT	ACCESS:          0  HIT:          0  MISS:          0
BTB BRANCH_CONDITIONAL	ACCESS:     748889  HIT:     748884  MISS:          5
BTB BRANCH_DIRECT_CALL	ACCESS:          0  HIT:          0  MISS:          0
BTB BRANCH_INDIRECT_CALL	ACCESS:          0  HIT:          0  MISS:          0
BTB BRANCH_RETURN	ACCESS:          0  HIT:          0  MISS:          0
BTB BRANCH_OTHER ACCESS:          0  HIT:          0  MISS:          0

L2C TOTAL     ACCESS:    7661205  HIT:    5280378  MISS:    2380827  HIT %:    68.9236  MISS %:    31.0764   MPKI: 47.6165
L2C LOAD      ACCESS:     157875  HIT:      65648  MISS:      92227  HIT %:    41.5823  MISS %:    58.4177   MPKI: 1.84454
L2C DATA LOAD MPKI: 1.84454
L2C INSTRUCTION LOAD MPKI: 0
L2C RFO       ACCESS:    3305933  HIT:    1520261  MISS:    1785672  HIT %:    45.9858  MISS %:    54.0142   MPKI: 35.7134
L2C PREFETCH  ACCESS:     854553  HIT:     356398  MISS:     498155  HIT %:    41.7058  MISS %:    58.2942   MPKI: 9.9631
L2C DATA PREFETCH MPKI: 9.9631
L2C INSTRUCTION PREFETCH MPKI: 0
L2C WRITEBACK ACCESS:    3305934  HIT:    3305823  MISS:        111  HIT %:    99.9966  MISS %:  0.0033576   MPKI: 0.00222
L2C LOAD TRANSLATION ACCESS:      36910  HIT:      32248  MISS:       4662  HIT %:    87.3693  MISS %:    12.6307   MPKI: 0.09324
L2C PREFETCH  REQUESTED:     759601  ISSUED:     759584  USEFUL:      65643  USELESS:     432683
L2C USEFUL LOAD PREFETCHES:      65643 PREFETCH ISSUED TO LOWER LEVEL:     519771  ACCURACY: 12.6292
L2C TIMELY PREFETCHES:      65643 LATE PREFETCHES: 21602 DROPPED PREFETCHES: 0
L2C PREFETCHES SAME FILL-ORIGIN LEVEL: 343038 DIFFERENT FILL-ORIGIN LEVEL: 0
L2C AVERAGE MISS LATENCY: 2491.9 cycles
L2C RQ	ACCESS:    3500728	FORWARD:          0	MERGED:          0	TO_CACHE:    3500727
L2C WQ	ACCESS:    3305934	FORWARD:          1	MERGED:          0	TO_CACHE:    3305934
L2C PQ	ACCESS:    1192108	FORWARD:          0	MERGED:      48871	TO_CACHE:    1143237

L2C Instructions Evicting Data 0
L2C Translations Evicting Data 4662
L2C Data Evicting Data 2371395
L2C Instructions Evicting Instructions 0
L2C Translations Evicting Instructions 0
L2C Data Evicting Instructions 0
L2C Instructions Evicting Translations 0
L2C Translations Evicting Translations 0
L2C Data Evicting Translations 4659
L2C Dense regions hint from L2: 0
PSCL5 TOTAL     ACCESS:      36908  HIT:      36908  MISS:          0  HIT %:        100  MISS %:          0   MPKI: 0
PSCL5 LOAD TRANSLATION ACCESS:      36908  HIT:      36908  MISS:          0  HIT %:        100  MISS %:          0   MPKI: 0
PSCL5 PREFETCH  REQUESTED:          0  ISSUED:          0  USEFUL:          0  USELESS:          0
PSCL5 USEFUL LOAD PREFETCHES:          0 PREFETCH ISSUED TO LOWER LEVEL:          0  ACCURACY: -nan
PSCL5 TIMELY PREFETCHES:          0 LATE PREFETCHES: 0 DROPPED PREFETCHES: 0
PSCL5 PREFETCHES SAME FILL-ORIGIN LEVEL: 0 DIFFERENT FILL-ORIGIN LEVEL: 0

PSCL4 TOTAL     ACCESS:      36908  HIT:      36908  MISS:          0  HIT %:        100  MISS %:          0   MPKI: 0
PSCL4 LOAD TRANSLATION ACCESS:      36908  HIT:      36908  MISS:          0  HIT %:        100  MISS %:          0   MPKI: 0
PSCL4 PREFETCH  REQUESTED:          0  ISSUED:          0  USEFUL:          0  USELESS:          0
PSCL4 USEFUL LOAD PREFETCHES:          0 PREFETCH ISSUED TO LOWER LEVEL:          0  ACCURACY: -nan
PSCL4 TIMELY PREFETCHES:          0 LATE PREFETCHES: 0 DROPPED PREFETCHES: 0
PSCL4 PREFETCHES SAME FILL-ORIGIN LEVEL: 0 DIFFERENT FILL-ORIGIN LEVEL: 0

PSCL3 TOTAL     ACCESS:      36908  HIT:      36908  MISS:          0  HIT %:        100  MISS %:          0   MPKI: 0
PSCL3 LOAD TRANSLATION ACCESS:      36908  HIT:      36908  MISS:          0  HIT %:        100  MISS %:          0   MPKI: 0
PSCL3 PREFETCH  REQUESTED:          0  ISSUED:          0  USEFUL:          0  USELESS:          0
PSCL3 USEFUL LOAD PREFETCHES:          0 PREFETCH ISSUED TO LOWER LEVEL:          0  ACCURACY: -nan
PSCL3 TIMELY PREFETCHES:          0 LATE PREFETCHES: 0 DROPPED PREFETCHES: 0
PSCL3 PREFETCHES SAME FILL-ORIGIN LEVEL: 0 DIFFERENT FILL-ORIGIN LEVEL: 0

PSCL2 TOTAL     ACCESS:      36908  HIT:      36870  MISS:         38  HIT %:     99.897  MISS %:   0.102959   MPKI: 0.00076
PSCL2 LOAD TRANSLATION ACCESS:      36908  HIT:      36870  MISS:         38  HIT %:     99.897  MISS %:   0.102959   MPKI: 0.00076
PSCL2 PREFETCH  REQUESTED:          0  ISSUED:          0  USEFUL:          0  USELESS:          0
PSCL2 USEFUL LOAD PREFETCHES:          0 PREFETCH ISSUED TO LOWER LEVEL:          0  ACCURACY: -nan
PSCL2 TIMELY PREFETCHES:          0 LATE PREFETCHES: 0 DROPPED PREFETCHES: 0
PSCL2 PREFETCHES SAME FILL-ORIGIN LEVEL: 0 DIFFERENT FILL-ORIGIN LEVEL: 0

LLC TOTAL     ACCESS:    4166810  HIT:    1800727  MISS:    2366083  HIT %:     43.216  MISS %:     56.784   MPKI: 47.3217
LLC LOAD      ACCESS:      70625  HIT:         20  MISS:      70605  HIT %:  0.0283186  MISS %:    99.9717   MPKI: 1.4121
LLC RFO       ACCESS:    1785649  HIT:      14682  MISS:    1770967  HIT %:   0.822222  MISS %:    99.1778   MPKI: 35.4193
LLC PREFETCH  ACCESS:     519757  HIT:          0  MISS:     519757  HIT %:          0  MISS %:        100   MPKI: 10.3951
LLC WRITEBACK ACCESS:    1786117  HIT:    1786025  MISS:         92  HIT %:    99.9948  MISS %: 0.00515084   MPKI: 0.00184
LLC LOAD TRANSLATION ACCESS:       4662  HIT:          0  MISS:       4662  HIT %:          0  MISS %:        100   MPKI: 0.09324
LLC PREFETCH  REQUESTED:          0  ISSUED:          0  USEFUL:          0  USELESS:     520600
LLC USEFUL LOAD PREFETCHES:          0 PREFETCH ISSUED TO LOWER LEVEL:     519771  ACCURACY: 0
LLC TIMELY PREFETCHES:          0 LATE PREFETCHES: 0 DROPPED PREFETCHES: 0
LLC PREFETCHES SAME FILL-ORIGIN LEVEL: 0 DIFFERENT FILL-ORIGIN LEVEL: 0
LLC AVERAGE MISS LATENCY: 2488.54 cycles
LLC RQ	ACCESS:    1860968	FORWARD:          0	MERGED:          0	TO_CACHE:    1860945
LLC WQ	ACCESS:    1786117	FORWARD:         23	MERGED:          0	TO_CACHE:    1786117
LLC PQ	ACCESS:     519771	FORWARD:          0	MERGED:          0	TO_CACHE:     519771

LLC Dense regions hint to LLC: 0

RAW hits: 917707
Loads Generated: 13021587
Loads sent to L1D: 12103879
Stores Generated: 9189225
Stores sent to L1D: 9189247
Major fault: 0 Minor fault: 25372
Allocated PAGES: 25372

stream: 
stream:times selected: 2042334
stream:pref_filled: 82312
stream:pref_useful: 82311
stream:pref_late: 24841
stream:misses: 34586
stream:misses_by_poll: 0

CS: 
CS:times selected: 382651
CS:pref_filled: 213298
CS:pref_useful: 213297
CS:pref_late: 18564
CS:misses: 69009
CS:misses_by_poll: 1388

CPLX: 
CPLX:times selected: 1657109
CPLX:pref_filled: 182151
CPLX:pref_useful: 182147
CPLX:pref_late: 25800
CPLX:misses: 170325
CPLX:misses_by_poll: 939

NL_L1: 
NL:times selected: 1146
NL:pref_filled: 46
NL:pref_useful: 46
NL:pref_late: 30
NL:misses: 206
NL:misses_by_poll: 0

total selections: 4083240
total_filled: 365291
total_useful: 365292
total_late: 69754
total_polluted: 2327
total_misses_after_warmup: 280757
conflicts: 95293
Degree Incremented Times: 55625
Degree Decremented Times: 0

L1 IP Table Write Accesses: 3262055
L1 IP Table Read Accesses: 3166762
L1 RST Write Accesses: 1649661
L1 RST Read Accesses: 3299322
L1 CSPT Write Accesses: 1649661
L1 CSPT Read Accesses: 5142852
L1 RR Filter Tag Write Accesses: 629481
L1 RR Filter Tag Read Accesses: 264820030
L1 IP Table Tag Write Accesses: 3570352
L1 IP Table Tag Read Accesses: 3570352
L1 RST Tag Write Accesses: 0
L1 RST Tag Read Accesses: 14891570
L1 RR Filter Write Accesses: 0
L1 RR Filter Read Accesses: 11863797
test: 343391
L2 IP Table Read Accesses: 889313
L2 IP Table Write Accesses: 731753
L2 IP Table Tag Read Accesses: 445006
L2 IP Table Tag Write Accesses: 445006

DRAM Statistics
 CHANNEL 0
 RQ ROW_BUFFER_HIT:     223902  ROW_BUFFER_MISS:    2142089
 DBUS_CONGESTED:    3951749
 WQ ROW_BUFFER_HIT:     170940  ROW_BUFFER_MISS:    1600002  FULL:          0

 AVG_CONGESTED_CYCLE: 78
 All warmup complete: 2
Channel 0 Bank busy for read cycles: 0
Channel 0 Bank busy for write cycles: 0
Channel 0
Rank 0
0banks busy for read cycles: 7377
0banks busy for write cycles: 0
1banks busy for read cycles: 1027531
1banks busy for write cycles: 199256
2banks busy for read cycles: 1464778
2banks busy for write cycles: 199256
3banks busy for read cycles: 2280529
3banks busy for write cycles: 199252
4banks busy for read cycles: 3432020
4banks busy for write cycles: 199251
5banks busy for read cycles: 9808465
5banks busy for write cycles: 199251
6banks busy for read cycles: 35369401
6banks busy for write cycles: 199764
7banks busy for read cycles: 66937806
7banks busy for write cycles: 2011141
8banks busy for read cycles: 86897066
8banks busy for write cycles: 151398979

CPU 0 Branch Prediction Accuracy: 94.966% MPKI: 0.89888 Average ROB Occupancy at Mispredict: 174.532
Branch types
NOT_BRANCH: 49106854 98.2137%
BRANCH_DIRECT_JUMP: 143919 0.287838%
BRANCH_INDIRECT: 0 0%
BRANCH_CONDITIONAL: 748891 1.49778%
BRANCH_DIRECT_CALL: 0 0%
BRANCH_INDIRECT_CALL: 0 0%
BRANCH_RETURN: 0 0%
BRANCH_OTHER: 0 0%

@sumon_overall_L1D    365292     67228         0    365291   1210921   1234934
@Sumon_Early_by_class_L1D     59702    177711    127779        25
@Sumon_Late_by_class_L1D     22803     18494     25564        25

@Sumon_Early_by_cycle_L1D      6944     14126     18663     15988     11305     91871    102180     77297     22958      3960         0         0
@Sumon_Late_by_cycle_L1D       866      1031      2452      2108     15826     44945
@Sumon_Early_stream_L1D      2438      4422      6224      4997      4040     22864     13346      1369         2         0         0         0
@Sumon_Early_CS_L1D      2137      5159      5776      5683      3635     40952     60809     48802      4754         4         0         0
@Sumon_Early_CPLX_L1D      2362      4542      6650      5301      3626     28032     27997     27114     18199      3956         0         0
@Sumon_Late_stream_L1D       263       365       941       731      5492     15011
@Sumon_Late_CS_L1D       150       343       774       598      4367     12262
@Sumon_Late_CPLX_L1D       124       321       737       778      5958     17646
@sumon_overall_L2C     65643     21602    432683    498155    759584    759601
@Sumon_Early_by_class_L2C     24020     41558         0         0
@Sumon_Late_by_class_L2C     16854      4718         0         0

@Sumon_Early_by_cycle_L2C       339      1159      1702       918       545     11421     14226     23841     11437        55         0         0
@Sumon_Late_by_cycle_L2C        27        75       147       571      3996     16786
@Sumon_Early_stream_L2C       236       986      1366       700       436      8832      8307      3157         0         0         0         0
@Sumon_Early_CS_L2C       103       173       336       218       109      2585      5908     20670     11404        52         0         0
@Sumon_Early_CPLX_L2C         0         0         0         0         0         0         0         0         0         0         0         0
@Sumon_Late_stream_L2C         0        67       133       444      3113     13097
@Sumon_Late_CS_L2C         0         8        14       127       883      3686
@Sumon_Late_CPLX_L2C         0         0         0         0         0         0
DRAM PAGES: 1048576
Allocated PAGES: 25372
