
*** ChampSim Multicore Out-of-Order Simulator ***

Warmup Instructions: 10000000
Simulation Instructions: 50000000
Number of CPUs: 1
LLC sets: 2048
LLC ways: 16
Off-chip DRAM Size: 4096 MB Channels: 1 Width: 64-bit Data Rate: 400 MT/s
CPU 0 runs traces/SPEC2017/654.roms_s-1007B.champsimtrace.xz
.xz
CPU 0 Bimodal branch predictor
BTB has LRU replacement policy
ITLB has LRU replacement policy
DTLB has LRU replacement policy
STLB has LRU replacement policy
L1I has LRU replacement policy
IP Table Entries: 256
L1D has LRU replacement policy
IP_Table L2 entries: 256
L2C has LRU replacement policy
LLC has LRU replacement policy
Heartbeat CPU 0 instructions: 10000000 cycles: 3015946 heartbeat IPC: 3.31571 cumulative IPC: 3.31571 (Simulation time: 0 hr 23 min 7 sec) 

Warmup complete CPU 0 instructions: 10000004 cycles: 3015947 (Simulation time: 0 hr 23 min 7 sec) 

Heartbeat CPU 0 instructions: 20000001 cycles: 22514183 heartbeat IPC: 0.512867 cumulative IPC: 0.512867 (Simulation time: 0 hr 43 min 58 sec) 
Heartbeat CPU 0 instructions: 30000000 cycles: 42029478 heartbeat IPC: 0.512419 cumulative IPC: 0.512643 (Simulation time: 1 hr 4 min 44 sec) 
Heartbeat CPU 0 instructions: 40000000 cycles: 61542588 heartbeat IPC: 0.512476 cumulative IPC: 0.512587 (Simulation time: 1 hr 25 min 47 sec) 
Heartbeat CPU 0 instructions: 50000000 cycles: 94393280 heartbeat IPC: 0.304408 cumulative IPC: 0.437745 (Simulation time: 2 hr 4 min 11 sec) 
Heartbeat CPU 0 instructions: 60000002 cycles: 126884646 heartbeat IPC: 0.307774 cumulative IPC: 0.403653 (Simulation time: 2 hr 21 min 57 sec) 
Finished CPU 0 instructions: 50000000 cycles: 123868711 cumulative IPC: 0.403653 (Simulation time: 2 hr 21 min 57 sec) 

ChampSim completed all CPUs

Region of Interest Statistics

CPU 0 cumulative IPC: 0.403653 instructions: 50000000 cycles: 123868711
ITLB TOTAL     ACCESS:    8394356  HIT:    8394350  MISS:          6  HIT %:    99.9999  MISS %: 7.14766e-05   MPKI: 0.00012
ITLB LOAD TRANSLATION ACCESS:    8394356  HIT:    8394350  MISS:          6  HIT %:    99.9999  MISS %: 7.14766e-05   MPKI: 0.00012
ITLB PREFETCH  REQUESTED:          0  ISSUED:          0  USEFUL:          0  USELESS:          0
ITLB USEFUL LOAD PREFETCHES:          0 PREFETCH ISSUED TO LOWER LEVEL:          0  ACCURACY: -nan
ITLB TIMELY PREFETCHES:          0 LATE PREFETCHES: 0 DROPPED PREFETCHES: 0
ITLB PREFETCHES SAME FILL-ORIGIN LEVEL: 0 DIFFERENT FILL-ORIGIN LEVEL: 0
ITLB AVERAGE MISS LATENCY: 410.833 cycles
ITLB RQ	ACCESS:   10687843	FORWARD:          0	MERGED:    2293487	TO_CACHE:    8394356

DTLB TOTAL     ACCESS:   14017749  HIT:   14006386  MISS:      11363  HIT %:    99.9189  MISS %:  0.0810615   MPKI: 0.22726
DTLB LOAD TRANSLATION ACCESS:   14017749  HIT:   14006386  MISS:      11363  HIT %:    99.9189  MISS %:  0.0810615   MPKI: 0.22726
DTLB PREFETCH  REQUESTED:          0  ISSUED:          0  USEFUL:          0  USELESS:          0
DTLB USEFUL LOAD PREFETCHES:          0 PREFETCH ISSUED TO LOWER LEVEL:          0  ACCURACY: -nan
DTLB TIMELY PREFETCHES:          0 LATE PREFETCHES: 0 DROPPED PREFETCHES: 0
DTLB PREFETCHES SAME FILL-ORIGIN LEVEL: 0 DIFFERENT FILL-ORIGIN LEVEL: 0
DTLB AVERAGE MISS LATENCY: 754.985 cycles
DTLB RQ	ACCESS:   15738504	FORWARD:          0	MERGED:    1695587	TO_CACHE:   14042917

STLB TOTAL     ACCESS:     430796  HIT:     419884  MISS:      10912  HIT %:     97.467  MISS %:    2.53299   MPKI: 0.21824
STLB LOAD TRANSLATION ACCESS:      11369  HIT:        457  MISS:      10912  HIT %:     4.0197  MISS %:    95.9803   MPKI: 0.21824
STLB TRANSLATION FROM L1D PREFETCHER ACCESS:     419427  HIT:     419427  MISS:          0  HIT %:        100  MISS %:          0   MPKI: 0
STLB PREFETCH  REQUESTED:          0  ISSUED:          0  USEFUL:          0  USELESS:          0
STLB USEFUL LOAD PREFETCHES:          0 PREFETCH ISSUED TO LOWER LEVEL:          0  ACCURACY: -nan
STLB TIMELY PREFETCHES:          0 LATE PREFETCHES: 0 DROPPED PREFETCHES: 0
STLB PREFETCHES SAME FILL-ORIGIN LEVEL: 0 DIFFERENT FILL-ORIGIN LEVEL: 0
STLB AVERAGE MISS LATENCY: 776.611 cycles
STLB RQ	ACCESS:    1952736	FORWARD:          0	MERGED:    1521940	TO_CACHE:     430796

STLB Hit, L1D data hit: 0
STLB Hit, L2C data hit: 0
STLB Hit, LLC data hit: 0
STLB Hit, LLC data miss: 0
STLB STLB hints to L2: 0
L1D TOTAL     ACCESS:   16703135  HIT:   16236674  MISS:     466461  HIT %:    97.2073  MISS %:    2.79266   MPKI: 9.32922
L1D LOAD      ACCESS:    9894927  HIT:    9830588  MISS:      64339  HIT %:    99.3498  MISS %:   0.650222   MPKI: 1.28678
L1D RFO       ACCESS:    4909326  HIT:    4755606  MISS:     153720  HIT %:    96.8688  MISS %:    3.13118   MPKI: 3.0744
L1D PREFETCH  ACCESS:    1898882  HIT:    1650480  MISS:     248402  HIT %:    86.9185  MISS %:    13.0815   MPKI: 4.96804
L1D PREFETCH  REQUESTED:    4088637  ISSUED:    3887011  USEFUL:     232951  USELESS:      15452
L1D USEFUL LOAD PREFETCHES:     232951 PREFETCH ISSUED TO LOWER LEVEL:     575018  ACCURACY: 40.5119
L1D TIMELY PREFETCHES:     232951 LATE PREFETCHES: 28076 DROPPED PREFETCHES: 0
L1D PREFETCHES SAME FILL-ORIGIN LEVEL: 575018 DIFFERENT FILL-ORIGIN LEVEL: 0
L1D AVERAGE MISS LATENCY: 6.08953e+06 cycles
L1D RQ	ACCESS:   12547561	FORWARD:          0	MERGED:    2593689	TO_CACHE:    9946896
L1D WQ	ACCESS:    6118340	FORWARD:       6976	MERGED:     326732	TO_CACHE:    5791608
L1D PQ	ACCESS:    1945644	FORWARD:          0	MERGED:       4277	TO_CACHE:    1941367

L1D UNIQUE REGIONS ACCESSED: 0
L1D REGIONS CONFLICTS: 0
L1D Cross Page Prefetch Requests: 0
L1D Same Page Prefetch Requests: 2364998
L1D ROI Sum of L1D PQ occupancy: 272418246
L1D PREFETCHES PUSHED FROM L2C: 0
L1I TOTAL     ACCESS:   10687820  HIT:   10687757  MISS:         63  HIT %:    99.9994  MISS %: 0.000589456   MPKI: 0.00126
L1I LOAD      ACCESS:   10687820  HIT:   10687757  MISS:         63  HIT %:    99.9994  MISS %: 0.000589456   MPKI: 0.00126
L1I PREFETCH  REQUESTED:          0  ISSUED:          0  USEFUL:          0  USELESS:          0
L1I USEFUL LOAD PREFETCHES:          0 PREFETCH ISSUED TO LOWER LEVEL:          0  ACCURACY: -nan
L1I TIMELY PREFETCHES:          0 LATE PREFETCHES: 0 DROPPED PREFETCHES: 0
L1I PREFETCHES SAME FILL-ORIGIN LEVEL: 0 DIFFERENT FILL-ORIGIN LEVEL: 0
L1I AVERAGE MISS LATENCY: 502.857 cycles
L1I RQ	ACCESS:   14006758	FORWARD:          0	MERGED:    3318915	TO_CACHE:   10687843

BTB TOTAL     ACCESS:    3139531  HIT:    2812744  MISS:     326787  HIT %:    89.5912  MISS %:    10.4088   MPKI: 6.53574
BTB BRANCH_DIRECT_JUMP	ACCESS:     326747  HIT:     326739  MISS:          8
BTB BRANCH_INDIRECT	ACCESS:          0  HIT:          0  MISS:          0
BTB BRANCH_CONDITIONAL	ACCESS:    1505847  HIT:    1505816  MISS:         31
BTB BRANCH_DIRECT_CALL	ACCESS:     653469  HIT:     653459  MISS:         10
BTB BRANCH_INDIRECT_CALL	ACCESS:          0  HIT:          0  MISS:          0
BTB BRANCH_RETURN	ACCESS:     653468  HIT:     326730  MISS:     326738
BTB BRANCH_OTHER ACCESS:          0  HIT:          0  MISS:          0

L2C TOTAL     ACCESS:    1172549  HIT:     691427  MISS:     481122  HIT %:    58.9679  MISS %:    41.0321   MPKI: 9.62244
L2C LOAD      ACCESS:      36326  HIT:      24233  MISS:      12093  HIT %:    66.7098  MISS %:    33.2902   MPKI: 0.24186
L2C DATA LOAD MPKI: 0.2406
L2C INSTRUCTION LOAD MPKI: 0.00126
L2C RFO       ACCESS:     153720  HIT:         14  MISS:     153706  HIT %: 0.00910747  MISS %:    99.9909   MPKI: 3.07412
L2C PREFETCH  ACCESS:     817791  HIT:     505038  MISS:     312753  HIT %:    61.7564  MISS %:    38.2436   MPKI: 6.25506
L2C DATA PREFETCH MPKI: 6.25506
L2C INSTRUCTION PREFETCH MPKI: 0
L2C WRITEBACK ACCESS:     153791  HIT:     153580  MISS:        211  HIT %:    99.8628  MISS %:   0.137199   MPKI: 0.00422
L2C LOAD TRANSLATION ACCESS:      10921  HIT:       8562  MISS:       2359  HIT %:    78.3994  MISS %:    21.6006   MPKI: 0.04718
L2C PREFETCH  REQUESTED:    1036654  ISSUED:     976406  USEFUL:      24108  USELESS:     288186
L2C USEFUL LOAD PREFETCHES:      24108 PREFETCH ISSUED TO LOWER LEVEL:     315338  ACCURACY: 7.64513
L2C TIMELY PREFETCHES:      24108 LATE PREFETCHES: 2585 DROPPED PREFETCHES: 0
L2C PREFETCHES SAME FILL-ORIGIN LEVEL: 272431 DIFFERENT FILL-ORIGIN LEVEL: 0
L2C AVERAGE MISS LATENCY: 2291.33 cycles
L2C RQ	ACCESS:     200967	FORWARD:          0	MERGED:          0	TO_CACHE:     200967
L2C WQ	ACCESS:     153791	FORWARD:          0	MERGED:          0	TO_CACHE:     153791
L2C PQ	ACCESS:    1252884	FORWARD:          0	MERGED:     159248	TO_CACHE:    1093636

L2C Instructions Evicting Data 61
L2C Translations Evicting Data 2354
L2C Data Evicting Data 475731
L2C Instructions Evicting Instructions 0
L2C Translations Evicting Instructions 0
L2C Data Evicting Instructions 47
L2C Instructions Evicting Translations 2
L2C Translations Evicting Translations 3
L2C Data Evicting Translations 2341
L2C Dense regions hint from L2: 0
PSCL5 TOTAL     ACCESS:      10912  HIT:      10912  MISS:          0  HIT %:        100  MISS %:          0   MPKI: 0
PSCL5 LOAD TRANSLATION ACCESS:      10912  HIT:      10912  MISS:          0  HIT %:        100  MISS %:          0   MPKI: 0
PSCL5 PREFETCH  REQUESTED:          0  ISSUED:          0  USEFUL:          0  USELESS:          0
PSCL5 USEFUL LOAD PREFETCHES:          0 PREFETCH ISSUED TO LOWER LEVEL:          0  ACCURACY: -nan
PSCL5 TIMELY PREFETCHES:          0 LATE PREFETCHES: 0 DROPPED PREFETCHES: 0
PSCL5 PREFETCHES SAME FILL-ORIGIN LEVEL: 0 DIFFERENT FILL-ORIGIN LEVEL: 0

PSCL4 TOTAL     ACCESS:      10912  HIT:      10912  MISS:          0  HIT %:        100  MISS %:          0   MPKI: 0
PSCL4 LOAD TRANSLATION ACCESS:      10912  HIT:      10912  MISS:          0  HIT %:        100  MISS %:          0   MPKI: 0
PSCL4 PREFETCH  REQUESTED:          0  ISSUED:          0  USEFUL:          0  USELESS:          0
PSCL4 USEFUL LOAD PREFETCHES:          0 PREFETCH ISSUED TO LOWER LEVEL:          0  ACCURACY: -nan
PSCL4 TIMELY PREFETCHES:          0 LATE PREFETCHES: 0 DROPPED PREFETCHES: 0
PSCL4 PREFETCHES SAME FILL-ORIGIN LEVEL: 0 DIFFERENT FILL-ORIGIN LEVEL: 0

PSCL3 TOTAL     ACCESS:      10912  HIT:      10909  MISS:          3  HIT %:    99.9725  MISS %:  0.0274927   MPKI: 6e-05
PSCL3 LOAD TRANSLATION ACCESS:      10912  HIT:      10909  MISS:          3  HIT %:    99.9725  MISS %:  0.0274927   MPKI: 6e-05
PSCL3 PREFETCH  REQUESTED:          0  ISSUED:          0  USEFUL:          0  USELESS:          0
PSCL3 USEFUL LOAD PREFETCHES:          0 PREFETCH ISSUED TO LOWER LEVEL:          0  ACCURACY: -nan
PSCL3 TIMELY PREFETCHES:          0 LATE PREFETCHES: 0 DROPPED PREFETCHES: 0
PSCL3 PREFETCHES SAME FILL-ORIGIN LEVEL: 0 DIFFERENT FILL-ORIGIN LEVEL: 0

PSCL2 TOTAL     ACCESS:      10912  HIT:      10861  MISS:         51  HIT %:    99.5326  MISS %:   0.467375   MPKI: 0.00102
PSCL2 LOAD TRANSLATION ACCESS:      10912  HIT:      10861  MISS:         51  HIT %:    99.5326  MISS %:   0.467375   MPKI: 0.00102
PSCL2 PREFETCH  REQUESTED:          0  ISSUED:          0  USEFUL:          0  USELESS:          0
PSCL2 USEFUL LOAD PREFETCHES:          0 PREFETCH ISSUED TO LOWER LEVEL:          0  ACCURACY: -nan
PSCL2 TIMELY PREFETCHES:          0 LATE PREFETCHES: 0 DROPPED PREFETCHES: 0
PSCL2 PREFETCHES SAME FILL-ORIGIN LEVEL: 0 DIFFERENT FILL-ORIGIN LEVEL: 0

LLC TOTAL     ACCESS:     634909  HIT:     153855  MISS:     481054  HIT %:    24.2326  MISS %:    75.7674   MPKI: 9.62108
LLC LOAD      ACCESS:       9508  HIT:          3  MISS:       9505  HIT %:  0.0315524  MISS %:    99.9684   MPKI: 0.1901
LLC RFO       ACCESS:     153706  HIT:          0  MISS:     153706  HIT %:          0  MISS %:        100   MPKI: 3.07412
LLC PREFETCH  ACCESS:     315338  HIT:         57  MISS:     315281  HIT %:  0.0180758  MISS %:    99.9819   MPKI: 6.30562
LLC WRITEBACK ACCESS:     153998  HIT:     153788  MISS:        210  HIT %:    99.8636  MISS %:   0.136365   MPKI: 0.0042
LLC LOAD TRANSLATION ACCESS:       2359  HIT:          7  MISS:       2352  HIT %:   0.296736  MISS %:    99.7033   MPKI: 0.04704
LLC PREFETCH  REQUESTED:          0  ISSUED:          0  USEFUL:          0  USELESS:     302903
LLC USEFUL LOAD PREFETCHES:          0 PREFETCH ISSUED TO LOWER LEVEL:     315281  ACCURACY: 0
LLC TIMELY PREFETCHES:          0 LATE PREFETCHES: 0 DROPPED PREFETCHES: 0
LLC PREFETCHES SAME FILL-ORIGIN LEVEL: 0 DIFFERENT FILL-ORIGIN LEVEL: 0
LLC AVERAGE MISS LATENCY: 2280.06 cycles
LLC RQ	ACCESS:     165573	FORWARD:          0	MERGED:          0	TO_CACHE:     165573
LLC WQ	ACCESS:     153999	FORWARD:          0	MERGED:          0	TO_CACHE:     153999
LLC PQ	ACCESS:     315338	FORWARD:          0	MERGED:          0	TO_CACHE:     315338

LLC Dense regions hint to LLC: 0

RAW hits: 1335411
Loads Generated: 13882972
Loads sent to L1D: 12547561
Stores Generated: 6118341
Stores sent to L1D: 6118340
Major fault: 0 Minor fault: 10479
Allocated PAGES: 10479

stream: 
stream:times selected: 1783241
stream:pref_filled: 251650
stream:pref_useful: 235836
stream:pref_late: 27768
stream:misses: 172
stream:misses_by_poll: 0

CS: 
CS:times selected: 406790
CS:pref_filled: 4980
CS:pref_useful: 4846
CS:pref_late: 121
CS:misses: 111105
CS:misses_by_poll: 19

CPLX: 
CPLX:times selected: 1376379
CPLX:pref_filled: 148
CPLX:pref_useful: 23
CPLX:pref_late: 11
CPLX:misses: 5090
CPLX:misses_by_poll: 0

NL_L1: 
NL:times selected: 14
NL:pref_filled: 4
NL:pref_useful: 3
NL:pref_late: 1
NL:misses: 14
NL:misses_by_poll: 0

total selections: 3566424
total_filled: 248402
total_useful: 232951
total_late: 28078
total_polluted: 19
total_misses_after_warmup: 116309
conflicts: 794
Degree Incremented Times: 70280
Degree Decremented Times: 0

L1 IP Table Write Accesses: 9945541
L1 IP Table Read Accesses: 9944747
L1 RST Write Accesses: 1526441
L1 RST Read Accesses: 3052882
L1 CSPT Write Accesses: 1526441
L1 CSPT Read Accesses: 4442507
L1 RR Filter Tag Write Accesses: 2147270
L1 RR Filter Tag Read Accesses: 267286950
L1 IP Table Tag Write Accesses: 9946897
L1 IP Table Tag Read Accesses: 9946897
L1 RST Tag Write Accesses: 0
L1 RST Tag Read Accesses: 15998534
L1 RR Filter Write Accesses: 0
L1 RR Filter Read Accesses: 12792158
test: 721056
L2 IP Table Read Accesses: 373136
L2 IP Table Write Accesses: 337008
L2 IP Table Tag Read Accesses: 186604
L2 IP Table Tag Write Accesses: 186604

DRAM Statistics
 CHANNEL 0
 RQ ROW_BUFFER_HIT:     264488  ROW_BUFFER_MISS:     216356
 DBUS_CONGESTED:     561580
 WQ ROW_BUFFER_HIT:      12914  ROW_BUFFER_MISS:     135746  FULL:          0

 AVG_CONGESTED_CYCLE: 78
 All warmup complete: 2
Channel 0 Bank busy for read cycles: 0
Channel 0 Bank busy for write cycles: 0
Channel 0
Rank 0
0banks busy for read cycles: 69820382
0banks busy for write cycles: 9562
1banks busy for read cycles: 4080844
1banks busy for write cycles: 1441874
2banks busy for read cycles: 426328
2banks busy for write cycles: 76315
3banks busy for read cycles: 506276
3banks busy for write cycles: 68724
4banks busy for read cycles: 678538
4banks busy for write cycles: 63372
5banks busy for read cycles: 963311
5banks busy for write cycles: 60405
6banks busy for read cycles: 1477346
6banks busy for write cycles: 63521
7banks busy for read cycles: 3412048
7banks busy for write cycles: 246528
8banks busy for read cycles: 28712017
8banks busy for write cycles: 11761321

CPU 0 Branch Prediction Accuracy: 99.9659% MPKI: 0.03484 Average ROB Occupancy at Mispredict: 139.049
Branch types
NOT_BRANCH: 44898664 89.7973%
BRANCH_DIRECT_JUMP: 326747 0.653494%
BRANCH_INDIRECT: 0 0%
BRANCH_CONDITIONAL: 3467349 6.9347%
BRANCH_DIRECT_CALL: 653469 1.30694%
BRANCH_INDIRECT_CALL: 0 0%
BRANCH_RETURN: 653468 1.30694%
BRANCH_OTHER: 0 0%

@sumon_overall_L1D    232951     28076     15452    248402   3887011   4088637
@Sumon_Early_by_class_L1D    228846      4085        20         1
@Sumon_Late_by_class_L1D     27767       120        11         1

@Sumon_Early_by_cycle_L1D      5838      9763     17623     13342     12383     62759     54123     36031      5016     16066         6         1
@Sumon_Late_by_cycle_L1D       430      1304      1167      2241     10623     12311
@Sumon_Early_stream_L1D      5762      9624     17393     13194     11823     62456     53794     35930      2803     16060         6         1
@Sumon_Early_CS_L1D        75       139       226       148       560       298       328        98      2211         2         0         0
@Sumon_Early_CPLX_L1D         1         0         4         0         0         5         1         3         2         4         0         0
@Sumon_Late_stream_L1D       251      1297      1164      2232     10565     12258
@Sumon_Late_CS_L1D         2         7         3         9        55        44
@Sumon_Late_CPLX_L1D         0         0         0         0         2         9
@sumon_overall_L2C     24108      2585    288186    312753    976406   1036654
@Sumon_Early_by_class_L2C     24052        45         0         0
@Sumon_Late_by_class_L2C      2557        16         0         0

@Sumon_Early_by_cycle_L2C       243       330       616       603       530      3686      8898      8569       537        91         1         4
@Sumon_Late_by_cycle_L2C        10        13        32       106       499      1925
@Sumon_Early_stream_L2C       241       329       613       596       528      3675      8881      8568       530        88         1         2
@Sumon_Early_CS_L2C         2         0         2         7         1         7        16         0         7         3         0         0
@Sumon_Early_CPLX_L2C         0         0         0         0         0         0         0         0         0         0         0         0
@Sumon_Late_stream_L2C         0        12        32       105       496      1912
@Sumon_Late_CS_L2C         0         0         0         0         3        13
@Sumon_Late_CPLX_L2C         0         0         0         0         0         0
DRAM PAGES: 1048576
Allocated PAGES: 10479
