
*** ChampSim Multicore Out-of-Order Simulator ***

Warmup Instructions: 10000000
Simulation Instructions: 50000000
Number of CPUs: 1
LLC sets: 2048
LLC ways: 16
Off-chip DRAM Size: 4096 MB Channels: 1 Width: 64-bit Data Rate: 533 MT/s
CPU 0 runs traces/clientserver/client_002.champsimtrace.xz
.xz
CPU 0 Bimodal branch predictor
BTB has LRU replacement policy
ITLB has LRU replacement policy
DTLB has LRU replacement policy
STLB has LRU replacement policy
L1I has LRU replacement policy
IP Table Entries: 256
L1D has LRU replacement policy
IP_Table L2 entries: 256
L2C has LRU replacement policy
LLC has LRU replacement policy
Heartbeat CPU 0 instructions: 10000000 cycles: 2814161 heartbeat IPC: 3.55346 cumulative IPC: 3.55346 (Simulation time: 0 hr 18 min 30 sec) 

Warmup complete CPU 0 instructions: 10000004 cycles: 2814162 (Simulation time: 0 hr 18 min 30 sec) 

Heartbeat CPU 0 instructions: 20000002 cycles: 17967538 heartbeat IPC: 0.659919 cumulative IPC: 0.659919 (Simulation time: 0 hr 34 min 59 sec) 
Heartbeat CPU 0 instructions: 30000001 cycles: 33288303 heartbeat IPC: 0.652709 cumulative IPC: 0.656294 (Simulation time: 0 hr 51 min 16 sec) 
Heartbeat CPU 0 instructions: 40000002 cycles: 48800520 heartbeat IPC: 0.644653 cumulative IPC: 0.652367 (Simulation time: 1 hr 7 min 38 sec) 
Heartbeat CPU 0 instructions: 50000000 cycles: 63963356 heartbeat IPC: 0.659507 cumulative IPC: 0.654138 (Simulation time: 1 hr 23 min 56 sec) 
Heartbeat CPU 0 instructions: 60000001 cycles: 79291451 heartbeat IPC: 0.652397 cumulative IPC: 0.653789 (Simulation time: 1 hr 39 min 45 sec) 
Finished CPU 0 instructions: 50000002 cycles: 76477299 cumulative IPC: 0.653789 (Simulation time: 1 hr 39 min 45 sec) 

ChampSim completed all CPUs

Region of Interest Statistics

CPU 0 cumulative IPC: 0.653789 instructions: 50000002 cycles: 76477299
ITLB TOTAL     ACCESS:    8438231  HIT:    8342405  MISS:      95826  HIT %:    98.8644  MISS %:    1.13562   MPKI: 1.91652
ITLB LOAD TRANSLATION ACCESS:    8438231  HIT:    8342405  MISS:      95826  HIT %:    98.8644  MISS %:    1.13562   MPKI: 1.91652
ITLB PREFETCH  REQUESTED:          0  ISSUED:          0  USEFUL:          0  USELESS:          0
ITLB USEFUL LOAD PREFETCHES:          0 PREFETCH ISSUED TO LOWER LEVEL:          0  ACCURACY: -nan
ITLB TIMELY PREFETCHES:          0 LATE PREFETCHES: 0 DROPPED PREFETCHES: 0
ITLB PREFETCHES SAME FILL-ORIGIN LEVEL: 0 DIFFERENT FILL-ORIGIN LEVEL: 0
ITLB AVERAGE MISS LATENCY: 9.59251 cycles
ITLB RQ	ACCESS:   10239059	FORWARD:          0	MERGED:    1770858	TO_CACHE:    8468201

DTLB TOTAL     ACCESS:   10592911  HIT:   10436058  MISS:     156853  HIT %:    98.5193  MISS %:    1.48074   MPKI: 3.13706
DTLB LOAD TRANSLATION ACCESS:   10592911  HIT:   10436058  MISS:     156853  HIT %:    98.5193  MISS %:    1.48074   MPKI: 3.13706
DTLB PREFETCH  REQUESTED:          0  ISSUED:          0  USEFUL:          0  USELESS:          0
DTLB USEFUL LOAD PREFETCHES:          0 PREFETCH ISSUED TO LOWER LEVEL:          0  ACCURACY: -nan
DTLB TIMELY PREFETCHES:          0 LATE PREFETCHES: 0 DROPPED PREFETCHES: 0
DTLB PREFETCHES SAME FILL-ORIGIN LEVEL: 0 DIFFERENT FILL-ORIGIN LEVEL: 0
DTLB AVERAGE MISS LATENCY: 11.1082 cycles
DTLB RQ	ACCESS:   14112231	FORWARD:          0	MERGED:    3503110	TO_CACHE:   10609121

STLB TOTAL     ACCESS:     504713  HIT:     496381  MISS:       8332  HIT %:    98.3492  MISS %:    1.65084   MPKI: 0.16664
STLB LOAD TRANSLATION ACCESS:     252679  HIT:     244348  MISS:       8331  HIT %:    96.7029  MISS %:    3.29707   MPKI: 0.16662
STLB TRANSLATION FROM L1D PREFETCHER ACCESS:     252034  HIT:     252033  MISS:          1  HIT %:    99.9996  MISS %: 0.000396772   MPKI: 2e-05
STLB PREFETCH  REQUESTED:          0  ISSUED:          0  USEFUL:          1  USELESS:          0
STLB USEFUL LOAD PREFETCHES:          1 PREFETCH ISSUED TO LOWER LEVEL:          0  ACCURACY: inf
STLB TIMELY PREFETCHES:          1 LATE PREFETCHES: 0 DROPPED PREFETCHES: 0
STLB PREFETCHES SAME FILL-ORIGIN LEVEL: 0 DIFFERENT FILL-ORIGIN LEVEL: 0
STLB AVERAGE MISS LATENCY: 45.4872 cycles
STLB RQ	ACCESS:     564543	FORWARD:          0	MERGED:      59829	TO_CACHE:     504714

STLB Hit, L1D data hit: 0
STLB Hit, L2C data hit: 0
STLB Hit, LLC data hit: 0
STLB Hit, LLC data miss: 0
STLB STLB hints to L2: 0
L1D TOTAL     ACCESS:   14200885  HIT:   13931859  MISS:     269026  HIT %:    98.1056  MISS %:    1.89443   MPKI: 5.38052
L1D LOAD      ACCESS:    7415982  HIT:    7303846  MISS:     112136  HIT %:    98.4879  MISS %:    1.51209   MPKI: 2.24272
L1D RFO       ACCESS:    6476355  HIT:    6382118  MISS:      94237  HIT %:    98.5449  MISS %:    1.45509   MPKI: 1.88474
L1D PREFETCH  ACCESS:     308548  HIT:     245895  MISS:      62653  HIT %:    79.6942  MISS %:    20.3058   MPKI: 1.25306
L1D PREFETCH  REQUESTED:     624452  ISSUED:     624452  USEFUL:      31512  USELESS:      31122
L1D USEFUL LOAD PREFETCHES:      31512 PREFETCH ISSUED TO LOWER LEVEL:      62859  ACCURACY: 50.1312
L1D TIMELY PREFETCHES:      31512 LATE PREFETCHES: 1485 DROPPED PREFETCHES: 0
L1D PREFETCHES SAME FILL-ORIGIN LEVEL: 62859 DIFFERENT FILL-ORIGIN LEVEL: 0
L1D AVERAGE MISS LATENCY: 33272.6 cycles
L1D RQ	ACCESS:   11683923	FORWARD:          0	MERGED:    4072124	TO_CACHE:    7423738
L1D WQ	ACCESS:    6853195	FORWARD:     188785	MERGED:     164702	TO_CACHE:    6688493
L1D PQ	ACCESS:     312588	FORWARD:          0	MERGED:          0	TO_CACHE:     311864

L1D UNIQUE REGIONS ACCESSED: 0
L1D REGIONS CONFLICTS: 0
L1D Cross Page Prefetch Requests: 0
L1D Same Page Prefetch Requests: 381639
L1D ROI Sum of L1D PQ occupancy: 5143998
L1D PREFETCHES PUSHED FROM L2C: 0
L1I TOTAL     ACCESS:   10140958  HIT:    9673901  MISS:     467057  HIT %:    95.3944  MISS %:    4.60565   MPKI: 9.34114
L1I LOAD      ACCESS:   10140958  HIT:    9673901  MISS:     467057  HIT %:    95.3944  MISS %:    4.60565   MPKI: 9.34114
L1I PREFETCH  REQUESTED:          0  ISSUED:          0  USEFUL:          0  USELESS:          0
L1I USEFUL LOAD PREFETCHES:          0 PREFETCH ISSUED TO LOWER LEVEL:          0  ACCURACY: -nan
L1I TIMELY PREFETCHES:          0 LATE PREFETCHES: 0 DROPPED PREFETCHES: 0
L1I PREFETCHES SAME FILL-ORIGIN LEVEL: 0 DIFFERENT FILL-ORIGIN LEVEL: 0
L1I AVERAGE MISS LATENCY: 20.6481 cycles
L1I RQ	ACCESS:   15108992	FORWARD:          0	MERGED:    4869933	TO_CACHE:   10239059

BTB TOTAL     ACCESS:    6796237  HIT:    6165045  MISS:     631192  HIT %:    90.7126  MISS %:    9.28737   MPKI: 12.6238
BTB BRANCH_DIRECT_JUMP	ACCESS:     517874  HIT:     500004  MISS:      17870
BTB BRANCH_INDIRECT	ACCESS:     114556  HIT:      57356  MISS:      57200
BTB BRANCH_CONDITIONAL	ACCESS:    3999865  HIT:    3947993  MISS:      51872
BTB BRANCH_DIRECT_CALL	ACCESS:     959047  HIT:     921975  MISS:      37072
BTB BRANCH_INDIRECT_CALL	ACCESS:     122815  HIT:      95300  MISS:      27515
BTB BRANCH_RETURN	ACCESS:    1082080  HIT:     642417  MISS:     439663
BTB BRANCH_OTHER ACCESS:          0  HIT:          0  MISS:          0

L2C TOTAL     ACCESS:     975524  HIT:     739451  MISS:     236073  HIT %:    75.8004  MISS %:    24.1996   MPKI: 4.72146
L2C LOAD      ACCESS:     579192  HIT:     459974  MISS:     119218  HIT %:    79.4165  MISS %:    20.5835   MPKI: 2.38436
L2C DATA LOAD MPKI: 0.57952
L2C INSTRUCTION LOAD MPKI: 1.80484
L2C RFO       ACCESS:      94031  HIT:      24254  MISS:      69777  HIT %:    25.7936  MISS %:    74.2064   MPKI: 1.39554
L2C PREFETCH  ACCESS:     175314  HIT:     130120  MISS:      45194  HIT %:    74.2211  MISS %:    25.7789   MPKI: 0.90388
L2C DATA PREFETCH MPKI: 0.90388
L2C INSTRUCTION PREFETCH MPKI: 0
L2C WRITEBACK ACCESS:     118473  HIT:     118131  MISS:        342  HIT %:    99.7113  MISS %:   0.288673   MPKI: 0.00684
L2C LOAD TRANSLATION ACCESS:       8513  HIT:       6971  MISS:       1542  HIT %:    81.8865  MISS %:    18.1135   MPKI: 0.03084
L2C TRANSLATION FROM L1D PREFETCHER ACCESS:          1  HIT:          1  MISS:          0  HIT %:        100  MISS %:          0   MPKI: 0
L2C PREFETCH  REQUESTED:     122789  ISSUED:     122789  USEFUL:       7436  USELESS:      39201
L2C USEFUL LOAD PREFETCHES:       7436 PREFETCH ISSUED TO LOWER LEVEL:      45422  ACCURACY: 16.3709
L2C TIMELY PREFETCHES:       7436 LATE PREFETCHES: 228 DROPPED PREFETCHES: 0
L2C PREFETCHES SAME FILL-ORIGIN LEVEL: 27303 DIFFERENT FILL-ORIGIN LEVEL: 0
L2C AVERAGE MISS LATENCY: 135.041 cycles
L2C RQ	ACCESS:     681738	FORWARD:          0	MERGED:          0	TO_CACHE:     681737
L2C WQ	ACCESS:     118473	FORWARD:          4	MERGED:          0	TO_CACHE:     118473
L2C PQ	ACCESS:     185648	FORWARD:          0	MERGED:       8712	TO_CACHE:     176933

L2C Instructions Evicting Data 56205
L2C Translations Evicting Data 922
L2C Data Evicting Data 87343
L2C Instructions Evicting Instructions 33421
L2C Translations Evicting Instructions 598
L2C Data Evicting Instructions 55635
L2C Instructions Evicting Translations 616
L2C Translations Evicting Translations 22
L2C Data Evicting Translations 969
L2C Dense regions hint from L2: 0
PSCL5 TOTAL     ACCESS:       8332  HIT:       8332  MISS:          0  HIT %:        100  MISS %:          0   MPKI: 0
PSCL5 LOAD TRANSLATION ACCESS:       8331  HIT:       8331  MISS:          0  HIT %:        100  MISS %:          0   MPKI: 0
PSCL5 TRANSLATION FROM L1D PREFETCHER ACCESS:          1  HIT:          1  MISS:          0  HIT %:        100  MISS %:          0   MPKI: 0
PSCL5 PREFETCH  REQUESTED:          0  ISSUED:          0  USEFUL:          0  USELESS:          0
PSCL5 USEFUL LOAD PREFETCHES:          0 PREFETCH ISSUED TO LOWER LEVEL:          0  ACCURACY: -nan
PSCL5 TIMELY PREFETCHES:          0 LATE PREFETCHES: 0 DROPPED PREFETCHES: 0
PSCL5 PREFETCHES SAME FILL-ORIGIN LEVEL: 0 DIFFERENT FILL-ORIGIN LEVEL: 0

PSCL4 TOTAL     ACCESS:       8332  HIT:       8332  MISS:          0  HIT %:        100  MISS %:          0   MPKI: 0
PSCL4 LOAD TRANSLATION ACCESS:       8331  HIT:       8331  MISS:          0  HIT %:        100  MISS %:          0   MPKI: 0
PSCL4 TRANSLATION FROM L1D PREFETCHER ACCESS:          1  HIT:          1  MISS:          0  HIT %:        100  MISS %:          0   MPKI: 0
PSCL4 PREFETCH  REQUESTED:          0  ISSUED:          0  USEFUL:          0  USELESS:          0
PSCL4 USEFUL LOAD PREFETCHES:          0 PREFETCH ISSUED TO LOWER LEVEL:          0  ACCURACY: -nan
PSCL4 TIMELY PREFETCHES:          0 LATE PREFETCHES: 0 DROPPED PREFETCHES: 0
PSCL4 PREFETCHES SAME FILL-ORIGIN LEVEL: 0 DIFFERENT FILL-ORIGIN LEVEL: 0

PSCL3 TOTAL     ACCESS:       8309  HIT:       8303  MISS:          6  HIT %:    99.9278  MISS %:  0.0722109   MPKI: 0.00012
PSCL3 LOAD TRANSLATION ACCESS:       8308  HIT:       8302  MISS:          6  HIT %:    99.9278  MISS %:  0.0722195   MPKI: 0.00012
PSCL3 TRANSLATION FROM L1D PREFETCHER ACCESS:          1  HIT:          1  MISS:          0  HIT %:        100  MISS %:          0   MPKI: 0
PSCL3 PREFETCH  REQUESTED:          0  ISSUED:          0  USEFUL:          0  USELESS:          0
PSCL3 USEFUL LOAD PREFETCHES:          0 PREFETCH ISSUED TO LOWER LEVEL:          0  ACCURACY: -nan
PSCL3 TIMELY PREFETCHES:          0 LATE PREFETCHES: 0 DROPPED PREFETCHES: 0
PSCL3 PREFETCHES SAME FILL-ORIGIN LEVEL: 0 DIFFERENT FILL-ORIGIN LEVEL: 0

PSCL2 TOTAL     ACCESS:       8332  HIT:       8153  MISS:        179  HIT %:    97.8517  MISS %:    2.14834   MPKI: 0.00358
PSCL2 LOAD TRANSLATION ACCESS:       8331  HIT:       8152  MISS:        179  HIT %:    97.8514  MISS %:     2.1486   MPKI: 0.00358
PSCL2 TRANSLATION FROM L1D PREFETCHER ACCESS:          1  HIT:          1  MISS:          0  HIT %:        100  MISS %:          0   MPKI: 0
PSCL2 PREFETCH  REQUESTED:          0  ISSUED:          0  USEFUL:          0  USELESS:          0
PSCL2 USEFUL LOAD PREFETCHES:          0 PREFETCH ISSUED TO LOWER LEVEL:          0  ACCURACY: -nan
PSCL2 TIMELY PREFETCHES:          0 LATE PREFETCHES: 0 DROPPED PREFETCHES: 0
PSCL2 PREFETCHES SAME FILL-ORIGIN LEVEL: 0 DIFFERENT FILL-ORIGIN LEVEL: 0

LLC TOTAL     ACCESS:     314343  HIT:     265305  MISS:      49038  HIT %:    84.3998  MISS %:    15.6002   MPKI: 0.98076
LLC LOAD      ACCESS:     119047  HIT:     113570  MISS:       5477  HIT %:    95.3993  MISS %:     4.6007   MPKI: 0.10954
LLC RFO       ACCESS:      69720  HIT:      39058  MISS:      30662  HIT %:    56.0212  MISS %:    43.9788   MPKI: 0.61324
LLC PREFETCH  ACCESS:      45422  HIT:      32876  MISS:      12546  HIT %:     72.379  MISS %:     27.621   MPKI: 0.25092
LLC WRITEBACK ACCESS:      78612  HIT:      78529  MISS:         83  HIT %:    99.8944  MISS %:   0.105582   MPKI: 0.00166
LLC LOAD TRANSLATION ACCESS:       1542  HIT:       1272  MISS:        270  HIT %:    82.4903  MISS %:    17.5097   MPKI: 0.0054
LLC PREFETCH  REQUESTED:          0  ISSUED:          0  USEFUL:        619  USELESS:      10079
LLC USEFUL LOAD PREFETCHES:        619 PREFETCH ISSUED TO LOWER LEVEL:      12546  ACCURACY: 4.93384
LLC TIMELY PREFETCHES:        619 LATE PREFETCHES: 0 DROPPED PREFETCHES: 0
LLC PREFETCHES SAME FILL-ORIGIN LEVEL: 0 DIFFERENT FILL-ORIGIN LEVEL: 0
LLC AVERAGE MISS LATENCY: 505.56 cycles
LLC RQ	ACCESS:     190309	FORWARD:          0	MERGED:          0	TO_CACHE:     190309
LLC WQ	ACCESS:      78612	FORWARD:          0	MERGED:          0	TO_CACHE:      78612
LLC PQ	ACCESS:      45422	FORWARD:          0	MERGED:          0	TO_CACHE:      45422

LLC Dense regions hint to LLC: 0

RAW hits: 1459030
Loads Generated: 13142955
Loads sent to L1D: 11683923
Stores Generated: 6853201
Stores sent to L1D: 6853195
Major fault: 0 Minor fault: 2277
Allocated PAGES: 2277

stream: 
stream:times selected: 664986
stream:pref_filled: 32680
stream:pref_useful: 13464
stream:pref_late: 731
stream:misses: 3450
stream:misses_by_poll: 0

CS: 
CS:times selected: 97842
CS:pref_filled: 25532
CS:pref_useful: 20883
CS:pref_late: 402
CS:misses: 2456
CS:misses_by_poll: 15

CPLX: 
CPLX:times selected: 562930
CPLX:pref_filled: 17984
CPLX:pref_useful: 4220
CPLX:pref_late: 84
CPLX:misses: 14906
CPLX:misses_by_poll: 30

NL_L1: 
NL:times selected: 8107
NL:pref_filled: 292
NL:pref_useful: 147
NL:pref_late: 5
NL:misses: 233
NL:misses_by_poll: 0

total selections: 1333865
total_filled: 62653
total_useful: 31512
total_late: 1231
total_polluted: 45
total_misses_after_warmup: 119892
conflicts: 2206958
Degree Incremented Times: 3021
Degree Decremented Times: 30212

L1 IP Table Write Accesses: 4770324
L1 IP Table Read Accesses: 2563366
L1 RST Write Accesses: 556045
L1 RST Read Accesses: 1112090
L1 CSPT Write Accesses: 556045
L1 CSPT Read Accesses: 1027805
L1 RR Filter Tag Write Accesses: 312588
L1 RR Filter Tag Read Accesses: 24984414
L1 IP Table Tag Write Accesses: 7423738
L1 IP Table Tag Read Accesses: 7423738
L1 RST Tag Write Accesses: 0
L1 RST Tag Read Accesses: 5752895
L1 RR Filter Write Accesses: 0
L1 RR Filter Read Accesses: 967281
test: 147043
L2 IP Table Read Accesses: 272799
L2 IP Table Write Accesses: 274626
L2 IP Table Tag Read Accesses: 170853
L2 IP Table Tag Write Accesses: 170853

DRAM Statistics
 CHANNEL 0
 RQ ROW_BUFFER_HIT:      24288  ROW_BUFFER_MISS:      24666
 DBUS_CONGESTED:      45687
 WQ ROW_BUFFER_HIT:       5456  ROW_BUFFER_MISS:      18638  FULL:          0

 AVG_CONGESTED_CYCLE: 52
 All warmup complete: 2
Channel 0 Bank busy for read cycles: 0
Channel 0 Bank busy for write cycles: 0
Channel 0
Rank 0
0banks busy for read cycles: 70045979
0banks busy for write cycles: 7946
1banks busy for read cycles: 2183464
1banks busy for write cycles: 1118768
2banks busy for read cycles: 401562
2banks busy for write cycles: 275847
3banks busy for read cycles: 149357
3banks busy for write cycles: 134814
4banks busy for read cycles: 97343
4banks busy for write cycles: 91328
5banks busy for read cycles: 54887
5banks busy for write cycles: 68045
6banks busy for read cycles: 50324
6banks busy for write cycles: 71568
7banks busy for read cycles: 90009
7banks busy for write cycles: 94589
8banks busy for read cycles: 1058161
8banks busy for write cycles: 483309

CPU 0 Branch Prediction Accuracy: 94.7154% MPKI: 10.0037 Average ROB Occupancy at Mispredict: 32.2739
Branch types
NOT_BRANCH: 40534656 81.0693%
BRANCH_DIRECT_JUMP: 517874 1.03575%
BRANCH_INDIRECT: 114556 0.229112%
BRANCH_CONDITIONAL: 6668634 13.3373%
BRANCH_DIRECT_CALL: 959047 1.91809%
BRANCH_INDIRECT_CALL: 122815 0.24563%
BRANCH_RETURN: 1082080 2.16416%
BRANCH_OTHER: 0 0%

@sumon_overall_L1D     31512      1485     31122     62653    624452    624452
@Sumon_Early_by_class_L1D     10746     16793      3524         4
@Sumon_Late_by_class_L1D       676       382        76         4

@Sumon_Early_by_cycle_L1D      7305      3876      1429      1357      1087      3161      4637      1890      2126      2033      1686       925
@Sumon_Late_by_cycle_L1D      1127        15         5         0         0         0         0         0         0         0         0         0
@Sumon_Early_stream_L1D      1852       946       885       485       507      1488       625       908      1207      1125       350       368
@Sumon_Early_CS_L1D      4971      2759       370       616       343      1310      3790       596       534       361       934       209
@Sumon_Early_CPLX_L1D       387       127       142       235       219       317       209       372       375       474       347       320
@Sumon_Late_stream_L1D       662         9         5         0         0         0         0         0         0         0         0         0
@Sumon_Late_CS_L1D       380         2         0         0         0         0         0         0         0         0         0         0
@Sumon_Late_CPLX_L1D        74         2         0         0         0         0         0         0         0         0         0         0
@sumon_overall_L2C      7436       228     39201     45194    122789    122789
@Sumon_Early_by_class_L2C       680      1879       549         0
@Sumon_Late_by_class_L2C         0         5         0         0

@Sumon_Early_by_cycle_L2C       804       672       394       257       165       418       311       359       330       451       247      3028
@Sumon_Late_by_cycle_L2C       203        23         2         0         0         0         0         0         0         0         0         0
@Sumon_Early_stream_L2C         0         0         0         0         0         0         0         0         1         2        13       664
@Sumon_Early_CS_L2C       306       288        38        18        71       115       128        73       100       160        27       555
@Sumon_Early_CPLX_L2C         0         0         0         0         0         0         0         0         0         2        11       536
@Sumon_Late_stream_L2C         0         0         0         0         0         0         0         0         0         0         0         0
@Sumon_Late_CS_L2C         2         2         1         0         0         0         0         0         0         0         0         0
@Sumon_Late_CPLX_L2C         0         0         0         0         0         0         0         0         0         0         0         0
DRAM PAGES: 1048576
Allocated PAGES: 2277
