
*** ChampSim Multicore Out-of-Order Simulator ***

Warmup Instructions: 10000000
Simulation Instructions: 50000000
Number of CPUs: 1
LLC sets: 2048
LLC ways: 16
Off-chip DRAM Size: 4096 MB Channels: 1 Width: 64-bit Data Rate: 533 MT/s
CPU 0 runs traces/clientserver/client_007.champsimtrace.xz
.xz
CPU 0 Bimodal branch predictor
BTB has LRU replacement policy
ITLB has LRU replacement policy
DTLB has LRU replacement policy
STLB has LRU replacement policy
L1I has LRU replacement policy
IP Table Entries: 256
L1D has LRU replacement policy
IP_Table L2 entries: 256
L2C has LRU replacement policy
LLC has LRU replacement policy
Heartbeat CPU 0 instructions: 10000003 cycles: 3031837 heartbeat IPC: 3.29833 cumulative IPC: 3.29833 (Simulation time: 0 hr 19 min 44 sec) 

Warmup complete CPU 0 instructions: 10000003 cycles: 3031837 (Simulation time: 0 hr 19 min 44 sec) 

Heartbeat CPU 0 instructions: 20000003 cycles: 20355339 heartbeat IPC: 0.57725 cumulative IPC: 0.57725 (Simulation time: 0 hr 36 min 58 sec) 
Heartbeat CPU 0 instructions: 30000000 cycles: 36588720 heartbeat IPC: 0.616014 cumulative IPC: 0.596003 (Simulation time: 0 hr 55 min 45 sec) 
Heartbeat CPU 0 instructions: 40000003 cycles: 53220429 heartbeat IPC: 0.601261 cumulative IPC: 0.597745 (Simulation time: 1 hr 15 min 54 sec) 
Heartbeat CPU 0 instructions: 50000001 cycles: 70607911 heartbeat IPC: 0.575126 cumulative IPC: 0.591925 (Simulation time: 1 hr 33 min 50 sec) 
Heartbeat CPU 0 instructions: 60000003 cycles: 86563380 heartbeat IPC: 0.626744 cumulative IPC: 0.598576 (Simulation time: 1 hr 47 min 8 sec) 
Finished CPU 0 instructions: 50000000 cycles: 83531543 cumulative IPC: 0.598576 (Simulation time: 1 hr 47 min 8 sec) 

ChampSim completed all CPUs

Region of Interest Statistics

CPU 0 cumulative IPC: 0.598576 instructions: 50000000 cycles: 83531543
ITLB TOTAL     ACCESS:    8189920  HIT:    8038579  MISS:     151341  HIT %:    98.1521  MISS %:    1.84789   MPKI: 3.02682
ITLB LOAD TRANSLATION ACCESS:    8189920  HIT:    8038579  MISS:     151341  HIT %:    98.1521  MISS %:    1.84789   MPKI: 3.02682
ITLB PREFETCH  REQUESTED:          0  ISSUED:          0  USEFUL:          0  USELESS:          0
ITLB USEFUL LOAD PREFETCHES:          0 PREFETCH ISSUED TO LOWER LEVEL:          0  ACCURACY: -nan
ITLB TIMELY PREFETCHES:          0 LATE PREFETCHES: 0 DROPPED PREFETCHES: 0
ITLB PREFETCHES SAME FILL-ORIGIN LEVEL: 0 DIFFERENT FILL-ORIGIN LEVEL: 0
ITLB AVERAGE MISS LATENCY: 9.92399 cycles
ITLB RQ	ACCESS:    9762092	FORWARD:          0	MERGED:    1546670	TO_CACHE:    8215422

DTLB TOTAL     ACCESS:   13058981  HIT:   12735923  MISS:     323058  HIT %:    97.5262  MISS %:    2.47384   MPKI: 6.46116
DTLB LOAD TRANSLATION ACCESS:   13058981  HIT:   12735923  MISS:     323058  HIT %:    97.5262  MISS %:    2.47384   MPKI: 6.46116
DTLB PREFETCH  REQUESTED:          0  ISSUED:          0  USEFUL:          0  USELESS:          0
DTLB USEFUL LOAD PREFETCHES:          0 PREFETCH ISSUED TO LOWER LEVEL:          0  ACCURACY: -nan
DTLB TIMELY PREFETCHES:          0 LATE PREFETCHES: 0 DROPPED PREFETCHES: 0
DTLB PREFETCHES SAME FILL-ORIGIN LEVEL: 0 DIFFERENT FILL-ORIGIN LEVEL: 0
DTLB AVERAGE MISS LATENCY: 10.6057 cycles
DTLB RQ	ACCESS:   15135728	FORWARD:          0	MERGED:    2062456	TO_CACHE:   13073272

STLB TOTAL     ACCESS:    1389599  HIT:    1385841  MISS:       3758  HIT %:    99.7296  MISS %:   0.270438   MPKI: 0.07516
STLB LOAD TRANSLATION ACCESS:     474399  HIT:     470641  MISS:       3758  HIT %:    99.2078  MISS %:    0.79216   MPKI: 0.07516
STLB TRANSLATION FROM L1D PREFETCHER ACCESS:     915200  HIT:     915200  MISS:          0  HIT %:        100  MISS %:          0   MPKI: 0
STLB PREFETCH  REQUESTED:          0  ISSUED:          0  USEFUL:          0  USELESS:          0
STLB USEFUL LOAD PREFETCHES:          0 PREFETCH ISSUED TO LOWER LEVEL:          0  ACCURACY: -nan
STLB TIMELY PREFETCHES:          0 LATE PREFETCHES: 0 DROPPED PREFETCHES: 0
STLB PREFETCHES SAME FILL-ORIGIN LEVEL: 0 DIFFERENT FILL-ORIGIN LEVEL: 0
STLB AVERAGE MISS LATENCY: 172.763 cycles
STLB RQ	ACCESS:    1796373	FORWARD:          0	MERGED:     406774	TO_CACHE:    1389599

STLB Hit, L1D data hit: 0
STLB Hit, L2C data hit: 0
STLB Hit, LLC data hit: 0
STLB Hit, LLC data miss: 0
STLB STLB hints to L2: 0
L1D TOTAL     ACCESS:   16254192  HIT:   15037975  MISS:    1216217  HIT %:    92.5175  MISS %:    7.48248   MPKI: 24.3243
L1D LOAD      ACCESS:   10916331  HIT:   10301912  MISS:     614419  HIT %:    94.3716  MISS %:    5.62844   MPKI: 12.2884
L1D RFO       ACCESS:    4046700  HIT:    3952206  MISS:      94494  HIT %:    97.6649  MISS %:    2.33509   MPKI: 1.88988
L1D PREFETCH  ACCESS:    1291161  HIT:     783857  MISS:     507304  HIT %:    60.7095  MISS %:    39.2905   MPKI: 10.1461
L1D PREFETCH  REQUESTED:    2644919  ISSUED:    2644143  USEFUL:     167972  USELESS:     339193
L1D USEFUL LOAD PREFETCHES:     167972 PREFETCH ISSUED TO LOWER LEVEL:     507693  ACCURACY: 33.0853
L1D TIMELY PREFETCHES:     167972 LATE PREFETCHES: 14469 DROPPED PREFETCHES: 0
L1D PREFETCHES SAME FILL-ORIGIN LEVEL: 507693 DIFFERENT FILL-ORIGIN LEVEL: 0
L1D AVERAGE MISS LATENCY: 11589.6 cycles
L1D RQ	ACCESS:   14212956	FORWARD:          0	MERGED:    3175939	TO_CACHE:   10960027
L1D WQ	ACCESS:    4262314	FORWARD:      77184	MERGED:      86613	TO_CACHE:    4175701
L1D PQ	ACCESS:    1322169	FORWARD:          0	MERGED:          1	TO_CACHE:    1321974

L1D UNIQUE REGIONS ACCESSED: 0
L1D REGIONS CONFLICTS: 0
L1D Cross Page Prefetch Requests: 0
L1D Same Page Prefetch Requests: 1535043
L1D ROI Sum of L1D PQ occupancy: 18093130
L1D PREFETCHES PUSHED FROM L2C: 0
L1I TOTAL     ACCESS:    9431479  HIT:    8501693  MISS:     929786  HIT %:    90.1417  MISS %:    9.85833   MPKI: 18.5957
L1I LOAD      ACCESS:    9431479  HIT:    8501693  MISS:     929786  HIT %:    90.1417  MISS %:    9.85833   MPKI: 18.5957
L1I PREFETCH  REQUESTED:          0  ISSUED:          0  USEFUL:          0  USELESS:          0
L1I USEFUL LOAD PREFETCHES:          0 PREFETCH ISSUED TO LOWER LEVEL:          0  ACCURACY: -nan
L1I TIMELY PREFETCHES:          0 LATE PREFETCHES: 0 DROPPED PREFETCHES: 0
L1I PREFETCHES SAME FILL-ORIGIN LEVEL: 0 DIFFERENT FILL-ORIGIN LEVEL: 0
L1I AVERAGE MISS LATENCY: 16.6044 cycles
L1I RQ	ACCESS:   14296840	FORWARD:          0	MERGED:    4534748	TO_CACHE:    9762092

BTB TOTAL     ACCESS:    6697829  HIT:    6283948  MISS:     413881  HIT %:    93.8207  MISS %:    6.17933   MPKI: 8.27762
BTB BRANCH_DIRECT_JUMP	ACCESS:     755928  HIT:     751742  MISS:       4186
BTB BRANCH_INDIRECT	ACCESS:     348209  HIT:     188037  MISS:     160172
BTB BRANCH_CONDITIONAL	ACCESS:    4185151  HIT:    4172629  MISS:      12522
BTB BRANCH_DIRECT_CALL	ACCESS:     451943  HIT:     445427  MISS:       6516
BTB BRANCH_INDIRECT_CALL	ACCESS:     241100  HIT:     182621  MISS:      58479
BTB BRANCH_RETURN	ACCESS:     715498  HIT:     543492  MISS:     172006
BTB BRANCH_OTHER ACCESS:          0  HIT:          0  MISS:          0

L2C TOTAL     ACCESS:    2883865  HIT:    2678431  MISS:     205434  HIT %:    92.8764  MISS %:    7.12357   MPKI: 4.10868
L2C LOAD      ACCESS:    1544142  HIT:    1467192  MISS:      76950  HIT %:    95.0167  MISS %:    4.98335   MPKI: 1.539
L2C DATA LOAD MPKI: 1.25106
L2C INSTRUCTION LOAD MPKI: 0.28794
L2C RFO       ACCESS:      94112  HIT:      56754  MISS:      37358  HIT %:    60.3047  MISS %:    39.6953   MPKI: 0.74716
L2C PREFETCH  ACCESS:     938043  HIT:     848739  MISS:      89304  HIT %:    90.4798  MISS %:    9.52025   MPKI: 1.78608
L2C DATA PREFETCH MPKI: 1.78608
L2C INSTRUCTION PREFETCH MPKI: 0
L2C WRITEBACK ACCESS:     303611  HIT:     303418  MISS:        193  HIT %:    99.9364  MISS %:  0.0635682   MPKI: 0.00386
L2C LOAD TRANSLATION ACCESS:       3957  HIT:       2328  MISS:       1629  HIT %:    58.8324  MISS %:    41.1676   MPKI: 0.03258
L2C PREFETCH  REQUESTED:     507004  ISSUED:     507000  USEFUL:      16458  USELESS:      71364
L2C USEFUL LOAD PREFETCHES:      16458 PREFETCH ISSUED TO LOWER LEVEL:      90185  ACCURACY: 18.2492
L2C TIMELY PREFETCHES:      16458 LATE PREFETCHES: 881 DROPPED PREFETCHES: 0
L2C PREFETCHES SAME FILL-ORIGIN LEVEL: 24999 DIFFERENT FILL-ORIGIN LEVEL: 0
L2C AVERAGE MISS LATENCY: 167.514 cycles
L2C RQ	ACCESS:    1642278	FORWARD:          0	MERGED:          0	TO_CACHE:    1642211
L2C WQ	ACCESS:     303611	FORWARD:         78	MERGED:          0	TO_CACHE:     303611
L2C PQ	ACCESS:    1014682	FORWARD:          0	MERGED:      71262	TO_CACHE:     943409

L2C Instructions Evicting Data 12275
L2C Translations Evicting Data 1458
L2C Data Evicting Data 175524
L2C Instructions Evicting Instructions 1962
L2C Translations Evicting Instructions 148
L2C Data Evicting Instructions 12310
L2C Instructions Evicting Translations 160
L2C Translations Evicting Translations 23
L2C Data Evicting Translations 1381
L2C Dense regions hint from L2: 0
PSCL5 TOTAL     ACCESS:       3758  HIT:       3758  MISS:          0  HIT %:        100  MISS %:          0   MPKI: 0
PSCL5 LOAD TRANSLATION ACCESS:       3758  HIT:       3758  MISS:          0  HIT %:        100  MISS %:          0   MPKI: 0
PSCL5 PREFETCH  REQUESTED:          0  ISSUED:          0  USEFUL:          0  USELESS:          0
PSCL5 USEFUL LOAD PREFETCHES:          0 PREFETCH ISSUED TO LOWER LEVEL:          0  ACCURACY: -nan
PSCL5 TIMELY PREFETCHES:          0 LATE PREFETCHES: 0 DROPPED PREFETCHES: 0
PSCL5 PREFETCHES SAME FILL-ORIGIN LEVEL: 0 DIFFERENT FILL-ORIGIN LEVEL: 0

PSCL4 TOTAL     ACCESS:       3709  HIT:       3704  MISS:          5  HIT %:    99.8652  MISS %:   0.134807   MPKI: 0.0001
PSCL4 LOAD TRANSLATION ACCESS:       3709  HIT:       3704  MISS:          5  HIT %:    99.8652  MISS %:   0.134807   MPKI: 0.0001
PSCL4 PREFETCH  REQUESTED:          0  ISSUED:          0  USEFUL:          0  USELESS:          0
PSCL4 USEFUL LOAD PREFETCHES:          0 PREFETCH ISSUED TO LOWER LEVEL:          0  ACCURACY: -nan
PSCL4 TIMELY PREFETCHES:          0 LATE PREFETCHES: 0 DROPPED PREFETCHES: 0
PSCL4 PREFETCHES SAME FILL-ORIGIN LEVEL: 0 DIFFERENT FILL-ORIGIN LEVEL: 0

PSCL3 TOTAL     ACCESS:       3744  HIT:       3732  MISS:         12  HIT %:    99.6795  MISS %:   0.320513   MPKI: 0.00024
PSCL3 LOAD TRANSLATION ACCESS:       3744  HIT:       3732  MISS:         12  HIT %:    99.6795  MISS %:   0.320513   MPKI: 0.00024
PSCL3 PREFETCH  REQUESTED:          0  ISSUED:          0  USEFUL:          0  USELESS:          0
PSCL3 USEFUL LOAD PREFETCHES:          0 PREFETCH ISSUED TO LOWER LEVEL:          0  ACCURACY: -nan
PSCL3 TIMELY PREFETCHES:          0 LATE PREFETCHES: 0 DROPPED PREFETCHES: 0
PSCL3 PREFETCHES SAME FILL-ORIGIN LEVEL: 0 DIFFERENT FILL-ORIGIN LEVEL: 0

PSCL2 TOTAL     ACCESS:       3758  HIT:       3573  MISS:        185  HIT %:    95.0772  MISS %:    4.92283   MPKI: 0.0037
PSCL2 LOAD TRANSLATION ACCESS:       3758  HIT:       3573  MISS:        185  HIT %:    95.0772  MISS %:    4.92283   MPKI: 0.0037
PSCL2 PREFETCH  REQUESTED:          0  ISSUED:          0  USEFUL:          0  USELESS:          0
PSCL2 USEFUL LOAD PREFETCHES:          0 PREFETCH ISSUED TO LOWER LEVEL:          0  ACCURACY: -nan
PSCL2 TIMELY PREFETCHES:          0 LATE PREFETCHES: 0 DROPPED PREFETCHES: 0
PSCL2 PREFETCHES SAME FILL-ORIGIN LEVEL: 0 DIFFERENT FILL-ORIGIN LEVEL: 0

LLC TOTAL     ACCESS:     272643  HIT:     170018  MISS:     102625  HIT %:    62.3592  MISS %:    37.6408   MPKI: 2.0525
LLC LOAD      ACCESS:      76102  HIT:      44812  MISS:      31290  HIT %:    58.8841  MISS %:    41.1159   MPKI: 0.6258
LLC RFO       ACCESS:      37325  HIT:       5723  MISS:      31602  HIT %:    15.3329  MISS %:    84.6671   MPKI: 0.63204
LLC PREFETCH  ACCESS:      90184  HIT:      51921  MISS:      38263  HIT %:    57.5723  MISS %:    42.4277   MPKI: 0.76526
LLC WRITEBACK ACCESS:      67403  HIT:      67249  MISS:        154  HIT %:    99.7715  MISS %:   0.228476   MPKI: 0.00308
LLC LOAD TRANSLATION ACCESS:       1629  HIT:        313  MISS:       1316  HIT %:    19.2142  MISS %:    80.7858   MPKI: 0.02632
LLC PREFETCH  REQUESTED:          0  ISSUED:          0  USEFUL:       5222  USELESS:      26364
LLC USEFUL LOAD PREFETCHES:       5222 PREFETCH ISSUED TO LOWER LEVEL:      38263  ACCURACY: 13.6476
LLC TIMELY PREFETCHES:       5222 LATE PREFETCHES: 0 DROPPED PREFETCHES: 0
LLC PREFETCHES SAME FILL-ORIGIN LEVEL: 0 DIFFERENT FILL-ORIGIN LEVEL: 0
LLC AVERAGE MISS LATENCY: 276.194 cycles
LLC RQ	ACCESS:     115056	FORWARD:          0	MERGED:          0	TO_CACHE:     115056
LLC WQ	ACCESS:      67403	FORWARD:          1	MERGED:          0	TO_CACHE:      67403
LLC PQ	ACCESS:      90185	FORWARD:          0	MERGED:          0	TO_CACHE:      90184

LLC Dense regions hint to LLC: 0

RAW hits: 728134
Loads Generated: 14941095
Loads sent to L1D: 14212956
Stores Generated: 4262313
Stores sent to L1D: 4262314
Major fault: 0 Minor fault: 3373
Allocated PAGES: 3373

stream: 
stream:times selected: 1733928
stream:pref_filled: 327433
stream:pref_useful: 65456
stream:pref_late: 5522
stream:misses: 47268
stream:misses_by_poll: 0

CS: 
CS:times selected: 204308
CS:pref_filled: 124742
CS:pref_useful: 100923
CS:pref_late: 4723
CS:misses: 14952
CS:misses_by_poll: 43

CPLX: 
CPLX:times selected: 1521757
CPLX:pref_filled: 105029
CPLX:pref_useful: 19052
CPLX:pref_late: 3132
CPLX:misses: 198494
CPLX:misses_by_poll: 175

NL_L1: 
NL:times selected: 9872
NL:pref_filled: 2109
NL:pref_useful: 475
NL:pref_late: 32
NL:misses: 1679
NL:misses_by_poll: 0

total selections: 3469865
total_filled: 507304
total_useful: 167972
total_late: 13492
total_polluted: 218
total_misses_after_warmup: 658115
conflicts: 1944444
Degree Incremented Times: 23824
Degree Decremented Times: 163437

L1 IP Table Write Accesses: 8142651
L1 IP Table Read Accesses: 6198207
L1 RST Write Accesses: 1480133
L1 RST Read Accesses: 2960266
L1 CSPT Write Accesses: 1480133
L1 CSPT Read Accesses: 2762245
L1 RR Filter Tag Write Accesses: 1322945
L1 RR Filter Tag Read Accesses: 67805211
L1 IP Table Tag Write Accesses: 10960027
L1 IP Table Tag Read Accesses: 10960027
L1 RST Tag Write Accesses: 0
L1 RST Tag Read Accesses: 13501671
L1 RR Filter Write Accesses: 0
L1 RR Filter Read Accesses: 2458601
test: 581809
L2 IP Table Read Accesses: 1923926
L2 IP Table Write Accesses: 1779259
L2 IP Table Tag Read Accesses: 1100614
L2 IP Table Tag Write Accesses: 1100614

DRAM Statistics
 CHANNEL 0
 RQ ROW_BUFFER_HIT:      18308  ROW_BUFFER_MISS:      84162
 DBUS_CONGESTED:      93015
 WQ ROW_BUFFER_HIT:      15402  ROW_BUFFER_MISS:      46953  FULL:          0

 AVG_CONGESTED_CYCLE: 48
 All warmup complete: 2
Channel 0 Bank busy for read cycles: 0
Channel 0 Bank busy for write cycles: 0
Channel 0
Rank 0
0banks busy for read cycles: 67011476
0banks busy for write cycles: 20020
1banks busy for read cycles: 5975402
1banks busy for write cycles: 2748007
2banks busy for read cycles: 2050225
2banks busy for write cycles: 816566
3banks busy for read cycles: 795605
3banks busy for write cycles: 486802
4banks busy for read cycles: 431053
4banks busy for write cycles: 360278
5banks busy for read cycles: 241158
5banks busy for write cycles: 290438
6banks busy for read cycles: 175006
6banks busy for write cycles: 286012
7banks busy for read cycles: 153650
7banks busy for write cycles: 371407
8banks busy for read cycles: 200222
8banks busy for write cycles: 1118217

CPU 0 Branch Prediction Accuracy: 95.4787% MPKI: 8.10268 Average ROB Occupancy at Mispredict: 46.1769
Branch types
NOT_BRANCH: 41039511 82.079%
BRANCH_DIRECT_JUMP: 755928 1.51186%
BRANCH_INDIRECT: 348209 0.696418%
BRANCH_CONDITIONAL: 6447952 12.8959%
BRANCH_DIRECT_CALL: 451943 0.903886%
BRANCH_INDIRECT_CALL: 241100 0.4822%
BRANCH_RETURN: 715498 1.431%
BRANCH_OTHER: 0 0%

@sumon_overall_L1D    167972     14469    339193    507304   2644143   2644919
@Sumon_Early_by_class_L1D     54212     96630     15652        22
@Sumon_Late_by_class_L1D      4759      4702      3061        22

@Sumon_Early_by_cycle_L1D     74930     37569     10227     12270      3025      9529      5255      5754      3650      3430      1481       852
@Sumon_Late_by_cycle_L1D     11272       558       344       174        83       164        17         1         0         0         0         0
@Sumon_Early_stream_L1D     25830      6871      4263      2944      1094      4265      1987      1891      1976      1757       822       512
@Sumon_Early_CS_L1D     44413     27660      4422      8794      1394      3685      2373      2713       589       435        93        59
@Sumon_Early_CPLX_L1D      4297      2825      1282       467       494      1447       815      1076      1002      1131       540       276
@Sumon_Late_stream_L1D      4062       361       174        99        28        35         0         0         0         0         0         0
@Sumon_Late_CS_L1D      4128       170       147        70        50       119        17         1         0         0         0         0
@Sumon_Late_CPLX_L1D      3003        19        20         4         5        10         0         0         0         0         0         0
@sumon_overall_L2C     16458       881     71364     89304    507000    507004
@Sumon_Early_by_class_L2C      5298      2514      2353         0
@Sumon_Late_by_class_L2C         0       214         0         0

@Sumon_Early_by_cycle_L2C       719       526       529       247       248      1243       553       544       503      1239      1649      8458
@Sumon_Late_by_cycle_L2C       553       232        51        24        11        10         0         0         0         0         0         0
@Sumon_Early_stream_L2C         0         0         0         0         0         0         7        19        58       243       669      4302
@Sumon_Early_CS_L2C       133       112       143        72        87       209       129       116       134       136       197      1046
@Sumon_Early_CPLX_L2C         0         0         0         0         0         0         0         6        22       107       287      1931
@Sumon_Late_stream_L2C         0         0         0         0         0         0         0         0         0         0         0         0
@Sumon_Late_CS_L2C        70        73        32        19        11         9         0         0         0         0         0         0
@Sumon_Late_CPLX_L2C         0         0         0         0         0         0         0         0         0         0         0         0
DRAM PAGES: 1048576
Allocated PAGES: 3373
