
*** ChampSim Multicore Out-of-Order Simulator ***

Warmup Instructions: 10000000
Simulation Instructions: 50000000
Number of CPUs: 1
LLC sets: 2048
LLC ways: 16
Off-chip DRAM Size: 4096 MB Channels: 1 Width: 64-bit Data Rate: 533 MT/s
CPU 0 runs traces/clientserver/client_003.champsimtrace.xz
.xz
CPU 0 Bimodal branch predictor
BTB has LRU replacement policy
ITLB has LRU replacement policy
DTLB has LRU replacement policy
STLB has LRU replacement policy
L1I has LRU replacement policy
IP Table Entries: 256
L1D has LRU replacement policy
IP_Table L2 entries: 256
L2C has LRU replacement policy
LLC has LRU replacement policy
Heartbeat CPU 0 instructions: 10000000 cycles: 2803237 heartbeat IPC: 3.5673 cumulative IPC: 3.5673 (Simulation time: 0 hr 18 min 30 sec) 

Warmup complete CPU 0 instructions: 10000004 cycles: 2803238 (Simulation time: 0 hr 18 min 30 sec) 

Heartbeat CPU 0 instructions: 20000000 cycles: 20911002 heartbeat IPC: 0.552249 cumulative IPC: 0.552249 (Simulation time: 0 hr 35 min 28 sec) 
Heartbeat CPU 0 instructions: 30000000 cycles: 36210661 heartbeat IPC: 0.653609 cumulative IPC: 0.598669 (Simulation time: 0 hr 53 min 30 sec) 
Heartbeat CPU 0 instructions: 40000000 cycles: 50969339 heartbeat IPC: 0.677567 cumulative IPC: 0.622845 (Simulation time: 1 hr 10 min 59 sec) 
Heartbeat CPU 0 instructions: 50000003 cycles: 65233905 heartbeat IPC: 0.701038 cumulative IPC: 0.640711 (Simulation time: 1 hr 28 min 17 sec) 
Heartbeat CPU 0 instructions: 60000002 cycles: 79933636 heartbeat IPC: 0.680285 cumulative IPC: 0.648253 (Simulation time: 1 hr 43 min 40 sec) 
Finished CPU 0 instructions: 50000001 cycles: 77130400 cumulative IPC: 0.648253 (Simulation time: 1 hr 43 min 40 sec) 

ChampSim completed all CPUs

Region of Interest Statistics

CPU 0 cumulative IPC: 0.648253 instructions: 50000001 cycles: 77130400
ITLB TOTAL     ACCESS:    8475097  HIT:    8403699  MISS:      71398  HIT %:    99.1576  MISS %:   0.842445   MPKI: 1.42796
ITLB LOAD TRANSLATION ACCESS:    8475097  HIT:    8403699  MISS:      71398  HIT %:    99.1576  MISS %:   0.842445   MPKI: 1.42796
ITLB PREFETCH  REQUESTED:          0  ISSUED:          0  USEFUL:          0  USELESS:          0
ITLB USEFUL LOAD PREFETCHES:          0 PREFETCH ISSUED TO LOWER LEVEL:          0  ACCURACY: -nan
ITLB TIMELY PREFETCHES:          0 LATE PREFETCHES: 0 DROPPED PREFETCHES: 0
ITLB PREFETCHES SAME FILL-ORIGIN LEVEL: 0 DIFFERENT FILL-ORIGIN LEVEL: 0
ITLB AVERAGE MISS LATENCY: 10.001 cycles
ITLB RQ	ACCESS:   10052339	FORWARD:          0	MERGED:    1556956	TO_CACHE:    8495383

DTLB TOTAL     ACCESS:   10993676  HIT:   10873456  MISS:     120220  HIT %:    98.9065  MISS %:    1.09354   MPKI: 2.4044
DTLB LOAD TRANSLATION ACCESS:   10993676  HIT:   10873456  MISS:     120220  HIT %:    98.9065  MISS %:    1.09354   MPKI: 2.4044
DTLB PREFETCH  REQUESTED:          0  ISSUED:          0  USEFUL:          0  USELESS:          0
DTLB USEFUL LOAD PREFETCHES:          0 PREFETCH ISSUED TO LOWER LEVEL:          0  ACCURACY: -nan
DTLB TIMELY PREFETCHES:          0 LATE PREFETCHES: 0 DROPPED PREFETCHES: 0
DTLB PREFETCHES SAME FILL-ORIGIN LEVEL: 0 DIFFERENT FILL-ORIGIN LEVEL: 0
DTLB AVERAGE MISS LATENCY: 10.4152 cycles
DTLB RQ	ACCESS:   15105294	FORWARD:          0	MERGED:    4103325	TO_CACHE:   11001969

STLB TOTAL     ACCESS:     490444  HIT:     488672  MISS:       1772  HIT %:    99.6387  MISS %:   0.361305   MPKI: 0.03544
STLB LOAD TRANSLATION ACCESS:     191618  HIT:     189846  MISS:       1772  HIT %:    99.0752  MISS %:   0.924757   MPKI: 0.03544
STLB TRANSLATION FROM L1D PREFETCHER ACCESS:     298826  HIT:     298826  MISS:          0  HIT %:        100  MISS %:          0   MPKI: 0
STLB PREFETCH  REQUESTED:          0  ISSUED:          0  USEFUL:          0  USELESS:          0
STLB USEFUL LOAD PREFETCHES:          0 PREFETCH ISSUED TO LOWER LEVEL:          0  ACCURACY: -nan
STLB TIMELY PREFETCHES:          0 LATE PREFETCHES: 0 DROPPED PREFETCHES: 0
STLB PREFETCHES SAME FILL-ORIGIN LEVEL: 0 DIFFERENT FILL-ORIGIN LEVEL: 0
STLB AVERAGE MISS LATENCY: 133.667 cycles
STLB RQ	ACCESS:     564907	FORWARD:          0	MERGED:      74463	TO_CACHE:     490444

STLB Hit, L1D data hit: 0
STLB Hit, L2C data hit: 0
STLB Hit, LLC data hit: 0
STLB Hit, LLC data miss: 0
STLB STLB hints to L2: 0
L1D TOTAL     ACCESS:   15119323  HIT:   14769863  MISS:     349460  HIT %:    97.6887  MISS %:    2.31135   MPKI: 6.9892
L1D LOAD      ACCESS:    7420608  HIT:    7300189  MISS:     120419  HIT %:    98.3772  MISS %:    1.62276   MPKI: 2.40838
L1D RFO       ACCESS:    7329635  HIT:    7174139  MISS:     155496  HIT %:    97.8785  MISS %:    2.12147   MPKI: 3.10992
L1D PREFETCH  ACCESS:     369080  HIT:     295535  MISS:      73545  HIT %:    80.0734  MISS %:    19.9266   MPKI: 1.4709
L1D PREFETCH  REQUESTED:     747240  ISSUED:     747237  USEFUL:      21826  USELESS:      51682
L1D USEFUL LOAD PREFETCHES:      21826 PREFETCH ISSUED TO LOWER LEVEL:      73728  ACCURACY: 29.6034
L1D TIMELY PREFETCHES:      21826 LATE PREFETCHES: 5844 DROPPED PREFETCHES: 0
L1D PREFETCHES SAME FILL-ORIGIN LEVEL: 73728 DIFFERENT FILL-ORIGIN LEVEL: 0
L1D AVERAGE MISS LATENCY: 19542 cycles
L1D RQ	ACCESS:   12008981	FORWARD:          0	MERGED:    4395702	TO_CACHE:    7437332
L1D WQ	ACCESS:    7811254	FORWARD:     176606	MERGED:     143292	TO_CACHE:    7667962
L1D PQ	ACCESS:     373948	FORWARD:          0	MERGED:          0	TO_CACHE:     373289

L1D UNIQUE REGIONS ACCESSED: 0
L1D REGIONS CONFLICTS: 0
L1D Cross Page Prefetch Requests: 0
L1D Same Page Prefetch Requests: 445019
L1D ROI Sum of L1D PQ occupancy: 5045456
L1D PREFETCHES PUSHED FROM L2C: 0
L1I TOTAL     ACCESS:    9924881  HIT:    9389766  MISS:     535115  HIT %:    94.6083  MISS %:    5.39165   MPKI: 10.7023
L1I LOAD      ACCESS:    9924881  HIT:    9389766  MISS:     535115  HIT %:    94.6083  MISS %:    5.39165   MPKI: 10.7023
L1I PREFETCH  REQUESTED:          0  ISSUED:          0  USEFUL:          0  USELESS:          0
L1I USEFUL LOAD PREFETCHES:          0 PREFETCH ISSUED TO LOWER LEVEL:          0  ACCURACY: -nan
L1I TIMELY PREFETCHES:          0 LATE PREFETCHES: 0 DROPPED PREFETCHES: 0
L1I PREFETCHES SAME FILL-ORIGIN LEVEL: 0 DIFFERENT FILL-ORIGIN LEVEL: 0
L1I AVERAGE MISS LATENCY: 23.6637 cycles
L1I RQ	ACCESS:   14768265	FORWARD:          0	MERGED:    4715926	TO_CACHE:   10052339

BTB TOTAL     ACCESS:    6766808  HIT:    6169221  MISS:     597587  HIT %:    91.1688  MISS %:    8.83115   MPKI: 11.9517
BTB BRANCH_DIRECT_JUMP	ACCESS:     494781  HIT:     477302  MISS:      17479
BTB BRANCH_INDIRECT	ACCESS:     114379  HIT:      50385  MISS:      63994
BTB BRANCH_CONDITIONAL	ACCESS:    3862756  HIT:    3810705  MISS:      52051
BTB BRANCH_DIRECT_CALL	ACCESS:     995377  HIT:     956807  MISS:      38570
BTB BRANCH_INDIRECT_CALL	ACCESS:     151743  HIT:     115162  MISS:      36581
BTB BRANCH_RETURN	ACCESS:    1147772  HIT:     758860  MISS:     388912
BTB BRANCH_OTHER ACCESS:          0  HIT:          0  MISS:          0

L2C TOTAL     ACCESS:    1138775  HIT:     867366  MISS:     271409  HIT %:    76.1666  MISS %:    23.8334   MPKI: 5.42818
L2C LOAD      ACCESS:     655532  HIT:     547214  MISS:     108318  HIT %:    83.4763  MISS %:    16.5237   MPKI: 2.16636
L2C DATA LOAD MPKI: 0.70244
L2C INSTRUCTION LOAD MPKI: 1.46392
L2C RFO       ACCESS:     155312  HIT:      40478  MISS:     114834  HIT %:    26.0624  MISS %:    73.9376   MPKI: 2.29668
L2C PREFETCH  ACCESS:     136960  HIT:      90949  MISS:      46011  HIT %:    66.4055  MISS %:    33.5945   MPKI: 0.92022
L2C DATA PREFETCH MPKI: 0.92022
L2C INSTRUCTION PREFETCH MPKI: 0
L2C WRITEBACK ACCESS:     189131  HIT:     187846  MISS:       1285  HIT %:    99.3206  MISS %:   0.679423   MPKI: 0.0257
L2C LOAD TRANSLATION ACCESS:       1840  HIT:        879  MISS:        961  HIT %:    47.7717  MISS %:    52.2283   MPKI: 0.01922
L2C PREFETCH  REQUESTED:      65417  ISSUED:      65417  USEFUL:      10103  USELESS:      35848
L2C USEFUL LOAD PREFETCHES:      10103 PREFETCH ISSUED TO LOWER LEVEL:      46307  ACCURACY: 21.8174
L2C TIMELY PREFETCHES:      10103 LATE PREFETCHES: 296 DROPPED PREFETCHES: 0
L2C PREFETCHES SAME FILL-ORIGIN LEVEL: 14747 DIFFERENT FILL-ORIGIN LEVEL: 0
L2C AVERAGE MISS LATENCY: 160.512 cycles
L2C RQ	ACCESS:     812687	FORWARD:          0	MERGED:          0	TO_CACHE:     812684
L2C WQ	ACCESS:     189131	FORWARD:          4	MERGED:          0	TO_CACHE:     189131
L2C PQ	ACCESS:     139145	FORWARD:          0	MERGED:       1288	TO_CACHE:     137856

L2C Instructions Evicting Data 47499
L2C Translations Evicting Data 668
L2C Data Evicting Data 147160
L2C Instructions Evicting Instructions 25383
L2C Translations Evicting Instructions 289
L2C Data Evicting Instructions 48141
L2C Instructions Evicting Translations 314
L2C Translations Evicting Translations 4
L2C Data Evicting Translations 666
L2C Dense regions hint from L2: 0
PSCL5 TOTAL     ACCESS:       1772  HIT:       1772  MISS:          0  HIT %:        100  MISS %:          0   MPKI: 0
PSCL5 LOAD TRANSLATION ACCESS:       1772  HIT:       1772  MISS:          0  HIT %:        100  MISS %:          0   MPKI: 0
PSCL5 PREFETCH  REQUESTED:          0  ISSUED:          0  USEFUL:          0  USELESS:          0
PSCL5 USEFUL LOAD PREFETCHES:          0 PREFETCH ISSUED TO LOWER LEVEL:          0  ACCURACY: -nan
PSCL5 TIMELY PREFETCHES:          0 LATE PREFETCHES: 0 DROPPED PREFETCHES: 0
PSCL5 PREFETCHES SAME FILL-ORIGIN LEVEL: 0 DIFFERENT FILL-ORIGIN LEVEL: 0

PSCL4 TOTAL     ACCESS:       1772  HIT:       1772  MISS:          0  HIT %:        100  MISS %:          0   MPKI: 0
PSCL4 LOAD TRANSLATION ACCESS:       1772  HIT:       1772  MISS:          0  HIT %:        100  MISS %:          0   MPKI: 0
PSCL4 PREFETCH  REQUESTED:          0  ISSUED:          0  USEFUL:          0  USELESS:          0
PSCL4 USEFUL LOAD PREFETCHES:          0 PREFETCH ISSUED TO LOWER LEVEL:          0  ACCURACY: -nan
PSCL4 TIMELY PREFETCHES:          0 LATE PREFETCHES: 0 DROPPED PREFETCHES: 0
PSCL4 PREFETCHES SAME FILL-ORIGIN LEVEL: 0 DIFFERENT FILL-ORIGIN LEVEL: 0

PSCL3 TOTAL     ACCESS:       1770  HIT:       1770  MISS:          0  HIT %:        100  MISS %:          0   MPKI: 0
PSCL3 LOAD TRANSLATION ACCESS:       1770  HIT:       1770  MISS:          0  HIT %:        100  MISS %:          0   MPKI: 0
PSCL3 PREFETCH  REQUESTED:          0  ISSUED:          0  USEFUL:          0  USELESS:          0
PSCL3 USEFUL LOAD PREFETCHES:          0 PREFETCH ISSUED TO LOWER LEVEL:          0  ACCURACY: -nan
PSCL3 TIMELY PREFETCHES:          0 LATE PREFETCHES: 0 DROPPED PREFETCHES: 0
PSCL3 PREFETCHES SAME FILL-ORIGIN LEVEL: 0 DIFFERENT FILL-ORIGIN LEVEL: 0

PSCL2 TOTAL     ACCESS:       1772  HIT:       1701  MISS:         71  HIT %:    95.9932  MISS %:    4.00677   MPKI: 0.00142
PSCL2 LOAD TRANSLATION ACCESS:       1772  HIT:       1701  MISS:         71  HIT %:    95.9932  MISS %:    4.00677   MPKI: 0.00142
PSCL2 PREFETCH  REQUESTED:          0  ISSUED:          0  USEFUL:          0  USELESS:          0
PSCL2 USEFUL LOAD PREFETCHES:          0 PREFETCH ISSUED TO LOWER LEVEL:          0  ACCURACY: -nan
PSCL2 TIMELY PREFETCHES:          0 LATE PREFETCHES: 0 DROPPED PREFETCHES: 0
PSCL2 PREFETCHES SAME FILL-ORIGIN LEVEL: 0 DIFFERENT FILL-ORIGIN LEVEL: 0

LLC TOTAL     ACCESS:     403854  HIT:     313731  MISS:      90123  HIT %:    77.6843  MISS %:    22.3157   MPKI: 1.80246
LLC LOAD      ACCESS:     108101  HIT:      85675  MISS:      22426  HIT %:    79.2546  MISS %:    20.7454   MPKI: 0.44852
LLC RFO       ACCESS:     114755  HIT:      59696  MISS:      55059  HIT %:    52.0204  MISS %:    47.9796   MPKI: 1.10118
LLC PREFETCH  ACCESS:      46307  HIT:      34338  MISS:      11969  HIT %:    74.1529  MISS %:    25.8471   MPKI: 0.23938
LLC WRITEBACK ACCESS:     133730  HIT:     133512  MISS:        218  HIT %:     99.837  MISS %:   0.163015   MPKI: 0.00436
LLC LOAD TRANSLATION ACCESS:        961  HIT:        510  MISS:        451  HIT %:    53.0697  MISS %:    46.9303   MPKI: 0.00902
LLC PREFETCH  REQUESTED:          0  ISSUED:          0  USEFUL:       2910  USELESS:       9540
LLC USEFUL LOAD PREFETCHES:       2910 PREFETCH ISSUED TO LOWER LEVEL:      11969  ACCURACY: 24.3128
LLC TIMELY PREFETCHES:       2910 LATE PREFETCHES: 0 DROPPED PREFETCHES: 0
LLC PREFETCHES SAME FILL-ORIGIN LEVEL: 0 DIFFERENT FILL-ORIGIN LEVEL: 0
LLC AVERAGE MISS LATENCY: 393.501 cycles
LLC RQ	ACCESS:     223817	FORWARD:          0	MERGED:          0	TO_CACHE:     223817
LLC WQ	ACCESS:     133730	FORWARD:          0	MERGED:          0	TO_CACHE:     133730
LLC PQ	ACCESS:      46307	FORWARD:          0	MERGED:          0	TO_CACHE:      46307

LLC Dense regions hint to LLC: 0

RAW hits: 1565875
Loads Generated: 13574857
Loads sent to L1D: 12008981
Stores Generated: 7811247
Stores sent to L1D: 7811254
Major fault: 0 Minor fault: 2338
Allocated PAGES: 2338

stream: 
stream:times selected: 675130
stream:pref_filled: 52167
stream:pref_useful: 14004
stream:pref_late: 1170
stream:misses: 5834
stream:misses_by_poll: 0

CS: 
CS:times selected: 49667
CS:pref_filled: 16033
CS:pref_useful: 9828
CS:pref_late: 1106
CS:misses: 5805
CS:misses_by_poll: 8

CPLX: 
CPLX:times selected: 622941
CPLX:pref_filled: 21367
CPLX:pref_useful: 3334
CPLX:pref_late: 102
CPLX:misses: 29773
CPLX:misses_by_poll: 29

NL_L1: 
NL:times selected: 6334
NL:pref_filled: 605
NL:pref_useful: 205
NL:pref_late: 25
NL:misses: 330
NL:misses_by_poll: 0

total selections: 1354072
total_filled: 73545
total_useful: 21826
total_late: 2453
total_polluted: 37
total_misses_after_warmup: 137141
conflicts: 2429653
Degree Incremented Times: 0
Degree Decremented Times: 111297

L1 IP Table Write Accesses: 4568199
L1 IP Table Read Accesses: 2138546
L1 RST Write Accesses: 574524
L1 RST Read Accesses: 1149048
L1 CSPT Write Accesses: 574524
L1 CSPT Read Accesses: 1108285
L1 RR Filter Tag Write Accesses: 373951
L1 RR Filter Tag Read Accesses: 21774533
L1 IP Table Tag Write Accesses: 7437330
L1 IP Table Tag Read Accesses: 7437330
L1 RST Tag Write Accesses: 0
L1 RST Tag Read Accesses: 5311929
L1 RR Filter Write Accesses: 0
L1 RR Filter Read Accesses: 831739
test: 181521
L2 IP Table Read Accesses: 319338
L2 IP Table Write Accesses: 305779
L2 IP Table Tag Read Accesses: 192970
L2 IP Table Tag Write Accesses: 192970

DRAM Statistics
 CHANNEL 0
 RQ ROW_BUFFER_HIT:      32489  ROW_BUFFER_MISS:      57406
 DBUS_CONGESTED:      90576
 WQ ROW_BUFFER_HIT:      15210  ROW_BUFFER_MISS:      44066  FULL:          0

 AVG_CONGESTED_CYCLE: 50
 All warmup complete: 2
Channel 0 Bank busy for read cycles: 0
Channel 0 Bank busy for write cycles: 0
Channel 0
Rank 0
0banks busy for read cycles: 62615292
0banks busy for write cycles: 19082
1banks busy for read cycles: 5074439
1banks busy for write cycles: 2625922
2banks busy for read cycles: 1202156
2banks busy for write cycles: 945091
3banks busy for read cycles: 297716
3banks busy for write cycles: 446796
4banks busy for read cycles: 169393
4banks busy for write cycles: 302377
5banks busy for read cycles: 89796
5banks busy for write cycles: 265160
6banks busy for read cycles: 76698
6banks busy for write cycles: 245246
7banks busy for read cycles: 143114
7banks busy for write cycles: 290234
8banks busy for read cycles: 1415088
8banks busy for write cycles: 906801

CPU 0 Branch Prediction Accuracy: 95.2436% MPKI: 8.774 Average ROB Occupancy at Mispredict: 38.0587
Branch types
NOT_BRANCH: 40776380 81.5528%
BRANCH_DIRECT_JUMP: 494781 0.989562%
BRANCH_INDIRECT: 114379 0.228758%
BRANCH_CONDITIONAL: 6319235 12.6385%
BRANCH_DIRECT_CALL: 995377 1.99075%
BRANCH_INDIRECT_CALL: 151743 0.303486%
BRANCH_RETURN: 1147772 2.29554%
BRANCH_OTHER: 0 0%

@sumon_overall_L1D     21826      5844     51682     73545    747237    747240
@Sumon_Early_by_class_L1D     11407      7098      2776        21
@Sumon_Late_by_class_L1D      1074      1085        98        21

@Sumon_Early_by_cycle_L1D      3951      2338      1441       749       651      2950      2816      1473      1227      1572      1341      1317
@Sumon_Late_by_cycle_L1D      1974       334        10         1         4         1         0         0         0         0         0         0
@Sumon_Early_stream_L1D      2814      1210       808       474       455      1409       827       713       638       918       606       535
@Sumon_Early_CS_L1D       676       937       472       162       114      1245      1715       427       233       173       419       525
@Sumon_Early_CPLX_L1D       310       156       131        92        71       253       227       277       306       431       294       228
@Sumon_Late_stream_L1D       924       142         5         0         2         1         0         0         0         0         0         0
@Sumon_Late_CS_L1D       917       163         2         1         2         0         0         0         0         0         0         0
@Sumon_Late_CPLX_L1D        82        13         3         0         0         0         0         0         0         0         0         0
@sumon_overall_L2C     10103       296     35848     46011     65417     65417
@Sumon_Early_by_class_L2C      3011      1392      1261         0
@Sumon_Late_by_class_L2C         0         0         0         0

@Sumon_Early_by_cycle_L2C       390       201       252       132       100       411       255       274       228       295       432      7133
@Sumon_Late_by_cycle_L2C       197        90         9         0         0         0         0         0         0         0         0         0
@Sumon_Early_stream_L2C         0         0         0         0         0         0         0         0         3        21       103      2884
@Sumon_Early_CS_L2C         0         0         0         0         0         0         0         0         0         4        66      1322
@Sumon_Early_CPLX_L2C         0         0         0         0         0         0         0         0         0        11        60      1190
@Sumon_Late_stream_L2C         0         0         0         0         0         0         0         0         0         0         0         0
@Sumon_Late_CS_L2C         0         0         0         0         0         0         0         0         0         0         0         0
@Sumon_Late_CPLX_L2C         0         0         0         0         0         0         0         0         0         0         0         0
DRAM PAGES: 1048576
Allocated PAGES: 2338
