
*** ChampSim Multicore Out-of-Order Simulator ***

Warmup Instructions: 10000000
Simulation Instructions: 50000000
Number of CPUs: 1
LLC sets: 2048
LLC ways: 16
Off-chip DRAM Size: 4096 MB Channels: 1 Width: 64-bit Data Rate: 533 MT/s
CPU 0 runs traces/clientserver/server_028.champsimtrace.xz
.xz
CPU 0 Bimodal branch predictor
BTB has LRU replacement policy
ITLB has LRU replacement policy
DTLB has LRU replacement policy
STLB has LRU replacement policy
L1I has LRU replacement policy
IP Table Entries: 256
L1D has LRU replacement policy
IP_Table L2 entries: 256
L2C has LRU replacement policy
LLC has LRU replacement policy
Heartbeat CPU 0 instructions: 10000001 cycles: 2888079 heartbeat IPC: 3.46251 cumulative IPC: 3.46251 (Simulation time: 0 hr 19 min 16 sec) 

Warmup complete CPU 0 instructions: 10000001 cycles: 2888079 (Simulation time: 0 hr 19 min 16 sec) 

Heartbeat CPU 0 instructions: 20000002 cycles: 28171714 heartbeat IPC: 0.395513 cumulative IPC: 0.395513 (Simulation time: 0 hr 37 min 37 sec) 
Heartbeat CPU 0 instructions: 30000002 cycles: 53478494 heartbeat IPC: 0.395151 cumulative IPC: 0.395332 (Simulation time: 0 hr 55 min 58 sec) 
Heartbeat CPU 0 instructions: 40000000 cycles: 78862301 heartbeat IPC: 0.393952 cumulative IPC: 0.394871 (Simulation time: 1 hr 14 min 0 sec) 
Heartbeat CPU 0 instructions: 50000001 cycles: 104111815 heartbeat IPC: 0.396047 cumulative IPC: 0.395164 (Simulation time: 1 hr 32 min 3 sec) 
Heartbeat CPU 0 instructions: 60000000 cycles: 129365750 heartbeat IPC: 0.395978 cumulative IPC: 0.395327 (Simulation time: 1 hr 46 min 34 sec) 
Finished CPU 0 instructions: 50000001 cycles: 126477672 cumulative IPC: 0.395327 (Simulation time: 1 hr 46 min 34 sec) 

ChampSim completed all CPUs

Region of Interest Statistics

CPU 0 cumulative IPC: 0.395327 instructions: 50000001 cycles: 126477672
ITLB TOTAL     ACCESS:    8712397  HIT:    8180444  MISS:     531953  HIT %:    93.8943  MISS %:     6.1057   MPKI: 10.6391
ITLB LOAD TRANSLATION ACCESS:    8712397  HIT:    8180444  MISS:     531953  HIT %:    93.8943  MISS %:     6.1057   MPKI: 10.6391
ITLB PREFETCH  REQUESTED:          0  ISSUED:          0  USEFUL:          0  USELESS:          0
ITLB USEFUL LOAD PREFETCHES:          0 PREFETCH ISSUED TO LOWER LEVEL:          0  ACCURACY: -nan
ITLB TIMELY PREFETCHES:          0 LATE PREFETCHES: 0 DROPPED PREFETCHES: 0
ITLB PREFETCHES SAME FILL-ORIGIN LEVEL: 0 DIFFERENT FILL-ORIGIN LEVEL: 0
ITLB AVERAGE MISS LATENCY: 9.35844 cycles
ITLB RQ	ACCESS:   10376581	FORWARD:          0	MERGED:    1527313	TO_CACHE:    8849268

DTLB TOTAL     ACCESS:   12233259  HIT:   11690731  MISS:     542528  HIT %:    95.5651  MISS %:    4.43486   MPKI: 10.8506
DTLB LOAD TRANSLATION ACCESS:   12233259  HIT:   11690731  MISS:     542528  HIT %:    95.5651  MISS %:    4.43486   MPKI: 10.8506
DTLB PREFETCH  REQUESTED:          0  ISSUED:          0  USEFUL:          0  USELESS:          0
DTLB USEFUL LOAD PREFETCHES:          0 PREFETCH ISSUED TO LOWER LEVEL:          0  ACCURACY: -nan
DTLB TIMELY PREFETCHES:          0 LATE PREFETCHES: 0 DROPPED PREFETCHES: 0
DTLB PREFETCHES SAME FILL-ORIGIN LEVEL: 0 DIFFERENT FILL-ORIGIN LEVEL: 0
DTLB AVERAGE MISS LATENCY: 12.532 cycles
DTLB RQ	ACCESS:   15353595	FORWARD:          0	MERGED:    3101377	TO_CACHE:   12252218

STLB TOTAL     ACCESS:    1602529  HIT:    1582329  MISS:      20200  HIT %:    98.7395  MISS %:    1.26051   MPKI: 0.404
STLB LOAD TRANSLATION ACCESS:    1074481  HIT:    1054281  MISS:      20200  HIT %:      98.12  MISS %:    1.87998   MPKI: 0.404
STLB TRANSLATION FROM L1D PREFETCHER ACCESS:     528048  HIT:     528048  MISS:          0  HIT %:        100  MISS %:          0   MPKI: 0
STLB PREFETCH  REQUESTED:          0  ISSUED:          0  USEFUL:          0  USELESS:          0
STLB USEFUL LOAD PREFETCHES:          0 PREFETCH ISSUED TO LOWER LEVEL:          0  ACCURACY: -nan
STLB TIMELY PREFETCHES:          0 LATE PREFETCHES: 0 DROPPED PREFETCHES: 0
STLB PREFETCHES SAME FILL-ORIGIN LEVEL: 0 DIFFERENT FILL-ORIGIN LEVEL: 0
STLB AVERAGE MISS LATENCY: 103.593 cycles
STLB RQ	ACCESS:    1981456	FORWARD:          0	MERGED:     378927	TO_CACHE:    1602529

STLB Hit, L1D data hit: 0
STLB Hit, L2C data hit: 0
STLB Hit, LLC data hit: 0
STLB Hit, LLC data miss: 0
STLB STLB hints to L2: 0
L1D TOTAL     ACCESS:   15675575  HIT:   13927460  MISS:    1748115  HIT %:    88.8482  MISS %:    11.1518   MPKI: 34.9623
L1D LOAD      ACCESS:    8529922  HIT:    7656011  MISS:     873911  HIT %:    89.7548  MISS %:    10.2452   MPKI: 17.4782
L1D RFO       ACCESS:    6263438  HIT:    5960199  MISS:     303239  HIT %:    95.1586  MISS %:    4.84141   MPKI: 6.06478
L1D PREFETCH  ACCESS:     882215  HIT:     311250  MISS:     570965  HIT %:    35.2805  MISS %:    64.7195   MPKI: 11.4193
L1D PREFETCH  REQUESTED:    1814169  ISSUED:    1814153  USEFUL:     263042  USELESS:     307944
L1D USEFUL LOAD PREFETCHES:     263042 PREFETCH ISSUED TO LOWER LEVEL:     571079  ACCURACY: 46.0605
L1D TIMELY PREFETCHES:     263042 LATE PREFETCHES: 58967 DROPPED PREFETCHES: 0
L1D PREFETCHES SAME FILL-ORIGIN LEVEL: 571079 DIFFERENT FILL-ORIGIN LEVEL: 0
L1D AVERAGE MISS LATENCY: 3983.49 cycles
L1D RQ	ACCESS:   11731491	FORWARD:          0	MERGED:    2981140	TO_CACHE:    8634506
L1D WQ	ACCESS:    6762627	FORWARD:     116048	MERGED:      43538	TO_CACHE:    6719089
L1D PQ	ACCESS:     907178	FORWARD:          0	MERGED:          0	TO_CACHE:     906975

L1D UNIQUE REGIONS ACCESSED: 0
L1D REGIONS CONFLICTS: 0
L1D Cross Page Prefetch Requests: 0
L1D Same Page Prefetch Requests: 1077140
L1D ROI Sum of L1D PQ occupancy: 11685585
L1D PREFETCHES PUSHED FROM L2C: 0
L1I TOTAL     ACCESS:    9849831  HIT:    6963464  MISS:    2886367  HIT %:    70.6963  MISS %:    29.3037   MPKI: 57.7273
L1I LOAD      ACCESS:    9849831  HIT:    6963464  MISS:    2886367  HIT %:    70.6963  MISS %:    29.3037   MPKI: 57.7273
L1I PREFETCH  REQUESTED:          0  ISSUED:          0  USEFUL:          0  USELESS:          0
L1I USEFUL LOAD PREFETCHES:          0 PREFETCH ISSUED TO LOWER LEVEL:          0  ACCURACY: -nan
L1I TIMELY PREFETCHES:          0 LATE PREFETCHES: 0 DROPPED PREFETCHES: 0
L1I PREFETCHES SAME FILL-ORIGIN LEVEL: 0 DIFFERENT FILL-ORIGIN LEVEL: 0
L1I AVERAGE MISS LATENCY: 18.0795 cycles
L1I RQ	ACCESS:   13995326	FORWARD:          0	MERGED:    3618745	TO_CACHE:   10376581

BTB TOTAL     ACCESS:    6128313  HIT:    4315808  MISS:    1812505  HIT %:    70.4241  MISS %:    29.5759   MPKI: 36.2501
BTB BRANCH_DIRECT_JUMP	ACCESS:     522169  HIT:     376870  MISS:     145299
BTB BRANCH_INDIRECT	ACCESS:     166479  HIT:     131760  MISS:      34719
BTB BRANCH_CONDITIONAL	ACCESS:    3081708  HIT:    2589088  MISS:     492620
BTB BRANCH_DIRECT_CALL	ACCESS:     991455  HIT:     639816  MISS:     351639
BTB BRANCH_INDIRECT_CALL	ACCESS:     187516  HIT:     119653  MISS:      67863
BTB BRANCH_RETURN	ACCESS:    1178986  HIT:     458621  MISS:     720365
BTB BRANCH_OTHER ACCESS:          0  HIT:          0  MISS:          0

L2C TOTAL     ACCESS:    6215699  HIT:    5340052  MISS:     875647  HIT %:    85.9123  MISS %:    14.0877   MPKI: 17.5129
L2C LOAD      ACCESS:    3760276  HIT:    3240402  MISS:     519874  HIT %:    86.1746  MISS %:    13.8254   MPKI: 10.3975
L2C DATA LOAD MPKI: 2.90192
L2C INSTRUCTION LOAD MPKI: 7.49556
L2C RFO       ACCESS:     303125  HIT:     237466  MISS:      65659  HIT %:    78.3393  MISS %:    21.6607   MPKI: 1.31318
L2C PREFETCH  ACCESS:    1523589  HIT:    1251047  MISS:     272542  HIT %:    82.1118  MISS %:    17.8882   MPKI: 5.45084
L2C DATA PREFETCH MPKI: 5.45084
L2C INSTRUCTION PREFETCH MPKI: 0
L2C WRITEBACK ACCESS:     599839  HIT:     595477  MISS:       4362  HIT %:    99.2728  MISS %:   0.727195   MPKI: 0.08724
L2C LOAD TRANSLATION ACCESS:      28870  HIT:      15660  MISS:      13210  HIT %:    54.2432  MISS %:    45.7568   MPKI: 0.2642
L2C PREFETCH  REQUESTED:    1018204  ISSUED:    1018204  USEFUL:      27890  USELESS:     244585
L2C USEFUL LOAD PREFETCHES:      27890 PREFETCH ISSUED TO LOWER LEVEL:     278392  ACCURACY: 10.0182
L2C TIMELY PREFETCHES:      27890 LATE PREFETCHES: 5850 DROPPED PREFETCHES: 0
L2C PREFETCHES SAME FILL-ORIGIN LEVEL: 121886 DIFFERENT FILL-ORIGIN LEVEL: 0
L2C AVERAGE MISS LATENCY: 53.7687 cycles
L2C RQ	ACCESS:    4092274	FORWARD:          0	MERGED:          0	TO_CACHE:    4092272
L2C WQ	ACCESS:     599839	FORWARD:         14	MERGED:          0	TO_CACHE:     599839
L2C PQ	ACCESS:    1589283	FORWARD:          0	MERGED:      46047	TO_CACHE:    1543224

L2C Instructions Evicting Data 176923
L2C Translations Evicting Data 9474
L2C Data Evicting Data 298721
L2C Instructions Evicting Instructions 194399
L2C Translations Evicting Instructions 3253
L2C Data Evicting Instructions 175343
L2C Instructions Evicting Translations 3456
L2C Translations Evicting Translations 483
L2C Data Evicting Translations 9233
L2C Dense regions hint from L2: 0
PSCL5 TOTAL     ACCESS:      20200  HIT:      20200  MISS:          0  HIT %:        100  MISS %:          0   MPKI: 0
PSCL5 LOAD TRANSLATION ACCESS:      20200  HIT:      20200  MISS:          0  HIT %:        100  MISS %:          0   MPKI: 0
PSCL5 PREFETCH  REQUESTED:          0  ISSUED:          0  USEFUL:          0  USELESS:          0
PSCL5 USEFUL LOAD PREFETCHES:          0 PREFETCH ISSUED TO LOWER LEVEL:          0  ACCURACY: -nan
PSCL5 TIMELY PREFETCHES:          0 LATE PREFETCHES: 0 DROPPED PREFETCHES: 0
PSCL5 PREFETCHES SAME FILL-ORIGIN LEVEL: 0 DIFFERENT FILL-ORIGIN LEVEL: 0

PSCL4 TOTAL     ACCESS:      19724  HIT:      19544  MISS:        180  HIT %:    99.0874  MISS %:   0.912594   MPKI: 0.0036
PSCL4 LOAD TRANSLATION ACCESS:      19724  HIT:      19544  MISS:        180  HIT %:    99.0874  MISS %:   0.912594   MPKI: 0.0036
PSCL4 PREFETCH  REQUESTED:          0  ISSUED:          0  USEFUL:          0  USELESS:          0
PSCL4 USEFUL LOAD PREFETCHES:          0 PREFETCH ISSUED TO LOWER LEVEL:          0  ACCURACY: -nan
PSCL4 TIMELY PREFETCHES:          0 LATE PREFETCHES: 0 DROPPED PREFETCHES: 0
PSCL4 PREFETCHES SAME FILL-ORIGIN LEVEL: 0 DIFFERENT FILL-ORIGIN LEVEL: 0

PSCL3 TOTAL     ACCESS:      20136  HIT:      19955  MISS:        181  HIT %:    99.1011  MISS %:   0.898888   MPKI: 0.00362
PSCL3 LOAD TRANSLATION ACCESS:      20136  HIT:      19955  MISS:        181  HIT %:    99.1011  MISS %:   0.898888   MPKI: 0.00362
PSCL3 PREFETCH  REQUESTED:          0  ISSUED:          0  USEFUL:          0  USELESS:          0
PSCL3 USEFUL LOAD PREFETCHES:          0 PREFETCH ISSUED TO LOWER LEVEL:          0  ACCURACY: -nan
PSCL3 TIMELY PREFETCHES:          0 LATE PREFETCHES: 0 DROPPED PREFETCHES: 0
PSCL3 PREFETCHES SAME FILL-ORIGIN LEVEL: 0 DIFFERENT FILL-ORIGIN LEVEL: 0

PSCL2 TOTAL     ACCESS:      20200  HIT:      11884  MISS:       8316  HIT %:    58.8317  MISS %:    41.1683   MPKI: 0.16632
PSCL2 LOAD TRANSLATION ACCESS:      20200  HIT:      11884  MISS:       8316  HIT %:    58.8317  MISS %:    41.1683   MPKI: 0.16632
PSCL2 PREFETCH  REQUESTED:          0  ISSUED:          0  USEFUL:          0  USELESS:          0
PSCL2 USEFUL LOAD PREFETCHES:          0 PREFETCH ISSUED TO LOWER LEVEL:          0  ACCURACY: -nan
PSCL2 TIMELY PREFETCHES:          0 LATE PREFETCHES: 0 DROPPED PREFETCHES: 0
PSCL2 PREFETCHES SAME FILL-ORIGIN LEVEL: 0 DIFFERENT FILL-ORIGIN LEVEL: 0

LLC TOTAL     ACCESS:     994519  HIT:     917204  MISS:      77315  HIT %:    92.2259  MISS %:    7.77411   MPKI: 1.5463
LLC LOAD      ACCESS:     514195  HIT:     495952  MISS:      18243  HIT %:    96.4521  MISS %:    3.54788   MPKI: 0.36486
LLC RFO       ACCESS:      65479  HIT:      62833  MISS:       2646  HIT %:     95.959  MISS %:    4.04099   MPKI: 0.05292
LLC PREFETCH  ACCESS:     278392  HIT:     225439  MISS:      52953  HIT %:     80.979  MISS %:     19.021   MPKI: 1.05906
LLC WRITEBACK ACCESS:     123243  HIT:     122890  MISS:        353  HIT %:    99.7136  MISS %:   0.286426   MPKI: 0.00706
LLC LOAD TRANSLATION ACCESS:      13210  HIT:      10090  MISS:       3120  HIT %:    76.3815  MISS %:    23.6185   MPKI: 0.0624
LLC PREFETCH  REQUESTED:          0  ISSUED:          0  USEFUL:       2123  USELESS:      48149
LLC USEFUL LOAD PREFETCHES:       2123 PREFETCH ISSUED TO LOWER LEVEL:      52953  ACCURACY: 4.00922
LLC TIMELY PREFETCHES:       2123 LATE PREFETCHES: 0 DROPPED PREFETCHES: 0
LLC PREFETCHES SAME FILL-ORIGIN LEVEL: 0 DIFFERENT FILL-ORIGIN LEVEL: 0
LLC AVERAGE MISS LATENCY: 272.158 cycles
LLC RQ	ACCESS:     592893	FORWARD:          0	MERGED:          0	TO_CACHE:     592884
LLC WQ	ACCESS:     123243	FORWARD:          9	MERGED:          0	TO_CACHE:     123243
LLC PQ	ACCESS:     278392	FORWARD:          0	MERGED:          0	TO_CACHE:     278392

LLC Dense regions hint to LLC: 0

RAW hits: 559058
Loads Generated: 12290549
Loads sent to L1D: 11731491
Stores Generated: 6762620
Stores sent to L1D: 6762627
Major fault: 0 Minor fault: 5563
Allocated PAGES: 5563

stream: 
stream:times selected: 1052838
stream:pref_filled: 143663
stream:pref_useful: 27254
stream:pref_late: 22097
stream:misses: 14072
stream:misses_by_poll: 0

CS: 
CS:times selected: 164929
CS:pref_filled: 120697
CS:pref_useful: 98331
CS:pref_late: 6884
CS:misses: 18607
CS:misses_by_poll: 86

CPLX: 
CPLX:times selected: 885330
CPLX:pref_filled: 405263
CPLX:pref_useful: 186158
CPLX:pref_late: 26697
CPLX:misses: 131209
CPLX:misses_by_poll: 478

NL_L1: 
NL:times selected: 2152
NL:pref_filled: 343
NL:pref_useful: 20
NL:pref_late: 9
NL:misses: 107
NL:misses_by_poll: 0

total selections: 2105249
total_filled: 570965
total_useful: 263042
total_late: 55981
total_polluted: 564
total_misses_after_warmup: 978496
conflicts: 3262937
Degree Incremented Times: 21168
Degree Decremented Times: 119806

L1 IP Table Write Accesses: 5095383
L1 IP Table Read Accesses: 1832446
L1 RST Write Accesses: 876809
L1 RST Read Accesses: 1753618
L1 CSPT Write Accesses: 876809
L1 CSPT Read Accesses: 2929576
L1 RR Filter Tag Write Accesses: 907194
L1 RR Filter Tag Read Accesses: 69586613
L1 IP Table Tag Write Accesses: 8634507
L1 IP Table Tag Read Accesses: 8634507
L1 RST Tag Write Accesses: 0
L1 RST Tag Read Accesses: 6782927
L1 RR Filter Write Accesses: 0
L1 RR Filter Read Accesses: 2458503
test: 169442
L2 IP Table Read Accesses: 2073495
L2 IP Table Write Accesses: 2602616
L2 IP Table Tag Read Accesses: 1419712
L2 IP Table Tag Write Accesses: 1419712

DRAM Statistics
 CHANNEL 0
 RQ ROW_BUFFER_HIT:      23052  ROW_BUFFER_MISS:      53910
 DBUS_CONGESTED:      55114
 WQ ROW_BUFFER_HIT:        619  ROW_BUFFER_MISS:       2349  FULL:          0

 AVG_CONGESTED_CYCLE: 49
 All warmup complete: 2
Channel 0 Bank busy for read cycles: 0
Channel 0 Bank busy for write cycles: 0
Channel 0
Rank 0
0banks busy for read cycles: 120061825
0banks busy for write cycles: 1686
1banks busy for read cycles: 2058533
1banks busy for write cycles: 293424
2banks busy for read cycles: 1327046
2banks busy for write cycles: 98358
3banks busy for read cycles: 836910
3banks busy for write cycles: 47862
4banks busy for read cycles: 633375
4banks busy for write cycles: 20051
5banks busy for read cycles: 433190
5banks busy for write cycles: 8705
6banks busy for read cycles: 278909
6banks busy for write cycles: 3299
7banks busy for read cycles: 161298
7banks busy for write cycles: 1092
8banks busy for read cycles: 209437
8banks busy for write cycles: 2673

CPU 0 Branch Prediction Accuracy: 92.2315% MPKI: 14.6258 Average ROB Occupancy at Mispredict: 19.349
Branch types
NOT_BRANCH: 40586087 81.1722%
BRANCH_DIRECT_JUMP: 522169 1.04434%
BRANCH_INDIRECT: 166479 0.332958%
BRANCH_CONDITIONAL: 6366960 12.7339%
BRANCH_DIRECT_CALL: 991455 1.98291%
BRANCH_INDIRECT_CALL: 187516 0.375032%
BRANCH_RETURN: 1178986 2.35797%
BRANCH_OTHER: 0 0%

@sumon_overall_L1D    263042     58967    307944    570965   1814153   1814169
@Sumon_Early_by_class_L1D     21894     90071    149198         5
@Sumon_Late_by_class_L1D     20988      6514     23336         5

@Sumon_Early_by_cycle_L1D    228396      7181      3848      5369       399      3440      1525      1960      6589      3853       477         5
@Sumon_Late_by_cycle_L1D     46094      2363      2229       366        56         7         0         0         0         0         0         0
@Sumon_Early_stream_L1D      7437      3218      1456      3463       262      1437       775       959      1703      1149        33         2
@Sumon_Early_CS_L1D     87623      1364       874       119         0         0         0         0        31        60         0         0
@Sumon_Early_CPLX_L1D    132665      2505      1468      1756       110      1984       586       999      4089      2590       443         3
@Sumon_Late_stream_L1D     20133       454       372        27         2         0         0         0         0         0         0         0
@Sumon_Late_CS_L1D      2903      1565      1678       307        54         7         0         0         0         0         0         0
@Sumon_Late_CPLX_L1D     22817       314       173        32         0         0         0         0         0         0         0         0
@sumon_overall_L2C     27890      5850    244585    272542   1018204   1018204
@Sumon_Early_by_class_L2C      2411       180      1844         0
@Sumon_Late_by_class_L2C         0       106         0         0

@Sumon_Early_by_cycle_L2C      5623      2390      2597      1782      1642      2650      1411      2513       307      1179      2913      2883
@Sumon_Late_by_cycle_L2C      5110       660        71         7         2         0         0         0         0         0         0         0
@Sumon_Early_stream_L2C         0         0         0         0         0         0         0         0         0       265      1483       663
@Sumon_Early_CS_L2C        24         6         7         1         0         0         0         3         2         0        18       119
@Sumon_Early_CPLX_L2C         0         0         0         0         0         0         0         0         0        82       671      1091
@Sumon_Late_stream_L2C         0         0         0         0         0         0         0         0         0         0         0         0
@Sumon_Late_CS_L2C        54         6        39         5         2         0         0         0         0         0         0         0
@Sumon_Late_CPLX_L2C         0         0         0         0         0         0         0         0         0         0         0         0
DRAM PAGES: 1048576
Allocated PAGES: 5563
