
*** ChampSim Multicore Out-of-Order Simulator ***

Warmup Instructions: 10000000
Simulation Instructions: 50000000
Number of CPUs: 1
LLC sets: 2048
LLC ways: 16
Off-chip DRAM Size: 4096 MB Channels: 1 Width: 64-bit Data Rate: 533 MT/s
CPU 0 runs traces/clientserver/server_027.champsimtrace.xz
.xz
CPU 0 Bimodal branch predictor
BTB has LRU replacement policy
ITLB has LRU replacement policy
DTLB has LRU replacement policy
STLB has LRU replacement policy
L1I has LRU replacement policy
IP Table Entries: 256
L1D has LRU replacement policy
IP_Table L2 entries: 256
L2C has LRU replacement policy
LLC has LRU replacement policy
Heartbeat CPU 0 instructions: 10000000 cycles: 2885978 heartbeat IPC: 3.46503 cumulative IPC: 3.46503 (Simulation time: 0 hr 19 min 41 sec) 

Warmup complete CPU 0 instructions: 10000004 cycles: 2885979 (Simulation time: 0 hr 19 min 41 sec) 

Heartbeat CPU 0 instructions: 20000001 cycles: 28174066 heartbeat IPC: 0.395443 cumulative IPC: 0.395443 (Simulation time: 0 hr 37 min 53 sec) 
Heartbeat CPU 0 instructions: 30000001 cycles: 53277930 heartbeat IPC: 0.398345 cumulative IPC: 0.396889 (Simulation time: 0 hr 55 min 35 sec) 
Heartbeat CPU 0 instructions: 40000001 cycles: 78451408 heartbeat IPC: 0.397243 cumulative IPC: 0.397007 (Simulation time: 1 hr 13 min 25 sec) 
Heartbeat CPU 0 instructions: 50000000 cycles: 103542771 heartbeat IPC: 0.398543 cumulative IPC: 0.39739 (Simulation time: 1 hr 31 min 5 sec) 
Heartbeat CPU 0 instructions: 60000002 cycles: 128821959 heartbeat IPC: 0.395582 cumulative IPC: 0.397027 (Simulation time: 1 hr 46 min 7 sec) 
Finished CPU 0 instructions: 50000001 cycles: 125935986 cumulative IPC: 0.397027 (Simulation time: 1 hr 46 min 7 sec) 

ChampSim completed all CPUs

Region of Interest Statistics

CPU 0 cumulative IPC: 0.397027 instructions: 50000001 cycles: 125935986
ITLB TOTAL     ACCESS:    8424895  HIT:    7934075  MISS:     490820  HIT %:    94.1742  MISS %:    5.82583   MPKI: 9.8164
ITLB LOAD TRANSLATION ACCESS:    8424895  HIT:    7934075  MISS:     490820  HIT %:    94.1742  MISS %:    5.82583   MPKI: 9.8164
ITLB PREFETCH  REQUESTED:          0  ISSUED:          0  USEFUL:          0  USELESS:          0
ITLB USEFUL LOAD PREFETCHES:          0 PREFETCH ISSUED TO LOWER LEVEL:          0  ACCURACY: -nan
ITLB TIMELY PREFETCHES:          0 LATE PREFETCHES: 0 DROPPED PREFETCHES: 0
ITLB PREFETCHES SAME FILL-ORIGIN LEVEL: 0 DIFFERENT FILL-ORIGIN LEVEL: 0
ITLB AVERAGE MISS LATENCY: 9.06377 cycles
ITLB RQ	ACCESS:   10060893	FORWARD:          0	MERGED:    1512364	TO_CACHE:    8548529

DTLB TOTAL     ACCESS:   12625636  HIT:   12150367  MISS:     475269  HIT %:    96.2357  MISS %:    3.76432   MPKI: 9.50538
DTLB LOAD TRANSLATION ACCESS:   12625636  HIT:   12150367  MISS:     475269  HIT %:    96.2357  MISS %:    3.76432   MPKI: 9.50538
DTLB PREFETCH  REQUESTED:          0  ISSUED:          0  USEFUL:          0  USELESS:          0
DTLB USEFUL LOAD PREFETCHES:          0 PREFETCH ISSUED TO LOWER LEVEL:          0  ACCURACY: -nan
DTLB TIMELY PREFETCHES:          0 LATE PREFETCHES: 0 DROPPED PREFETCHES: 0
DTLB PREFETCHES SAME FILL-ORIGIN LEVEL: 0 DIFFERENT FILL-ORIGIN LEVEL: 0
DTLB AVERAGE MISS LATENCY: 9.41673 cycles
DTLB RQ	ACCESS:   15744368	FORWARD:          0	MERGED:    3098560	TO_CACHE:   12645808

STLB TOTAL     ACCESS:    1384799  HIT:    1382489  MISS:       2310  HIT %:    99.8332  MISS %:   0.166811   MPKI: 0.0462
STLB LOAD TRANSLATION ACCESS:     966089  HIT:     963779  MISS:       2310  HIT %:    99.7609  MISS %:   0.239108   MPKI: 0.0462
STLB TRANSLATION FROM L1D PREFETCHER ACCESS:     418710  HIT:     418710  MISS:          0  HIT %:        100  MISS %:          0   MPKI: 0
STLB PREFETCH  REQUESTED:          0  ISSUED:          0  USEFUL:          0  USELESS:          0
STLB USEFUL LOAD PREFETCHES:          0 PREFETCH ISSUED TO LOWER LEVEL:          0  ACCURACY: -nan
STLB TIMELY PREFETCHES:          0 LATE PREFETCHES: 0 DROPPED PREFETCHES: 0
STLB PREFETCHES SAME FILL-ORIGIN LEVEL: 0 DIFFERENT FILL-ORIGIN LEVEL: 0
STLB AVERAGE MISS LATENCY: 95.3355 cycles
STLB RQ	ACCESS:    1499822	FORWARD:          0	MERGED:     115023	TO_CACHE:    1384799

STLB Hit, L1D data hit: 0
STLB Hit, L2C data hit: 0
STLB Hit, LLC data hit: 0
STLB Hit, LLC data miss: 0
STLB STLB hints to L2: 0
L1D TOTAL     ACCESS:   15746704  HIT:   14590131  MISS:    1156573  HIT %:    92.6551  MISS %:    7.34486   MPKI: 23.1315
L1D LOAD      ACCESS:    8791576  HIT:    8096875  MISS:     694701  HIT %:    92.0981  MISS %:    7.90189   MPKI: 13.894
L1D RFO       ACCESS:    6437711  HIT:    6143209  MISS:     294502  HIT %:    95.4254  MISS %:    4.57464   MPKI: 5.89004
L1D PREFETCH  ACCESS:     517417  HIT:     350047  MISS:     167370  HIT %:    67.6528  MISS %:    32.3472   MPKI: 3.3474
L1D PREFETCH  REQUESTED:    1067730  ISSUED:    1067672  USEFUL:      44374  USELESS:     123013
L1D USEFUL LOAD PREFETCHES:      44374 PREFETCH ISSUED TO LOWER LEVEL:     167890  ACCURACY: 26.4304
L1D TIMELY PREFETCHES:      44374 LATE PREFETCHES: 29465 DROPPED PREFETCHES: 0
L1D PREFETCHES SAME FILL-ORIGIN LEVEL: 167890 DIFFERENT FILL-ORIGIN LEVEL: 0
L1D AVERAGE MISS LATENCY: 29698.2 cycles
L1D RQ	ACCESS:   12113330	FORWARD:          0	MERGED:    3146965	TO_CACHE:    8852351
L1D WQ	ACCESS:    6938884	FORWARD:     114220	MERGED:      46867	TO_CACHE:    6892017
L1D PQ	ACCESS:     533939	FORWARD:          0	MERGED:          0	TO_CACHE:     533733

L1D UNIQUE REGIONS ACCESSED: 0
L1D REGIONS CONFLICTS: 0
L1D Cross Page Prefetch Requests: 0
L1D Same Page Prefetch Requests: 635715
L1D ROI Sum of L1D PQ occupancy: 8118743
L1D PREFETCHES PUSHED FROM L2C: 0
L1I TOTAL     ACCESS:    9601487  HIT:    6852925  MISS:    2748562  HIT %:    71.3736  MISS %:    28.6264   MPKI: 54.9712
L1I LOAD      ACCESS:    9601487  HIT:    6852925  MISS:    2748562  HIT %:    71.3736  MISS %:    28.6264   MPKI: 54.9712
L1I PREFETCH  REQUESTED:          0  ISSUED:          0  USEFUL:          0  USELESS:          0
L1I USEFUL LOAD PREFETCHES:          0 PREFETCH ISSUED TO LOWER LEVEL:          0  ACCURACY: -nan
L1I TIMELY PREFETCHES:          0 LATE PREFETCHES: 0 DROPPED PREFETCHES: 0
L1I PREFETCHES SAME FILL-ORIGIN LEVEL: 0 DIFFERENT FILL-ORIGIN LEVEL: 0
L1I AVERAGE MISS LATENCY: 18.7403 cycles
L1I RQ	ACCESS:   13830919	FORWARD:          0	MERGED:    3770026	TO_CACHE:   10060893

BTB TOTAL     ACCESS:    5994310  HIT:    3988077  MISS:    2006233  HIT %:     66.531  MISS %:     33.469   MPKI: 40.1247
BTB BRANCH_DIRECT_JUMP	ACCESS:     527013  HIT:     350195  MISS:     176818
BTB BRANCH_INDIRECT	ACCESS:     206168  HIT:     168860  MISS:      37308
BTB BRANCH_CONDITIONAL	ACCESS:    3044122  HIT:    2482259  MISS:     561863
BTB BRANCH_DIRECT_CALL	ACCESS:     934907  HIT:     527457  MISS:     407450
BTB BRANCH_INDIRECT_CALL	ACCESS:     173595  HIT:      94867  MISS:      78728
BTB BRANCH_RETURN	ACCESS:    1108505  HIT:     364439  MISS:     744066
BTB BRANCH_OTHER ACCESS:          0  HIT:          0  MISS:          0

L2C TOTAL     ACCESS:    5019578  HIT:    4251454  MISS:     768124  HIT %:    84.6974  MISS %:    15.3026   MPKI: 15.3625
L2C LOAD      ACCESS:    3443259  HIT:    2906767  MISS:     536492  HIT %:    84.4191  MISS %:    15.5809   MPKI: 10.7298
L2C DATA LOAD MPKI: 2.30272
L2C INSTRUCTION LOAD MPKI: 8.42712
L2C RFO       ACCESS:     293980  HIT:     207778  MISS:      86202  HIT %:    70.6776  MISS %:    29.3224   MPKI: 1.72404
L2C PREFETCH  ACCESS:     754814  HIT:     617924  MISS:     136890  HIT %:    81.8644  MISS %:    18.1356   MPKI: 2.7378
L2C DATA PREFETCH MPKI: 2.7378
L2C INSTRUCTION PREFETCH MPKI: 0
L2C WRITEBACK ACCESS:     525041  HIT:     518342  MISS:       6699  HIT %:    98.7241  MISS %:     1.2759   MPKI: 0.13398
L2C LOAD TRANSLATION ACCESS:       2484  HIT:        643  MISS:       1841  HIT %:    25.8857  MISS %:    74.1143   MPKI: 0.03682
L2C PREFETCH  REQUESTED:     601542  ISSUED:     601542  USEFUL:      25443  USELESS:     111529
L2C USEFUL LOAD PREFETCHES:      25443 PREFETCH ISSUED TO LOWER LEVEL:     140579  ACCURACY: 18.0987
L2C TIMELY PREFETCHES:      25443 LATE PREFETCHES: 3689 DROPPED PREFETCHES: 0
L2C PREFETCHES SAME FILL-ORIGIN LEVEL: 91850 DIFFERENT FILL-ORIGIN LEVEL: 0
L2C AVERAGE MISS LATENCY: 48.3074 cycles
L2C RQ	ACCESS:    3739730	FORWARD:          0	MERGED:          0	TO_CACHE:    3739724
L2C WQ	ACCESS:     525041	FORWARD:         10	MERGED:          0	TO_CACHE:     525041
L2C PQ	ACCESS:     769432	FORWARD:          0	MERGED:       5658	TO_CACHE:     763770

L2C Instructions Evicting Data 167765
L2C Translations Evicting Data 1275
L2C Data Evicting Data 173551
L2C Instructions Evicting Instructions 252944
L2C Translations Evicting Instructions 559
L2C Data Evicting Instructions 163501
L2C Instructions Evicting Translations 647
L2C Translations Evicting Translations 7
L2C Data Evicting Translations 1171
L2C Dense regions hint from L2: 0
PSCL5 TOTAL     ACCESS:       2310  HIT:       2310  MISS:          0  HIT %:        100  MISS %:          0   MPKI: 0
PSCL5 LOAD TRANSLATION ACCESS:       2310  HIT:       2310  MISS:          0  HIT %:        100  MISS %:          0   MPKI: 0
PSCL5 PREFETCH  REQUESTED:          0  ISSUED:          0  USEFUL:          0  USELESS:          0
PSCL5 USEFUL LOAD PREFETCHES:          0 PREFETCH ISSUED TO LOWER LEVEL:          0  ACCURACY: -nan
PSCL5 TIMELY PREFETCHES:          0 LATE PREFETCHES: 0 DROPPED PREFETCHES: 0
PSCL5 PREFETCHES SAME FILL-ORIGIN LEVEL: 0 DIFFERENT FILL-ORIGIN LEVEL: 0

PSCL4 TOTAL     ACCESS:       2074  HIT:       2051  MISS:         23  HIT %:     98.891  MISS %:    1.10897   MPKI: 0.00046
PSCL4 LOAD TRANSLATION ACCESS:       2074  HIT:       2051  MISS:         23  HIT %:     98.891  MISS %:    1.10897   MPKI: 0.00046
PSCL4 PREFETCH  REQUESTED:          0  ISSUED:          0  USEFUL:          0  USELESS:          0
PSCL4 USEFUL LOAD PREFETCHES:          0 PREFETCH ISSUED TO LOWER LEVEL:          0  ACCURACY: -nan
PSCL4 TIMELY PREFETCHES:          0 LATE PREFETCHES: 0 DROPPED PREFETCHES: 0
PSCL4 PREFETCHES SAME FILL-ORIGIN LEVEL: 0 DIFFERENT FILL-ORIGIN LEVEL: 0

PSCL3 TOTAL     ACCESS:       2130  HIT:       2106  MISS:         24  HIT %:    98.8732  MISS %:    1.12676   MPKI: 0.00048
PSCL3 LOAD TRANSLATION ACCESS:       2130  HIT:       2106  MISS:         24  HIT %:    98.8732  MISS %:    1.12676   MPKI: 0.00048
PSCL3 PREFETCH  REQUESTED:          0  ISSUED:          0  USEFUL:          0  USELESS:          0
PSCL3 USEFUL LOAD PREFETCHES:          0 PREFETCH ISSUED TO LOWER LEVEL:          0  ACCURACY: -nan
PSCL3 TIMELY PREFETCHES:          0 LATE PREFETCHES: 0 DROPPED PREFETCHES: 0
PSCL3 PREFETCHES SAME FILL-ORIGIN LEVEL: 0 DIFFERENT FILL-ORIGIN LEVEL: 0

PSCL2 TOTAL     ACCESS:       2310  HIT:       2175  MISS:        135  HIT %:    94.1558  MISS %:    5.84416   MPKI: 0.0027
PSCL2 LOAD TRANSLATION ACCESS:       2310  HIT:       2175  MISS:        135  HIT %:    94.1558  MISS %:    5.84416   MPKI: 0.0027
PSCL2 PREFETCH  REQUESTED:          0  ISSUED:          0  USEFUL:          0  USELESS:          0
PSCL2 USEFUL LOAD PREFETCHES:          0 PREFETCH ISSUED TO LOWER LEVEL:          0  ACCURACY: -nan
PSCL2 TIMELY PREFETCHES:          0 LATE PREFETCHES: 0 DROPPED PREFETCHES: 0
PSCL2 PREFETCHES SAME FILL-ORIGIN LEVEL: 0 DIFFERENT FILL-ORIGIN LEVEL: 0

LLC TOTAL     ACCESS:     899499  HIT:     868401  MISS:      31098  HIT %:    96.5427  MISS %:    3.45726   MPKI: 0.62196
LLC LOAD      ACCESS:     532995  HIT:     528446  MISS:       4549  HIT %:    99.1465  MISS %:   0.853479   MPKI: 0.09098
LLC RFO       ACCESS:      86010  HIT:      70507  MISS:      15503  HIT %:    81.9754  MISS %:    18.0246   MPKI: 0.31006
LLC PREFETCH  ACCESS:     140579  HIT:     129771  MISS:      10808  HIT %:    92.3118  MISS %:     7.6882   MPKI: 0.21616
LLC WRITEBACK ACCESS:     138074  HIT:     138010  MISS:         64  HIT %:    99.9536  MISS %:   0.046352   MPKI: 0.00128
LLC LOAD TRANSLATION ACCESS:       1841  HIT:       1667  MISS:        174  HIT %:    90.5486  MISS %:    9.45139   MPKI: 0.00348
LLC PREFETCH  REQUESTED:          0  ISSUED:          0  USEFUL:       1022  USELESS:       6049
LLC USEFUL LOAD PREFETCHES:       1022 PREFETCH ISSUED TO LOWER LEVEL:      10808  ACCURACY: 9.45596
LLC TIMELY PREFETCHES:       1022 LATE PREFETCHES: 0 DROPPED PREFETCHES: 0
LLC PREFETCHES SAME FILL-ORIGIN LEVEL: 0 DIFFERENT FILL-ORIGIN LEVEL: 0
LLC AVERAGE MISS LATENCY: 460.31 cycles
LLC RQ	ACCESS:     620846	FORWARD:          0	MERGED:          0	TO_CACHE:     620846
LLC WQ	ACCESS:     138074	FORWARD:          0	MERGED:          0	TO_CACHE:     138074
LLC PQ	ACCESS:     140579	FORWARD:          0	MERGED:          0	TO_CACHE:     140579

LLC Dense regions hint to LLC: 0

RAW hits: 527257
Loads Generated: 12640584
Loads sent to L1D: 12113330
Stores Generated: 6938885
Stores sent to L1D: 6938884
Major fault: 0 Minor fault: 2251
Allocated PAGES: 2251

stream: 
stream:times selected: 1020083
stream:pref_filled: 118361
stream:pref_useful: 21592
stream:pref_late: 17320
stream:misses: 5327
stream:misses_by_poll: 0

CS: 
CS:times selected: 129737
CS:pref_filled: 50276
CS:pref_useful: 26346
CS:pref_late: 6223
CS:misses: 17500
CS:misses_by_poll: 7

CPLX: 
CPLX:times selected: 888301
CPLX:pref_filled: 23972
CPLX:pref_useful: 4647
CPLX:pref_late: 1368
CPLX:misses: 64838
CPLX:misses_by_poll: 3

NL_L1: 
NL:times selected: 5981
NL:pref_filled: 599
NL:pref_useful: 86
NL:pref_late: 10
NL:misses: 114
NL:misses_by_poll: 0

total selections: 2044102
total_filled: 167370
total_useful: 44374
total_late: 25128
total_polluted: 10
total_misses_after_warmup: 755478
conflicts: 3255926
Degree Incremented Times: 0
Degree Decremented Times: 182154

L1 IP Table Write Accesses: 5298698
L1 IP Table Read Accesses: 2042772
L1 RST Write Accesses: 857615
L1 RST Read Accesses: 1715230
L1 CSPT Write Accesses: 857615
L1 CSPT Read Accesses: 1603693
L1 RR Filter Tag Write Accesses: 533997
L1 RR Filter Tag Read Accesses: 38072967
L1 IP Table Tag Write Accesses: 8852353
L1 IP Table Tag Read Accesses: 8852353
L1 RST Tag Write Accesses: 0
L1 RST Tag Read Accesses: 7550148
L1 RR Filter Write Accesses: 0
L1 RR Filter Read Accesses: 1403314
test: 148645
L2 IP Table Read Accesses: 1106176
L2 IP Table Write Accesses: 1539396
L2 IP Table Tag Read Accesses: 857211
L2 IP Table Tag Write Accesses: 857211

DRAM Statistics
 CHANNEL 0
 RQ ROW_BUFFER_HIT:      16866  ROW_BUFFER_MISS:      14162
 DBUS_CONGESTED:      28110
 WQ ROW_BUFFER_HIT:        554  ROW_BUFFER_MISS:       5952  FULL:          0

 AVG_CONGESTED_CYCLE: 52
 All warmup complete: 2
Channel 0 Bank busy for read cycles: 0
Channel 0 Bank busy for write cycles: 0
Channel 0
Rank 0
0banks busy for read cycles: 123095243
0banks busy for write cycles: 1864
1banks busy for read cycles: 692928
1banks busy for write cycles: 227661
2banks busy for read cycles: 400864
2banks busy for write cycles: 96761
3banks busy for read cycles: 133956
3banks busy for write cycles: 49352
4banks busy for read cycles: 116221
4banks busy for write cycles: 38851
5banks busy for read cycles: 89852
5banks busy for write cycles: 31503
6banks busy for read cycles: 76087
6banks busy for write cycles: 32534
7banks busy for read cycles: 98955
7banks busy for write cycles: 28962
8banks busy for read cycles: 633912
8banks busy for write cycles: 90481

CPU 0 Branch Prediction Accuracy: 91.5131% MPKI: 15.508 Average ROB Occupancy at Mispredict: 17.1659
Branch types
NOT_BRANCH: 40863273 81.7265%
BRANCH_DIRECT_JUMP: 527013 1.05403%
BRANCH_INDIRECT: 206168 0.412336%
BRANCH_CONDITIONAL: 6186185 12.3724%
BRANCH_DIRECT_CALL: 934907 1.86981%
BRANCH_INDIRECT_CALL: 173595 0.34719%
BRANCH_RETURN: 1108505 2.21701%
BRANCH_OTHER: 0 0%

@sumon_overall_L1D     44374     29465    123013    167370   1067672   1067730
@Sumon_Early_by_class_L1D     17749     21626      3815         7
@Sumon_Late_by_class_L1D     16514      5950      1114         7

@Sumon_Early_by_cycle_L1D     27556      2796      1981      3466       337      1356       917      1504      1141      2339       735       246
@Sumon_Late_by_cycle_L1D     21246      1174      1133       198         9        10         4         0         0         0         0         0
@Sumon_Early_stream_L1D      5841      2062      1275      2912       187       972       553       957       742      1412       600       236
@Sumon_Early_CS_L1D     20209       403       522       103        28        33         8       279         1        27         5         8
@Sumon_Early_CPLX_L1D      1240       233       144       431       113       343       250       232       237       464       126         2
@Sumon_Late_stream_L1D     16350       148        16         0         0         0         0         0         0         0         0         0
@Sumon_Late_CS_L1D      3594      1019      1116       198         9        10         4         0         0         0         0         0
@Sumon_Late_CPLX_L1D      1110         4         0         0         0         0         0         0         0         0         0         0
@sumon_overall_L2C     25443      3689    111529    136890    601542    601542
@Sumon_Early_by_class_L2C      1840       127       491         0
@Sumon_Late_by_class_L2C         0         0         0         0

@Sumon_Early_by_cycle_L2C      4575      2757      1964      1481       712      2314      2613      1376       920       402      1272      5057
@Sumon_Late_by_cycle_L2C      3367       322         0         0         0         0         0         0         0         0         0         0
@Sumon_Early_stream_L2C         0         0         0         0         0         0         0         0         0        14       157      1669
@Sumon_Early_CS_L2C         0         0         0         0         0         0         0         0         0         0         0       127
@Sumon_Early_CPLX_L2C         0         0         0         0         0         0         0         0         0         2        34       455
@Sumon_Late_stream_L2C         0         0         0         0         0         0         0         0         0         0         0         0
@Sumon_Late_CS_L2C         0         0         0         0         0         0         0         0         0         0         0         0
@Sumon_Late_CPLX_L2C         0         0         0         0         0         0         0         0         0         0         0         0
DRAM PAGES: 1048576
Allocated PAGES: 2251
