
*** ChampSim Multicore Out-of-Order Simulator ***

Warmup Instructions: 10000000
Simulation Instructions: 50000000
Number of CPUs: 1
LLC sets: 2048
LLC ways: 16
Off-chip DRAM Size: 4096 MB Channels: 1 Width: 64-bit Data Rate: 533 MT/s
CPU 0 runs traces/clientserver/server_033.champsimtrace.xz
.xz
CPU 0 Bimodal branch predictor
BTB has LRU replacement policy
ITLB has LRU replacement policy
DTLB has LRU replacement policy
STLB has LRU replacement policy
L1I has LRU replacement policy
IP Table Entries: 256
L1D has LRU replacement policy
IP_Table L2 entries: 256
L2C has LRU replacement policy
LLC has LRU replacement policy
Heartbeat CPU 0 instructions: 10000001 cycles: 2768951 heartbeat IPC: 3.61148 cumulative IPC: 3.61148 (Simulation time: 0 hr 18 min 45 sec) 

Warmup complete CPU 0 instructions: 10000001 cycles: 2768951 (Simulation time: 0 hr 18 min 45 sec) 

Heartbeat CPU 0 instructions: 20000003 cycles: 23056774 heartbeat IPC: 0.492907 cumulative IPC: 0.492907 (Simulation time: 0 hr 35 min 49 sec) 
Heartbeat CPU 0 instructions: 30000000 cycles: 44055782 heartbeat IPC: 0.476213 cumulative IPC: 0.484416 (Simulation time: 0 hr 53 min 3 sec) 
Heartbeat CPU 0 instructions: 40000001 cycles: 64275691 heartbeat IPC: 0.494562 cumulative IPC: 0.487751 (Simulation time: 1 hr 9 min 35 sec) 
Heartbeat CPU 0 instructions: 50000000 cycles: 84610159 heartbeat IPC: 0.491776 cumulative IPC: 0.488751 (Simulation time: 1 hr 26 min 6 sec) 
Heartbeat CPU 0 instructions: 60000003 cycles: 104854316 heartbeat IPC: 0.49397 cumulative IPC: 0.489786 (Simulation time: 1 hr 41 min 59 sec) 
Finished CPU 0 instructions: 50000002 cycles: 102085365 cumulative IPC: 0.489786 (Simulation time: 1 hr 41 min 59 sec) 

ChampSim completed all CPUs

Region of Interest Statistics

CPU 0 cumulative IPC: 0.489786 instructions: 50000002 cycles: 102085365
ITLB TOTAL     ACCESS:    8926497  HIT:    8423990  MISS:     502507  HIT %:    94.3706  MISS %:    5.62939   MPKI: 10.0501
ITLB LOAD TRANSLATION ACCESS:    8926497  HIT:    8423990  MISS:     502507  HIT %:    94.3706  MISS %:    5.62939   MPKI: 10.0501
ITLB PREFETCH  REQUESTED:          0  ISSUED:          0  USEFUL:          0  USELESS:          0
ITLB USEFUL LOAD PREFETCHES:          0 PREFETCH ISSUED TO LOWER LEVEL:          0  ACCURACY: -nan
ITLB TIMELY PREFETCHES:          0 LATE PREFETCHES: 0 DROPPED PREFETCHES: 0
ITLB PREFETCHES SAME FILL-ORIGIN LEVEL: 0 DIFFERENT FILL-ORIGIN LEVEL: 0
ITLB AVERAGE MISS LATENCY: 9.06202 cycles
ITLB RQ	ACCESS:   10598116	FORWARD:          0	MERGED:    1547615	TO_CACHE:    9050501

DTLB TOTAL     ACCESS:   10738905  HIT:   10293913  MISS:     444992  HIT %:    95.8563  MISS %:    4.14374   MPKI: 8.89984
DTLB LOAD TRANSLATION ACCESS:   10738905  HIT:   10293913  MISS:     444992  HIT %:    95.8563  MISS %:    4.14374   MPKI: 8.89984
DTLB PREFETCH  REQUESTED:          0  ISSUED:          0  USEFUL:          0  USELESS:          0
DTLB USEFUL LOAD PREFETCHES:          0 PREFETCH ISSUED TO LOWER LEVEL:          0  ACCURACY: -nan
DTLB TIMELY PREFETCHES:          0 LATE PREFETCHES: 0 DROPPED PREFETCHES: 0
DTLB PREFETCHES SAME FILL-ORIGIN LEVEL: 0 DIFFERENT FILL-ORIGIN LEVEL: 0
DTLB AVERAGE MISS LATENCY: 9.72472 cycles
DTLB RQ	ACCESS:   14286693	FORWARD:          0	MERGED:    3534255	TO_CACHE:   10752438

STLB TOTAL     ACCESS:    1197059  HIT:    1192556  MISS:       4503  HIT %:    99.6238  MISS %:   0.376172   MPKI: 0.09006
STLB LOAD TRANSLATION ACCESS:     947499  HIT:     942996  MISS:       4503  HIT %:    99.5247  MISS %:   0.475251   MPKI: 0.09006
STLB TRANSLATION FROM L1D PREFETCHER ACCESS:     249560  HIT:     249560  MISS:          0  HIT %:        100  MISS %:          0   MPKI: 0
STLB PREFETCH  REQUESTED:          0  ISSUED:          0  USEFUL:          0  USELESS:          0
STLB USEFUL LOAD PREFETCHES:          0 PREFETCH ISSUED TO LOWER LEVEL:          0  ACCURACY: -nan
STLB TIMELY PREFETCHES:          0 LATE PREFETCHES: 0 DROPPED PREFETCHES: 0
STLB PREFETCHES SAME FILL-ORIGIN LEVEL: 0 DIFFERENT FILL-ORIGIN LEVEL: 0
STLB AVERAGE MISS LATENCY: 74.5603 cycles
STLB RQ	ACCESS:    1314623	FORWARD:          0	MERGED:     117564	TO_CACHE:    1197059

STLB Hit, L1D data hit: 0
STLB Hit, L2C data hit: 0
STLB Hit, LLC data hit: 0
STLB Hit, LLC data miss: 0
STLB STLB hints to L2: 0
L1D TOTAL     ACCESS:   14499396  HIT:   13583922  MISS:     915474  HIT %:    93.6861  MISS %:    6.31388   MPKI: 18.3095
L1D LOAD      ACCESS:    7835824  HIT:    7218656  MISS:     617168  HIT %:    92.1238  MISS %:    7.87624   MPKI: 12.3434
L1D RFO       ACCESS:    6310087  HIT:    6190563  MISS:     119524  HIT %:    98.1058  MISS %:    1.89417   MPKI: 2.39048
L1D PREFETCH  ACCESS:     353485  HIT:     174703  MISS:     178782  HIT %:     49.423  MISS %:     50.577   MPKI: 3.57564
L1D PREFETCH  REQUESTED:     734928  ISSUED:     734893  USEFUL:      23463  USELESS:     155280
L1D USEFUL LOAD PREFETCHES:      23463 PREFETCH ISSUED TO LOWER LEVEL:     179058  ACCURACY: 13.1036
L1D TIMELY PREFETCHES:      23463 LATE PREFETCHES: 2531 DROPPED PREFETCHES: 0
L1D PREFETCHES SAME FILL-ORIGIN LEVEL: 179058 DIFFERENT FILL-ORIGIN LEVEL: 0
L1D AVERAGE MISS LATENCY: 15310.3 cycles
L1D RQ	ACCESS:   11158317	FORWARD:          0	MERGED:    3150771	TO_CACHE:    7862141
L1D WQ	ACCESS:    6511082	FORWARD:     146050	MERGED:      86530	TO_CACHE:    6424552
L1D PQ	ACCESS:     367769	FORWARD:          0	MERGED:          0	TO_CACHE:     367124

L1D UNIQUE REGIONS ACCESSED: 0
L1D REGIONS CONFLICTS: 0
L1D Cross Page Prefetch Requests: 0
L1D Same Page Prefetch Requests: 430346
L1D ROI Sum of L1D PQ occupancy: 4925405
L1D PREFETCHES PUSHED FROM L2C: 0
L1I TOTAL     ACCESS:    9859467  HIT:    6560030  MISS:    3299437  HIT %:    66.5353  MISS %:    33.4647   MPKI: 65.9887
L1I LOAD      ACCESS:    9859467  HIT:    6560030  MISS:    3299437  HIT %:    66.5353  MISS %:    33.4647   MPKI: 65.9887
L1I PREFETCH  REQUESTED:          0  ISSUED:          0  USEFUL:          0  USELESS:          0
L1I USEFUL LOAD PREFETCHES:          0 PREFETCH ISSUED TO LOWER LEVEL:          0  ACCURACY: -nan
L1I TIMELY PREFETCHES:          0 LATE PREFETCHES: 0 DROPPED PREFETCHES: 0
L1I PREFETCHES SAME FILL-ORIGIN LEVEL: 0 DIFFERENT FILL-ORIGIN LEVEL: 0
L1I AVERAGE MISS LATENCY: 14.8388 cycles
L1I RQ	ACCESS:   14716468	FORWARD:          0	MERGED:    4118352	TO_CACHE:   10598116

BTB TOTAL     ACCESS:    6383750  HIT:    5391163  MISS:     992587  HIT %:    84.4513  MISS %:    15.5487   MPKI: 19.8517
BTB BRANCH_DIRECT_JUMP	ACCESS:     773784  HIT:     695908  MISS:      77876
BTB BRANCH_INDIRECT	ACCESS:     108782  HIT:      73994  MISS:      34788
BTB BRANCH_CONDITIONAL	ACCESS:    2979726  HIT:    2766987  MISS:     212739
BTB BRANCH_DIRECT_CALL	ACCESS:    1049282  HIT:     930755  MISS:     118527
BTB BRANCH_INDIRECT_CALL	ACCESS:     211458  HIT:     142846  MISS:      68612
BTB BRANCH_RETURN	ACCESS:    1260718  HIT:     780673  MISS:     480045
BTB BRANCH_OTHER ACCESS:          0  HIT:          0  MISS:          0

L2C TOTAL     ACCESS:    5042427  HIT:    4691559  MISS:     350868  HIT %:    93.0417  MISS %:    6.95832   MPKI: 7.01736
L2C LOAD      ACCESS:    3916575  HIT:    3726351  MISS:     190224  HIT %:    95.1431  MISS %:     4.8569   MPKI: 3.80448
L2C DATA LOAD MPKI: 2.37944
L2C INSTRUCTION LOAD MPKI: 1.42504
L2C RFO       ACCESS:     119244  HIT:      95886  MISS:      23358  HIT %:    80.4116  MISS %:    19.5884   MPKI: 0.46716
L2C PREFETCH  ACCESS:     716820  HIT:     586606  MISS:     130214  HIT %:    81.8345  MISS %:    18.1655   MPKI: 2.60428
L2C DATA PREFETCH MPKI: 2.60428
L2C INSTRUCTION PREFETCH MPKI: 0
L2C WRITEBACK ACCESS:     284750  HIT:     280452  MISS:       4298  HIT %:    98.4906  MISS %:    1.50939   MPKI: 0.08596
L2C LOAD TRANSLATION ACCESS:       5038  HIT:       2264  MISS:       2774  HIT %:    44.9385  MISS %:    55.0615   MPKI: 0.05548
L2C PREFETCH  REQUESTED:     550622  ISSUED:     550622  USEFUL:      49528  USELESS:      80374
L2C USEFUL LOAD PREFETCHES:      49528 PREFETCH ISSUED TO LOWER LEVEL:     132191  ACCURACY: 37.467
L2C TIMELY PREFETCHES:      49528 LATE PREFETCHES: 1977 DROPPED PREFETCHES: 0
L2C PREFETCHES SAME FILL-ORIGIN LEVEL: 95660 DIFFERENT FILL-ORIGIN LEVEL: 0
L2C AVERAGE MISS LATENCY: 54.8296 cycles
L2C RQ	ACCESS:    4040891	FORWARD:          0	MERGED:          0	TO_CACHE:    4040857
L2C WQ	ACCESS:     284750	FORWARD:         34	MERGED:          0	TO_CACHE:     284750
L2C PQ	ACCESS:     729680	FORWARD:          0	MERGED:       4681	TO_CACHE:     724999

L2C Instructions Evicting Data 30927
L2C Translations Evicting Data 2514
L2C Data Evicting Data 241827
L2C Instructions Evicting Instructions 40044
L2C Translations Evicting Instructions 237
L2C Data Evicting Instructions 28266
L2C Instructions Evicting Translations 281
L2C Translations Evicting Translations 23
L2C Data Evicting Translations 2451
L2C Dense regions hint from L2: 0
PSCL5 TOTAL     ACCESS:       4503  HIT:       4503  MISS:          0  HIT %:        100  MISS %:          0   MPKI: 0
PSCL5 LOAD TRANSLATION ACCESS:       4503  HIT:       4503  MISS:          0  HIT %:        100  MISS %:          0   MPKI: 0
PSCL5 PREFETCH  REQUESTED:          0  ISSUED:          0  USEFUL:          0  USELESS:          0
PSCL5 USEFUL LOAD PREFETCHES:          0 PREFETCH ISSUED TO LOWER LEVEL:          0  ACCURACY: -nan
PSCL5 TIMELY PREFETCHES:          0 LATE PREFETCHES: 0 DROPPED PREFETCHES: 0
PSCL5 PREFETCHES SAME FILL-ORIGIN LEVEL: 0 DIFFERENT FILL-ORIGIN LEVEL: 0

PSCL4 TOTAL     ACCESS:       4461  HIT:       4451  MISS:         10  HIT %:    99.7758  MISS %:   0.224165   MPKI: 0.0002
PSCL4 LOAD TRANSLATION ACCESS:       4461  HIT:       4451  MISS:         10  HIT %:    99.7758  MISS %:   0.224165   MPKI: 0.0002
PSCL4 PREFETCH  REQUESTED:          0  ISSUED:          0  USEFUL:          0  USELESS:          0
PSCL4 USEFUL LOAD PREFETCHES:          0 PREFETCH ISSUED TO LOWER LEVEL:          0  ACCURACY: -nan
PSCL4 TIMELY PREFETCHES:          0 LATE PREFETCHES: 0 DROPPED PREFETCHES: 0
PSCL4 PREFETCHES SAME FILL-ORIGIN LEVEL: 0 DIFFERENT FILL-ORIGIN LEVEL: 0

PSCL3 TOTAL     ACCESS:       4483  HIT:       4473  MISS:         10  HIT %:    99.7769  MISS %:   0.223065   MPKI: 0.0002
PSCL3 LOAD TRANSLATION ACCESS:       4483  HIT:       4473  MISS:         10  HIT %:    99.7769  MISS %:   0.223065   MPKI: 0.0002
PSCL3 PREFETCH  REQUESTED:          0  ISSUED:          0  USEFUL:          0  USELESS:          0
PSCL3 USEFUL LOAD PREFETCHES:          0 PREFETCH ISSUED TO LOWER LEVEL:          0  ACCURACY: -nan
PSCL3 TIMELY PREFETCHES:          0 LATE PREFETCHES: 0 DROPPED PREFETCHES: 0
PSCL3 PREFETCHES SAME FILL-ORIGIN LEVEL: 0 DIFFERENT FILL-ORIGIN LEVEL: 0

PSCL2 TOTAL     ACCESS:       4503  HIT:       3984  MISS:        519  HIT %:    88.4744  MISS %:    11.5256   MPKI: 0.01038
PSCL2 LOAD TRANSLATION ACCESS:       4503  HIT:       3984  MISS:        519  HIT %:    88.4744  MISS %:    11.5256   MPKI: 0.01038
PSCL2 PREFETCH  REQUESTED:          0  ISSUED:          0  USEFUL:          0  USELESS:          0
PSCL2 USEFUL LOAD PREFETCHES:          0 PREFETCH ISSUED TO LOWER LEVEL:          0  ACCURACY: -nan
PSCL2 TIMELY PREFETCHES:          0 LATE PREFETCHES: 0 DROPPED PREFETCHES: 0
PSCL2 PREFETCHES SAME FILL-ORIGIN LEVEL: 0 DIFFERENT FILL-ORIGIN LEVEL: 0

LLC TOTAL     ACCESS:     453943  HIT:     415051  MISS:      38892  HIT %:    91.4324  MISS %:     8.5676   MPKI: 0.77784
LLC LOAD      ACCESS:     188384  HIT:     173794  MISS:      14590  HIT %:    92.2552  MISS %:    7.74482   MPKI: 0.2918
LLC RFO       ACCESS:      23221  HIT:      19437  MISS:       3784  HIT %:    83.7044  MISS %:    16.2956   MPKI: 0.07568
LLC PREFETCH  ACCESS:     132191  HIT:     112142  MISS:      20049  HIT %:    84.8333  MISS %:    15.1667   MPKI: 0.40098
LLC WRITEBACK ACCESS:     107373  HIT:     107257  MISS:        116  HIT %:     99.892  MISS %:   0.108035   MPKI: 0.00232
LLC LOAD TRANSLATION ACCESS:       2774  HIT:       2421  MISS:        353  HIT %:    87.2747  MISS %:    12.7253   MPKI: 0.00706
LLC PREFETCH  REQUESTED:          0  ISSUED:          0  USEFUL:       2780  USELESS:      12566
LLC USEFUL LOAD PREFETCHES:       2780 PREFETCH ISSUED TO LOWER LEVEL:      20049  ACCURACY: 13.866
LLC TIMELY PREFETCHES:       2780 LATE PREFETCHES: 0 DROPPED PREFETCHES: 0
LLC PREFETCHES SAME FILL-ORIGIN LEVEL: 0 DIFFERENT FILL-ORIGIN LEVEL: 0
LLC AVERAGE MISS LATENCY: 230.613 cycles
LLC RQ	ACCESS:     214379	FORWARD:          0	MERGED:          0	TO_CACHE:     214379
LLC WQ	ACCESS:     107373	FORWARD:          0	MERGED:          0	TO_CACHE:     107373
LLC PQ	ACCESS:     132191	FORWARD:          0	MERGED:          0	TO_CACHE:     132191

LLC Dense regions hint to LLC: 0

RAW hits: 902778
Loads Generated: 12061095
Loads sent to L1D: 11158317
Stores Generated: 6511091
Stores sent to L1D: 6511082
Major fault: 0 Minor fault: 2442
Allocated PAGES: 2442

stream: 
stream:times selected: 468741
stream:pref_filled: 119530
stream:pref_useful: 15668
stream:pref_late: 868
stream:misses: 12004
stream:misses_by_poll: 0

CS: 
CS:times selected: 8495
CS:pref_filled: 2624
CS:pref_useful: 1217
CS:pref_late: 1090
CS:misses: 151
CS:misses_by_poll: 28

CPLX: 
CPLX:times selected: 453978
CPLX:pref_filled: 84533
CPLX:pref_useful: 9268
CPLX:pref_late: 620
CPLX:misses: 52744
CPLX:misses_by_poll: 24

NL_L1: 
NL:times selected: 2122
NL:pref_filled: 1448
NL:pref_useful: 29
NL:pref_late: 10
NL:misses: 210
NL:misses_by_poll: 0

total selections: 933336
total_filled: 178782
total_useful: 23463
total_late: 2639
total_polluted: 52
total_misses_after_warmup: 643488
conflicts: 3265218
Degree Incremented Times: 0
Degree Decremented Times: 301156

L1 IP Table Write Accesses: 4364617
L1 IP Table Read Accesses: 1099399
L1 RST Write Accesses: 406226
L1 RST Read Accesses: 812452
L1 CSPT Write Accesses: 406226
L1 CSPT Read Accesses: 798822
L1 RR Filter Tag Write Accesses: 367804
L1 RR Filter Tag Read Accesses: 17680545
L1 IP Table Tag Write Accesses: 7862144
L1 IP Table Tag Read Accesses: 7862144
L1 RST Tag Write Accesses: 0
L1 RST Tag Read Accesses: 4307843
L1 RR Filter Write Accesses: 0
L1 RR Filter Read Accesses: 617305
test: 221703
L2 IP Table Read Accesses: 1026917
L2 IP Table Write Accesses: 1418004
L2 IP Table Tag Read Accesses: 790807
L2 IP Table Tag Write Accesses: 790807

DRAM Statistics
 CHANNEL 0
 RQ ROW_BUFFER_HIT:       9379  ROW_BUFFER_MISS:      29397
 DBUS_CONGESTED:      24713
 WQ ROW_BUFFER_HIT:       1858  ROW_BUFFER_MISS:      10174  FULL:          0

 AVG_CONGESTED_CYCLE: 47
 All warmup complete: 2
Channel 0 Bank busy for read cycles: 0
Channel 0 Bank busy for write cycles: 0
Channel 0
Rank 0
0banks busy for read cycles: 96933606
0banks busy for write cycles: 6242
1banks busy for read cycles: 1989812
1banks busy for write cycles: 909336
2banks busy for read cycles: 953050
2banks busy for write cycles: 240904
3banks busy for read cycles: 304317
3banks busy for write cycles: 124786
4banks busy for read cycles: 140132
4banks busy for write cycles: 72417
5banks busy for read cycles: 74517
5banks busy for write cycles: 50564
6banks busy for read cycles: 51524
6banks busy for write cycles: 34107
7banks busy for read cycles: 50878
7banks busy for write cycles: 30309
8banks busy for read cycles: 60366
8banks busy for write cycles: 58499

CPU 0 Branch Prediction Accuracy: 93.323% MPKI: 13.056 Average ROB Occupancy at Mispredict: 19.2671
Branch types
NOT_BRANCH: 40222847 80.4457%
BRANCH_DIRECT_JUMP: 773784 1.54757%
BRANCH_INDIRECT: 108782 0.217564%
BRANCH_CONDITIONAL: 6372831 12.7457%
BRANCH_DIRECT_CALL: 1049282 2.09856%
BRANCH_INDIRECT_CALL: 211458 0.422916%
BRANCH_RETURN: 1260718 2.52144%
BRANCH_OTHER: 0 0%

@sumon_overall_L1D     23463      2531    155280    178782    734893    734928
@Sumon_Early_by_class_L1D     13044      1110      8143         0
@Sumon_Late_by_class_L1D       559      1087       421         0

@Sumon_Early_by_cycle_L1D      5877      4312      3308      1944      1562      2204      1374       847       149      1263       529        94
@Sumon_Late_by_cycle_L1D      1348       362       287        83        18         0         0         0         0         0         0         0
@Sumon_Early_stream_L1D      3531      3242      2781      1024        11       326       864       240        80       496       384        65
@Sumon_Early_CS_L1D       255       430       178        82        39        33        10        18        32        32         1         0
@Sumon_Early_CPLX_L1D      1687       584       268       398      1507      1833       335       588        37       735       142        29
@Sumon_Late_stream_L1D       552         7         0         0         0         0         0         0         0         0         0         0
@Sumon_Late_CS_L1D       381       330       276        82        18         0         0         0         0         0         0         0
@Sumon_Late_CPLX_L1D       384        25        11         1         0         0         0         0         0         0         0         0
@sumon_overall_L2C     49528      1977     80374    130214    550622    550622
@Sumon_Early_by_class_L2C      1944        33      1409         0
@Sumon_Late_by_class_L2C         0         0         0         0

@Sumon_Early_by_cycle_L2C      7050      5213      5710      3737      1717      6372      1795       101      1461      4544      6539      5289
@Sumon_Late_by_cycle_L2C      1731       215        31         0         0         0         0         0         0         0         0         0
@Sumon_Early_stream_L2C         0         0         0         0         0         0         0         1         2        18       654      1269
@Sumon_Early_CS_L2C         0         0         0         0         0         0         0         0         0         9        12        12
@Sumon_Early_CPLX_L2C         0         0         0         0         0         0         0         0         0        27       232      1150
@Sumon_Late_stream_L2C         0         0         0         0         0         0         0         0         0         0         0         0
@Sumon_Late_CS_L2C         0         0         0         0         0         0         0         0         0         0         0         0
@Sumon_Late_CPLX_L2C         0         0         0         0         0         0         0         0         0         0         0         0
DRAM PAGES: 1048576
Allocated PAGES: 2442
