
*** ChampSim Multicore Out-of-Order Simulator ***

Warmup Instructions: 10000000
Simulation Instructions: 50000000
Number of CPUs: 1
LLC sets: 2048
LLC ways: 16
Off-chip DRAM Size: 4096 MB Channels: 1 Width: 64-bit Data Rate: 533 MT/s
CPU 0 runs traces/clientserver/server_003.champsimtrace.xz
.xz
CPU 0 Bimodal branch predictor
BTB has LRU replacement policy
ITLB has LRU replacement policy
DTLB has LRU replacement policy
STLB has LRU replacement policy
L1I has LRU replacement policy
IP Table Entries: 256
L1D has LRU replacement policy
IP_Table L2 entries: 256
L2C has LRU replacement policy
LLC has LRU replacement policy
Heartbeat CPU 0 instructions: 10000002 cycles: 2782470 heartbeat IPC: 3.59393 cumulative IPC: 3.59393 (Simulation time: 0 hr 17 min 26 sec) 

Warmup complete CPU 0 instructions: 10000002 cycles: 2782470 (Simulation time: 0 hr 17 min 26 sec) 

Heartbeat CPU 0 instructions: 20000003 cycles: 27690382 heartbeat IPC: 0.401479 cumulative IPC: 0.401479 (Simulation time: 0 hr 35 min 18 sec) 
Heartbeat CPU 0 instructions: 30000001 cycles: 48748411 heartbeat IPC: 0.474878 cumulative IPC: 0.435105 (Simulation time: 0 hr 52 min 24 sec) 
Heartbeat CPU 0 instructions: 40000001 cycles: 71310265 heartbeat IPC: 0.443226 cumulative IPC: 0.437779 (Simulation time: 1 hr 10 min 26 sec) 
Heartbeat CPU 0 instructions: 50000003 cycles: 91114519 heartbeat IPC: 0.504942 cumulative IPC: 0.452837 (Simulation time: 1 hr 30 min 42 sec) 
Heartbeat CPU 0 instructions: 60000000 cycles: 113691159 heartbeat IPC: 0.442936 cumulative IPC: 0.450821 (Simulation time: 1 hr 46 min 24 sec) 
Finished CPU 0 instructions: 50000003 cycles: 110908697 cumulative IPC: 0.450821 (Simulation time: 1 hr 46 min 24 sec) 

ChampSim completed all CPUs

Region of Interest Statistics

CPU 0 cumulative IPC: 0.450821 instructions: 50000003 cycles: 110908697
ITLB TOTAL     ACCESS:    8527737  HIT:    8384288  MISS:     143449  HIT %:    98.3179  MISS %:    1.68215   MPKI: 2.86898
ITLB LOAD TRANSLATION ACCESS:    8527737  HIT:    8384288  MISS:     143449  HIT %:    98.3179  MISS %:    1.68215   MPKI: 2.86898
ITLB PREFETCH  REQUESTED:          0  ISSUED:          0  USEFUL:          0  USELESS:          0
ITLB USEFUL LOAD PREFETCHES:          0 PREFETCH ISSUED TO LOWER LEVEL:          0  ACCURACY: -nan
ITLB TIMELY PREFETCHES:          0 LATE PREFETCHES: 0 DROPPED PREFETCHES: 0
ITLB PREFETCHES SAME FILL-ORIGIN LEVEL: 0 DIFFERENT FILL-ORIGIN LEVEL: 0
ITLB AVERAGE MISS LATENCY: 16.9309 cycles
ITLB RQ	ACCESS:   10168232	FORWARD:          0	MERGED:    1603276	TO_CACHE:    8564956

DTLB TOTAL     ACCESS:   11267715  HIT:   10827192  MISS:     440523  HIT %:    96.0904  MISS %:     3.9096   MPKI: 8.81046
DTLB LOAD TRANSLATION ACCESS:   11267715  HIT:   10827192  MISS:     440523  HIT %:    96.0904  MISS %:     3.9096   MPKI: 8.81046
DTLB PREFETCH  REQUESTED:          0  ISSUED:          0  USEFUL:          0  USELESS:          0
DTLB USEFUL LOAD PREFETCHES:          0 PREFETCH ISSUED TO LOWER LEVEL:          0  ACCURACY: -nan
DTLB TIMELY PREFETCHES:          0 LATE PREFETCHES: 0 DROPPED PREFETCHES: 0
DTLB PREFETCHES SAME FILL-ORIGIN LEVEL: 0 DIFFERENT FILL-ORIGIN LEVEL: 0
DTLB AVERAGE MISS LATENCY: 15.8963 cycles
DTLB RQ	ACCESS:   13821063	FORWARD:          0	MERGED:    2527469	TO_CACHE:   11293594

STLB TOTAL     ACCESS:    1241045  HIT:    1176143  MISS:      64902  HIT %:    94.7704  MISS %:    5.22963   MPKI: 1.29804
STLB LOAD TRANSLATION ACCESS:     583972  HIT:     519070  MISS:      64902  HIT %:    88.8861  MISS %:    11.1139   MPKI: 1.29804
STLB TRANSLATION FROM L1D PREFETCHER ACCESS:     657073  HIT:     657073  MISS:          0  HIT %:        100  MISS %:          0   MPKI: 0
STLB PREFETCH  REQUESTED:          0  ISSUED:          0  USEFUL:          0  USELESS:          0
STLB USEFUL LOAD PREFETCHES:          0 PREFETCH ISSUED TO LOWER LEVEL:          0  ACCURACY: -nan
STLB TIMELY PREFETCHES:          0 LATE PREFETCHES: 0 DROPPED PREFETCHES: 0
STLB PREFETCHES SAME FILL-ORIGIN LEVEL: 0 DIFFERENT FILL-ORIGIN LEVEL: 0
STLB AVERAGE MISS LATENCY: 64.1627 cycles
STLB RQ	ACCESS:    1386012	FORWARD:          0	MERGED:     144967	TO_CACHE:    1241045

STLB Hit, L1D data hit: 0
STLB Hit, L2C data hit: 0
STLB Hit, LLC data hit: 0
STLB Hit, LLC data miss: 0
STLB STLB hints to L2: 0
L1D TOTAL     ACCESS:   14370166  HIT:   13411382  MISS:     958784  HIT %:     93.328  MISS %:    6.67205   MPKI: 19.1757
L1D LOAD      ACCESS:    8818175  HIT:    8272459  MISS:     545716  HIT %:    93.8115  MISS %:    6.18854   MPKI: 10.9143
L1D RFO       ACCESS:    4775892  HIT:    4643608  MISS:     132284  HIT %:    97.2302  MISS %:    2.76983   MPKI: 2.64568
L1D PREFETCH  ACCESS:     776099  HIT:     495315  MISS:     280784  HIT %:    63.8211  MISS %:    36.1789   MPKI: 5.61568
L1D PREFETCH  REQUESTED:    1604531  ISSUED:    1604368  USEFUL:      91688  USELESS:     188915
L1D USEFUL LOAD PREFETCHES:      91688 PREFETCH ISSUED TO LOWER LEVEL:     281530  ACCURACY: 32.5678
L1D TIMELY PREFETCHES:      91688 LATE PREFETCHES: 10213 DROPPED PREFETCHES: 0
L1D PREFETCHES SAME FILL-ORIGIN LEVEL: 281530 DIFFERENT FILL-ORIGIN LEVEL: 0
L1D AVERAGE MISS LATENCY: 55288.8 cycles
L1D RQ	ACCESS:   12776568	FORWARD:          0	MERGED:    3813341	TO_CACHE:    8868552
L1D WQ	ACCESS:    5046710	FORWARD:      94963	MERGED:      94199	TO_CACHE:    4952511
L1D PQ	ACCESS:     802328	FORWARD:          0	MERGED:          0	TO_CACHE:     802040

L1D UNIQUE REGIONS ACCESSED: 0
L1D REGIONS CONFLICTS: 0
L1D Cross Page Prefetch Requests: 0
L1D Same Page Prefetch Requests: 854756
L1D ROI Sum of L1D PQ occupancy: 11028519
L1D PREFETCHES PUSHED FROM L2C: 0
L1I TOTAL     ACCESS:    9910270  HIT:    8949922  MISS:     960348  HIT %:    90.3096  MISS %:    9.69043   MPKI: 19.207
L1I LOAD      ACCESS:    9910270  HIT:    8949922  MISS:     960348  HIT %:    90.3096  MISS %:    9.69043   MPKI: 19.207
L1I PREFETCH  REQUESTED:          0  ISSUED:          0  USEFUL:          0  USELESS:          0
L1I USEFUL LOAD PREFETCHES:          0 PREFETCH ISSUED TO LOWER LEVEL:          0  ACCURACY: -nan
L1I TIMELY PREFETCHES:          0 LATE PREFETCHES: 0 DROPPED PREFETCHES: 0
L1I PREFETCHES SAME FILL-ORIGIN LEVEL: 0 DIFFERENT FILL-ORIGIN LEVEL: 0
L1I AVERAGE MISS LATENCY: 34.8676 cycles
L1I RQ	ACCESS:   14508330	FORWARD:          0	MERGED:    4340098	TO_CACHE:   10168232

BTB TOTAL     ACCESS:    6627006  HIT:    5675347  MISS:     951659  HIT %:    85.6397  MISS %:    14.3603   MPKI: 19.0332
BTB BRANCH_DIRECT_JUMP	ACCESS:     520041  HIT:     471770  MISS:      48271
BTB BRANCH_INDIRECT	ACCESS:     160003  HIT:     129661  MISS:      30342
BTB BRANCH_CONDITIONAL	ACCESS:    3703093  HIT:    3527095  MISS:     175998
BTB BRANCH_DIRECT_CALL	ACCESS:     672992  HIT:     580422  MISS:      92570
BTB BRANCH_INDIRECT_CALL	ACCESS:     440371  HIT:     281129  MISS:     159242
BTB BRANCH_RETURN	ACCESS:    1130506  HIT:     685270  MISS:     445236
BTB BRANCH_OTHER ACCESS:          0  HIT:          0  MISS:          0

L2C TOTAL     ACCESS:    2569847  HIT:    1678888  MISS:     890959  HIT %:    65.3303  MISS %:    34.6697   MPKI: 17.8192
L2C LOAD      ACCESS:    1506042  HIT:     950198  MISS:     555844  HIT %:    63.0924  MISS %:    36.9076   MPKI: 11.1169
L2C DATA LOAD MPKI: 3.46146
L2C INSTRUCTION LOAD MPKI: 7.65542
L2C RFO       ACCESS:     131532  HIT:      45447  MISS:      86085  HIT %:     34.552  MISS %:     65.448   MPKI: 1.7217
L2C PREFETCH  ACCESS:     591713  HIT:     381450  MISS:     210263  HIT %:    64.4654  MISS %:    35.5346   MPKI: 4.20526
L2C DATA PREFETCH MPKI: 4.20526
L2C INSTRUCTION PREFETCH MPKI: 0
L2C WRITEBACK ACCESS:     259735  HIT:     257926  MISS:       1809  HIT %:    99.3035  MISS %:   0.696479   MPKI: 0.03618
L2C LOAD TRANSLATION ACCESS:      80825  HIT:      43867  MISS:      36958  HIT %:     54.274  MISS %:     45.726   MPKI: 0.73916
L2C PREFETCH  REQUESTED:     328537  ISSUED:     328537  USEFUL:      51857  USELESS:     158281
L2C USEFUL LOAD PREFETCHES:      51857 PREFETCH ISSUED TO LOWER LEVEL:     213958  ACCURACY: 24.237
L2C TIMELY PREFETCHES:      51857 LATE PREFETCHES: 3694 DROPPED PREFETCHES: 0
L2C PREFETCHES SAME FILL-ORIGIN LEVEL: 127384 DIFFERENT FILL-ORIGIN LEVEL: 0
L2C AVERAGE MISS LATENCY: 93.3415 cycles
L2C RQ	ACCESS:    1718428	FORWARD:          0	MERGED:          0	TO_CACHE:    1718399
L2C WQ	ACCESS:     259735	FORWARD:         39	MERGED:          0	TO_CACHE:     259735
L2C PQ	ACCESS:     610067	FORWARD:          0	MERGED:       5038	TO_CACHE:     605019

L2C Instructions Evicting Data 186722
L2C Translations Evicting Data 18312
L2C Data Evicting Data 262685
L2C Instructions Evicting Instructions 178341
L2C Translations Evicting Instructions 17234
L2C Data Evicting Instructions 188621
L2C Instructions Evicting Translations 17708
L2C Translations Evicting Translations 1412
L2C Data Evicting Translations 18115
L2C Dense regions hint from L2: 0
PSCL5 TOTAL     ACCESS:      64902  HIT:      64902  MISS:          0  HIT %:        100  MISS %:          0   MPKI: 0
PSCL5 LOAD TRANSLATION ACCESS:      64902  HIT:      64902  MISS:          0  HIT %:        100  MISS %:          0   MPKI: 0
PSCL5 PREFETCH  REQUESTED:          0  ISSUED:          0  USEFUL:          0  USELESS:          0
PSCL5 USEFUL LOAD PREFETCHES:          0 PREFETCH ISSUED TO LOWER LEVEL:          0  ACCURACY: -nan
PSCL5 TIMELY PREFETCHES:          0 LATE PREFETCHES: 0 DROPPED PREFETCHES: 0
PSCL5 PREFETCHES SAME FILL-ORIGIN LEVEL: 0 DIFFERENT FILL-ORIGIN LEVEL: 0

PSCL4 TOTAL     ACCESS:      62909  HIT:      62748  MISS:        161  HIT %:    99.7441  MISS %:   0.255925   MPKI: 0.00322
PSCL4 LOAD TRANSLATION ACCESS:      62909  HIT:      62748  MISS:        161  HIT %:    99.7441  MISS %:   0.255925   MPKI: 0.00322
PSCL4 PREFETCH  REQUESTED:          0  ISSUED:          0  USEFUL:          0  USELESS:          0
PSCL4 USEFUL LOAD PREFETCHES:          0 PREFETCH ISSUED TO LOWER LEVEL:          0  ACCURACY: -nan
PSCL4 TIMELY PREFETCHES:          0 LATE PREFETCHES: 0 DROPPED PREFETCHES: 0
PSCL4 PREFETCHES SAME FILL-ORIGIN LEVEL: 0 DIFFERENT FILL-ORIGIN LEVEL: 0

PSCL3 TOTAL     ACCESS:      64504  HIT:      64061  MISS:        443  HIT %:    99.3132  MISS %:   0.686779   MPKI: 0.00886
PSCL3 LOAD TRANSLATION ACCESS:      64504  HIT:      64061  MISS:        443  HIT %:    99.3132  MISS %:   0.686779   MPKI: 0.00886
PSCL3 PREFETCH  REQUESTED:          0  ISSUED:          0  USEFUL:          0  USELESS:          0
PSCL3 USEFUL LOAD PREFETCHES:          0 PREFETCH ISSUED TO LOWER LEVEL:          0  ACCURACY: -nan
PSCL3 TIMELY PREFETCHES:          0 LATE PREFETCHES: 0 DROPPED PREFETCHES: 0
PSCL3 PREFETCHES SAME FILL-ORIGIN LEVEL: 0 DIFFERENT FILL-ORIGIN LEVEL: 0

PSCL2 TOTAL     ACCESS:      64902  HIT:      49524  MISS:      15378  HIT %:    76.3058  MISS %:    23.6942   MPKI: 0.30756
PSCL2 LOAD TRANSLATION ACCESS:      64902  HIT:      49524  MISS:      15378  HIT %:    76.3058  MISS %:    23.6942   MPKI: 0.30756
PSCL2 PREFETCH  REQUESTED:          0  ISSUED:          0  USEFUL:          0  USELESS:          0
PSCL2 USEFUL LOAD PREFETCHES:          0 PREFETCH ISSUED TO LOWER LEVEL:          0  ACCURACY: -nan
PSCL2 TIMELY PREFETCHES:          0 LATE PREFETCHES: 0 DROPPED PREFETCHES: 0
PSCL2 PREFETCHES SAME FILL-ORIGIN LEVEL: 0 DIFFERENT FILL-ORIGIN LEVEL: 0

LLC TOTAL     ACCESS:    1045044  HIT:     858455  MISS:     186589  HIT %:    82.1453  MISS %:    17.8547   MPKI: 3.73178
LLC LOAD      ACCESS:     552381  HIT:     477422  MISS:      74959  HIT %:    86.4298  MISS %:    13.5702   MPKI: 1.49918
LLC RFO       ACCESS:      85850  HIT:      34064  MISS:      51786  HIT %:    39.6785  MISS %:    60.3215   MPKI: 1.03572
LLC PREFETCH  ACCESS:     213955  HIT:     158714  MISS:      55241  HIT %:     74.181  MISS %:     25.819   MPKI: 1.10482
LLC WRITEBACK ACCESS:     155900  HIT:     155610  MISS:        290  HIT %:     99.814  MISS %:   0.186017   MPKI: 0.0058
LLC LOAD TRANSLATION ACCESS:      36958  HIT:      32645  MISS:       4313  HIT %:      88.33  MISS %:      11.67   MPKI: 0.08626
LLC PREFETCH  REQUESTED:          0  ISSUED:          0  USEFUL:       5920  USELESS:      55200
LLC USEFUL LOAD PREFETCHES:       5920 PREFETCH ISSUED TO LOWER LEVEL:      55241  ACCURACY: 10.7167
LLC TIMELY PREFETCHES:       5920 LATE PREFETCHES: 0 DROPPED PREFETCHES: 0
LLC PREFETCHES SAME FILL-ORIGIN LEVEL: 0 DIFFERENT FILL-ORIGIN LEVEL: 0
LLC AVERAGE MISS LATENCY: 303.794 cycles
LLC RQ	ACCESS:     675193	FORWARD:          0	MERGED:          0	TO_CACHE:     675189
LLC WQ	ACCESS:     155900	FORWARD:          6	MERGED:          0	TO_CACHE:     155900
LLC PQ	ACCESS:     213958	FORWARD:          0	MERGED:          0	TO_CACHE:     213956

LLC Dense regions hint to LLC: 0

RAW hits: 896573
Loads Generated: 13673141
Loads sent to L1D: 12776568
Stores Generated: 5046706
Stores sent to L1D: 5046710
Major fault: 0 Minor fault: 7349
Allocated PAGES: 7349

stream: 
stream:times selected: 1366334
stream:pref_filled: 209379
stream:pref_useful: 65234
stream:pref_late: 5559
stream:misses: 34393
stream:misses_by_poll: 0

CS: 
CS:times selected: 67443
CS:pref_filled: 34409
CS:pref_useful: 22953
CS:pref_late: 2686
CS:misses: 7296
CS:misses_by_poll: 117

CPLX: 
CPLX:times selected: 1289602
CPLX:pref_filled: 52734
CPLX:pref_useful: 8697
CPLX:pref_late: 510
CPLX:misses: 147118
CPLX:misses_by_poll: 70

NL_L1: 
NL:times selected: 15204
NL:pref_filled: 2842
NL:pref_useful: 769
NL:pref_late: 76
NL:misses: 2182
NL:misses_by_poll: 4

total selections: 2738583
total_filled: 280784
total_useful: 91688
total_late: 9036
total_polluted: 191
total_misses_after_warmup: 596091
conflicts: 2263672
Degree Incremented Times: 0
Degree Decremented Times: 137987

L1 IP Table Write Accesses: 5993487
L1 IP Table Read Accesses: 3729815
L1 RST Write Accesses: 1292667
L1 RST Read Accesses: 2585334
L1 CSPT Write Accesses: 1292667
L1 CSPT Read Accesses: 2515200
L1 RR Filter Tag Write Accesses: 802491
L1 RR Filter Tag Read Accesses: 44782137
L1 IP Table Tag Write Accesses: 8868550
L1 IP Table Tag Read Accesses: 8868550
L1 RST Tag Write Accesses: 0
L1 RST Tag Read Accesses: 11922274
L1 RR Filter Write Accesses: 0
L1 RR Filter Read Accesses: 1622022
test: 550901
L2 IP Table Read Accesses: 1310456
L2 IP Table Write Accesses: 1346977
L2 IP Table Tag Read Accesses: 822038
L2 IP Table Tag Write Accesses: 822038

DRAM Statistics
 CHANNEL 0
 RQ ROW_BUFFER_HIT:      51145  ROW_BUFFER_MISS:     135153
 DBUS_CONGESTED:     141810
 WQ ROW_BUFFER_HIT:      26937  ROW_BUFFER_MISS:      48838  FULL:          0

 AVG_CONGESTED_CYCLE: 46
 All warmup complete: 2
Channel 0 Bank busy for read cycles: 0
Channel 0 Bank busy for write cycles: 0
Channel 0
Rank 0
0banks busy for read cycles: 83697185
0banks busy for write cycles: 23707
1banks busy for read cycles: 11695200
1banks busy for write cycles: 3719809
2banks busy for read cycles: 3463120
2banks busy for write cycles: 1335733
3banks busy for read cycles: 1017831
3banks busy for write cycles: 688495
4banks busy for read cycles: 359415
4banks busy for write cycles: 481403
5banks busy for read cycles: 140700
5banks busy for write cycles: 371722
6banks busy for read cycles: 73164
6banks busy for write cycles: 345436
7banks busy for read cycles: 99361
7banks busy for write cycles: 481558
8banks busy for read cycles: 1297102
8banks busy for write cycles: 1617757

CPU 0 Branch Prediction Accuracy: 92.2411% MPKI: 15.9118 Average ROB Occupancy at Mispredict: 27.6857
Branch types
NOT_BRANCH: 39745997 79.492%
BRANCH_DIRECT_JUMP: 520041 1.04008%
BRANCH_INDIRECT: 160003 0.320006%
BRANCH_CONDITIONAL: 7330065 14.6601%
BRANCH_DIRECT_CALL: 672992 1.34598%
BRANCH_INDIRECT_CALL: 440371 0.880742%
BRANCH_RETURN: 1130506 2.26101%
BRANCH_OTHER: 0 0%

@sumon_overall_L1D     91688     10213    188915    280784   1604368   1604531
@Sumon_Early_by_class_L1D     60942     20187      8008        74
@Sumon_Late_by_class_L1D      5214      2484       463        74

@Sumon_Early_by_cycle_L1D     27140      9732     11506      5311      3201      8809      6154      5287      6018      5826      2015       689
@Sumon_Late_by_cycle_L1D      7773       466        93        23        23        33         2         0         0         0         0         0
@Sumon_Early_stream_L1D     18456      7263      6513      3276      1950      5341      3285      3831      4565      4496      1468       498
@Sumon_Early_CS_L1D      6470      1533      4061      1379       817      2183      1988       682       470       346       195        63
@Sumon_Early_CPLX_L1D      1410       595       684       489       337      1034       779       648       806       819       301       106
@Sumon_Late_stream_L1D      4854       298        41         7        11         3         0         0         0         0         0         0
@Sumon_Late_CS_L1D      2275       113        41        15         8        30         2         0         0         0         0         0
@Sumon_Late_CPLX_L1D       419        33         7         1         3         0         0         0         0         0         0         0
@sumon_overall_L2C     51857      3694    158281    210263    328537    328537
@Sumon_Early_by_class_L2C      7331      1665      1965         0
@Sumon_Late_by_class_L2C         0         0         0         0

@Sumon_Early_by_cycle_L2C      5954      4255      4576      2932      1918      5980      3040      2262      1620      2271      2131     14918
@Sumon_Late_by_cycle_L2C      2718       901        65         7         3         0         0         0         0         0         0         0
@Sumon_Early_stream_L2C         0         0         0         0         0         0         0         1        29       346       685      6270
@Sumon_Early_CS_L2C         0         0         0         0         0         0         0         0         2        27       137      1499
@Sumon_Early_CPLX_L2C         0         0         0         0         0         0         0         2         3        60       151      1749
@Sumon_Late_stream_L2C         0         0         0         0         0         0         0         0         0         0         0         0
@Sumon_Late_CS_L2C         0         0         0         0         0         0         0         0         0         0         0         0
@Sumon_Late_CPLX_L2C         0         0         0         0         0         0         0         0         0         0         0         0
DRAM PAGES: 1048576
Allocated PAGES: 7349
