
*** ChampSim Multicore Out-of-Order Simulator ***

Warmup Instructions: 10000000
Simulation Instructions: 50000000
Number of CPUs: 1
LLC sets: 2048
LLC ways: 16
Off-chip DRAM Size: 4096 MB Channels: 1 Width: 64-bit Data Rate: 533 MT/s
CPU 0 runs traces/clientserver/server_037.champsimtrace.xz
.xz
CPU 0 Bimodal branch predictor
BTB has LRU replacement policy
ITLB has LRU replacement policy
DTLB has LRU replacement policy
STLB has LRU replacement policy
L1I has LRU replacement policy
IP Table Entries: 256
L1D has LRU replacement policy
IP_Table L2 entries: 256
L2C has LRU replacement policy
LLC has LRU replacement policy
Heartbeat CPU 0 instructions: 10000000 cycles: 2752082 heartbeat IPC: 3.63361 cumulative IPC: 3.63361 (Simulation time: 0 hr 18 min 46 sec) 

Warmup complete CPU 0 instructions: 10000004 cycles: 2752083 (Simulation time: 0 hr 18 min 46 sec) 

Heartbeat CPU 0 instructions: 20000001 cycles: 20771012 heartbeat IPC: 0.554972 cumulative IPC: 0.554972 (Simulation time: 0 hr 35 min 20 sec) 
Heartbeat CPU 0 instructions: 30000000 cycles: 38507232 heartbeat IPC: 0.563818 cumulative IPC: 0.55936 (Simulation time: 0 hr 51 min 49 sec) 
Heartbeat CPU 0 instructions: 40000000 cycles: 56502638 heartbeat IPC: 0.555697 cumulative IPC: 0.558134 (Simulation time: 1 hr 8 min 19 sec) 
Heartbeat CPU 0 instructions: 50000000 cycles: 74381556 heartbeat IPC: 0.559318 cumulative IPC: 0.558429 (Simulation time: 1 hr 24 min 54 sec) 
Heartbeat CPU 0 instructions: 60000001 cycles: 92298041 heartbeat IPC: 0.558145 cumulative IPC: 0.558372 (Simulation time: 1 hr 40 min 52 sec) 
Finished CPU 0 instructions: 50000001 cycles: 89545965 cumulative IPC: 0.558372 (Simulation time: 1 hr 40 min 52 sec) 

ChampSim completed all CPUs

Region of Interest Statistics

CPU 0 cumulative IPC: 0.558372 instructions: 50000001 cycles: 89545965
ITLB TOTAL     ACCESS:    8848282  HIT:    8221315  MISS:     626967  HIT %:    92.9143  MISS %:    7.08575   MPKI: 12.5393
ITLB LOAD TRANSLATION ACCESS:    8848282  HIT:    8221315  MISS:     626967  HIT %:    92.9143  MISS %:    7.08575   MPKI: 12.5393
ITLB PREFETCH  REQUESTED:          0  ISSUED:          0  USEFUL:          0  USELESS:          0
ITLB USEFUL LOAD PREFETCHES:          0 PREFETCH ISSUED TO LOWER LEVEL:          0  ACCURACY: -nan
ITLB TIMELY PREFETCHES:          0 LATE PREFETCHES: 0 DROPPED PREFETCHES: 0
ITLB PREFETCHES SAME FILL-ORIGIN LEVEL: 0 DIFFERENT FILL-ORIGIN LEVEL: 0
ITLB AVERAGE MISS LATENCY: 9.05298 cycles
ITLB RQ	ACCESS:   10657646	FORWARD:          0	MERGED:    1614992	TO_CACHE:    9042654

DTLB TOTAL     ACCESS:   10842248  HIT:   10320218  MISS:     522030  HIT %:    95.1852  MISS %:    4.81478   MPKI: 10.4406
DTLB LOAD TRANSLATION ACCESS:   10842248  HIT:   10320218  MISS:     522030  HIT %:    95.1852  MISS %:    4.81478   MPKI: 10.4406
DTLB PREFETCH  REQUESTED:          0  ISSUED:          0  USEFUL:          0  USELESS:          0
DTLB USEFUL LOAD PREFETCHES:          0 PREFETCH ISSUED TO LOWER LEVEL:          0  ACCURACY: -nan
DTLB TIMELY PREFETCHES:          0 LATE PREFETCHES: 0 DROPPED PREFETCHES: 0
DTLB PREFETCHES SAME FILL-ORIGIN LEVEL: 0 DIFFERENT FILL-ORIGIN LEVEL: 0
DTLB AVERAGE MISS LATENCY: 10.2442 cycles
DTLB RQ	ACCESS:   14424903	FORWARD:          0	MERGED:    3544500	TO_CACHE:   10880403

STLB TOTAL     ACCESS:    1269057  HIT:    1263224  MISS:       5833  HIT %:    99.5404  MISS %:   0.459633   MPKI: 0.11666
STLB LOAD TRANSLATION ACCESS:    1148997  HIT:    1143164  MISS:       5833  HIT %:    99.4923  MISS %:    0.50766   MPKI: 0.11666
STLB TRANSLATION FROM L1D PREFETCHER ACCESS:     120060  HIT:     120060  MISS:          0  HIT %:        100  MISS %:          0   MPKI: 0
STLB PREFETCH  REQUESTED:          0  ISSUED:          0  USEFUL:          0  USELESS:          0
STLB USEFUL LOAD PREFETCHES:          0 PREFETCH ISSUED TO LOWER LEVEL:          0  ACCURACY: -nan
STLB TIMELY PREFETCHES:          0 LATE PREFETCHES: 0 DROPPED PREFETCHES: 0
STLB PREFETCHES SAME FILL-ORIGIN LEVEL: 0 DIFFERENT FILL-ORIGIN LEVEL: 0
STLB AVERAGE MISS LATENCY: 113.869 cycles
STLB RQ	ACCESS:    1357465	FORWARD:          0	MERGED:      88408	TO_CACHE:    1269057

STLB Hit, L1D data hit: 0
STLB Hit, L2C data hit: 0
STLB Hit, LLC data hit: 0
STLB Hit, LLC data miss: 0
STLB STLB hints to L2: 0
L1D TOTAL     ACCESS:   14529243  HIT:   14028521  MISS:     500722  HIT %:    96.5537  MISS %:     3.4463   MPKI: 10.0144
L1D LOAD      ACCESS:    8057868  HIT:    7676902  MISS:     380966  HIT %:    95.2721  MISS %:    4.72788   MPKI: 7.61932
L1D RFO       ACCESS:    6269968  HIT:    6205950  MISS:      64018  HIT %:     98.979  MISS %:    1.02103   MPKI: 1.28036
L1D PREFETCH  ACCESS:     201407  HIT:     145669  MISS:      55738  HIT %:    72.3257  MISS %:    27.6743   MPKI: 1.11476
L1D PREFETCH  REQUESTED:     417091  ISSUED:     416992  USEFUL:      16583  USELESS:      39160
L1D USEFUL LOAD PREFETCHES:      16583 PREFETCH ISSUED TO LOWER LEVEL:      55738  ACCURACY: 29.7517
L1D TIMELY PREFETCHES:      16583 LATE PREFETCHES: 1482 DROPPED PREFETCHES: 0
L1D PREFETCHES SAME FILL-ORIGIN LEVEL: 55738 DIFFERENT FILL-ORIGIN LEVEL: 0
L1D AVERAGE MISS LATENCY: 36.9795 cycles
L1D RQ	ACCESS:   11757514	FORWARD:          0	MERGED:    3505802	TO_CACHE:    8082400
L1D WQ	ACCESS:    6389167	FORWARD:     169368	MERGED:      46664	TO_CACHE:    6342503
L1D PQ	ACCESS:     208524	FORWARD:          0	MERGED:          0	TO_CACHE:     208468

L1D UNIQUE REGIONS ACCESSED: 0
L1D REGIONS CONFLICTS: 0
L1D Cross Page Prefetch Requests: 0
L1D Same Page Prefetch Requests: 246098
L1D ROI Sum of L1D PQ occupancy: 2771566
L1D PREFETCHES PUSHED FROM L2C: 0
L1I TOTAL     ACCESS:    9639774  HIT:    5643266  MISS:    3996508  HIT %:    58.5415  MISS %:    41.4585   MPKI: 79.9302
L1I LOAD      ACCESS:    9639774  HIT:    5643266  MISS:    3996508  HIT %:    58.5415  MISS %:    41.4585   MPKI: 79.9302
L1I PREFETCH  REQUESTED:          0  ISSUED:          0  USEFUL:          0  USELESS:          0
L1I USEFUL LOAD PREFETCHES:          0 PREFETCH ISSUED TO LOWER LEVEL:          0  ACCURACY: -nan
L1I TIMELY PREFETCHES:          0 LATE PREFETCHES: 0 DROPPED PREFETCHES: 0
L1I PREFETCHES SAME FILL-ORIGIN LEVEL: 0 DIFFERENT FILL-ORIGIN LEVEL: 0
L1I AVERAGE MISS LATENCY: 14.1763 cycles
L1I RQ	ACCESS:   14761796	FORWARD:          0	MERGED:    4104150	TO_CACHE:   10657646

BTB TOTAL     ACCESS:    5416946  HIT:    4897168  MISS:     519778  HIT %:    90.4046  MISS %:    9.59541   MPKI: 10.3956
BTB BRANCH_DIRECT_JUMP	ACCESS:     540054  HIT:     527588  MISS:      12466
BTB BRANCH_INDIRECT	ACCESS:      59163  HIT:      59065  MISS:         98
BTB BRANCH_CONDITIONAL	ACCESS:    2342991  HIT:    2302512  MISS:      40479
BTB BRANCH_DIRECT_CALL	ACCESS:    1004108  HIT:     967236  MISS:      36872
BTB BRANCH_INDIRECT_CALL	ACCESS:     233270  HIT:     188049  MISS:      45221
BTB BRANCH_RETURN	ACCESS:    1237360  HIT:     852718  MISS:     384642
BTB BRANCH_OTHER ACCESS:          0  HIT:          0  MISS:          0

L2C TOTAL     ACCESS:    5027167  HIT:    4749643  MISS:     277524  HIT %:    94.4795  MISS %:    5.52048   MPKI: 5.55048
L2C LOAD      ACCESS:    4377471  HIT:    4230496  MISS:     146975  HIT %:    96.6425  MISS %:    3.35753   MPKI: 2.9395
L2C DATA LOAD MPKI: 2.76652
L2C INSTRUCTION LOAD MPKI: 0.17298
L2C RFO       ACCESS:      64018  HIT:      33958  MISS:      30060  HIT %:    53.0445  MISS %:    46.9555   MPKI: 0.6012
L2C PREFETCH  ACCESS:     341940  HIT:     247539  MISS:      94401  HIT %:    72.3925  MISS %:    27.6075   MPKI: 1.88802
L2C DATA PREFETCH MPKI: 1.88802
L2C INSTRUCTION PREFETCH MPKI: 0
L2C WRITEBACK ACCESS:     235657  HIT:     235069  MISS:        588  HIT %:    99.7505  MISS %:   0.249515   MPKI: 0.01176
L2C LOAD TRANSLATION ACCESS:       8081  HIT:       2581  MISS:       5500  HIT %:    31.9391  MISS %:    68.0609   MPKI: 0.11
L2C PREFETCH  REQUESTED:     304379  ISSUED:     304378  USEFUL:      33401  USELESS:      61092
L2C USEFUL LOAD PREFETCHES:      33401 PREFETCH ISSUED TO LOWER LEVEL:      95094  ACCURACY: 35.1242
L2C TIMELY PREFETCHES:      33401 LATE PREFETCHES: 693 DROPPED PREFETCHES: 0
L2C PREFETCHES SAME FILL-ORIGIN LEVEL: 76179 DIFFERENT FILL-ORIGIN LEVEL: 0
L2C AVERAGE MISS LATENCY: 53.5532 cycles
L2C RQ	ACCESS:    4449574	FORWARD:          0	MERGED:          0	TO_CACHE:    4449570
L2C WQ	ACCESS:     235657	FORWARD:          5	MERGED:          0	TO_CACHE:     235657
L2C PQ	ACCESS:     360116	FORWARD:          0	MERGED:       6760	TO_CACHE:     353355

L2C Instructions Evicting Data 7931
L2C Translations Evicting Data 5114
L2C Data Evicting Data 249749
L2C Instructions Evicting Instructions 540
L2C Translations Evicting Instructions 211
L2C Data Evicting Instructions 7891
L2C Instructions Evicting Translations 178
L2C Translations Evicting Translations 173
L2C Data Evicting Translations 5130
L2C Dense regions hint from L2: 0
PSCL5 TOTAL     ACCESS:       5833  HIT:       5833  MISS:          0  HIT %:        100  MISS %:          0   MPKI: 0
PSCL5 LOAD TRANSLATION ACCESS:       5833  HIT:       5833  MISS:          0  HIT %:        100  MISS %:          0   MPKI: 0
PSCL5 PREFETCH  REQUESTED:          0  ISSUED:          0  USEFUL:          0  USELESS:          0
PSCL5 USEFUL LOAD PREFETCHES:          0 PREFETCH ISSUED TO LOWER LEVEL:          0  ACCURACY: -nan
PSCL5 TIMELY PREFETCHES:          0 LATE PREFETCHES: 0 DROPPED PREFETCHES: 0
PSCL5 PREFETCHES SAME FILL-ORIGIN LEVEL: 0 DIFFERENT FILL-ORIGIN LEVEL: 0

PSCL4 TOTAL     ACCESS:       5833  HIT:       5833  MISS:          0  HIT %:        100  MISS %:          0   MPKI: 0
PSCL4 LOAD TRANSLATION ACCESS:       5833  HIT:       5833  MISS:          0  HIT %:        100  MISS %:          0   MPKI: 0
PSCL4 PREFETCH  REQUESTED:          0  ISSUED:          0  USEFUL:          0  USELESS:          0
PSCL4 USEFUL LOAD PREFETCHES:          0 PREFETCH ISSUED TO LOWER LEVEL:          0  ACCURACY: -nan
PSCL4 TIMELY PREFETCHES:          0 LATE PREFETCHES: 0 DROPPED PREFETCHES: 0
PSCL4 PREFETCHES SAME FILL-ORIGIN LEVEL: 0 DIFFERENT FILL-ORIGIN LEVEL: 0

PSCL3 TOTAL     ACCESS:       5809  HIT:       5779  MISS:         30  HIT %:    99.4836  MISS %:    0.51644   MPKI: 0.0006
PSCL3 LOAD TRANSLATION ACCESS:       5809  HIT:       5779  MISS:         30  HIT %:    99.4836  MISS %:    0.51644   MPKI: 0.0006
PSCL3 PREFETCH  REQUESTED:          0  ISSUED:          0  USEFUL:          0  USELESS:          0
PSCL3 USEFUL LOAD PREFETCHES:          0 PREFETCH ISSUED TO LOWER LEVEL:          0  ACCURACY: -nan
PSCL3 TIMELY PREFETCHES:          0 LATE PREFETCHES: 0 DROPPED PREFETCHES: 0
PSCL3 PREFETCHES SAME FILL-ORIGIN LEVEL: 0 DIFFERENT FILL-ORIGIN LEVEL: 0

PSCL2 TOTAL     ACCESS:       5833  HIT:       3588  MISS:       2245  HIT %:    61.5121  MISS %:    38.4879   MPKI: 0.0449
PSCL2 LOAD TRANSLATION ACCESS:       5833  HIT:       3588  MISS:       2245  HIT %:    61.5121  MISS %:    38.4879   MPKI: 0.0449
PSCL2 PREFETCH  REQUESTED:          0  ISSUED:          0  USEFUL:          0  USELESS:          0
PSCL2 USEFUL LOAD PREFETCHES:          0 PREFETCH ISSUED TO LOWER LEVEL:          0  ACCURACY: -nan
PSCL2 TIMELY PREFETCHES:          0 LATE PREFETCHES: 0 DROPPED PREFETCHES: 0
PSCL2 PREFETCHES SAME FILL-ORIGIN LEVEL: 0 DIFFERENT FILL-ORIGIN LEVEL: 0

LLC TOTAL     ACCESS:     405537  HIT:     375123  MISS:      30414  HIT %:    92.5003  MISS %:    7.49969   MPKI: 0.60828
LLC LOAD      ACCESS:     146282  HIT:     131412  MISS:      14870  HIT %:    89.8347  MISS %:    10.1653   MPKI: 0.2974
LLC RFO       ACCESS:      30060  HIT:      24193  MISS:       5867  HIT %:    80.4824  MISS %:    19.5176   MPKI: 0.11734
LLC PREFETCH  ACCESS:      95094  HIT:      86083  MISS:       9011  HIT %:    90.5241  MISS %:    9.47589   MPKI: 0.18022
LLC WRITEBACK ACCESS:     128601  HIT:     128492  MISS:        109  HIT %:    99.9152  MISS %:  0.0847583   MPKI: 0.00218
LLC LOAD TRANSLATION ACCESS:       5500  HIT:       4943  MISS:        557  HIT %:    89.8727  MISS %:    10.1273   MPKI: 0.01114
LLC PREFETCH  REQUESTED:          0  ISSUED:          0  USEFUL:        572  USELESS:       4563
LLC USEFUL LOAD PREFETCHES:        572 PREFETCH ISSUED TO LOWER LEVEL:       9011  ACCURACY: 6.3478
LLC TIMELY PREFETCHES:        572 LATE PREFETCHES: 0 DROPPED PREFETCHES: 0
LLC PREFETCHES SAME FILL-ORIGIN LEVEL: 0 DIFFERENT FILL-ORIGIN LEVEL: 0
LLC AVERAGE MISS LATENCY: 215.19 cycles
LLC RQ	ACCESS:     181842	FORWARD:          0	MERGED:          0	TO_CACHE:     181842
LLC WQ	ACCESS:     128601	FORWARD:          0	MERGED:          0	TO_CACHE:     128601
LLC PQ	ACCESS:      95094	FORWARD:          0	MERGED:          0	TO_CACHE:      95094

LLC Dense regions hint to LLC: 0

RAW hits: 729025
Loads Generated: 12486539
Loads sent to L1D: 11757514
Stores Generated: 6389161
Stores sent to L1D: 6389167
Major fault: 0 Minor fault: 4736
Allocated PAGES: 4736

stream: 
stream:times selected: 194829
stream:pref_filled: 33335
stream:pref_useful: 10978
stream:pref_late: 853
stream:misses: 475
stream:misses_by_poll: 0

CS: 
CS:times selected: 4707
CS:pref_filled: 1080
CS:pref_useful: 392
CS:pref_late: 657
CS:misses: 696
CS:misses_by_poll: 0

CPLX: 
CPLX:times selected: 187017
CPLX:pref_filled: 28319
CPLX:pref_useful: 7118
CPLX:pref_late: 186
CPLX:misses: 5380
CPLX:misses_by_poll: 1

NL_L1: 
NL:times selected: 4268
NL:pref_filled: 238
NL:pref_useful: 73
NL:pref_late: 0
NL:misses: 24
NL:misses_by_poll: 0

total selections: 390821
total_filled: 55738
total_useful: 16583
total_late: 1699
total_polluted: 1
total_misses_after_warmup: 405496
conflicts: 3696086
Degree Incremented Times: 1
Degree Decremented Times: 62054

L1 IP Table Write Accesses: 4217474
L1 IP Table Read Accesses: 521388
L1 RST Write Accesses: 165605
L1 RST Read Accesses: 331210
L1 CSPT Write Accesses: 165605
L1 CSPT Read Accesses: 326393
L1 RR Filter Tag Write Accesses: 208623
L1 RR Filter Tag Read Accesses: 9025655
L1 IP Table Tag Write Accesses: 8082398
L1 IP Table Tag Read Accesses: 8082398
L1 RST Tag Write Accesses: 0
L1 RST Tag Read Accesses: 1528085
L1 RR Filter Write Accesses: 0
L1 RR Filter Read Accesses: 294478
test: 70515
L2 IP Table Read Accesses: 556730
L2 IP Table Write Accesses: 726727
L2 IP Table Tag Read Accesses: 431705
L2 IP Table Tag Write Accesses: 431705

DRAM Statistics
 CHANNEL 0
 RQ ROW_BUFFER_HIT:       7148  ROW_BUFFER_MISS:      23157
 DBUS_CONGESTED:      13271
 WQ ROW_BUFFER_HIT:        472  ROW_BUFFER_MISS:       4821  FULL:          0

 AVG_CONGESTED_CYCLE: 45
 All warmup complete: 2
Channel 0 Bank busy for read cycles: 0
Channel 0 Bank busy for write cycles: 0
Channel 0
Rank 0
0banks busy for read cycles: 85755770
0banks busy for write cycles: 4108
1banks busy for read cycles: 1792966
1banks busy for write cycles: 668601
2banks busy for read cycles: 896468
2banks busy for write cycles: 97348
3banks busy for read cycles: 109282
3banks busy for write cycles: 16240
4banks busy for read cycles: 29085
4banks busy for write cycles: 8525
5banks busy for read cycles: 14777
5banks busy for write cycles: 5623
6banks busy for read cycles: 15427
6banks busy for write cycles: 2245
7banks busy for read cycles: 23733
7banks busy for write cycles: 2555
8banks busy for read cycles: 101484
8banks busy for write cycles: 1729

CPU 0 Branch Prediction Accuracy: 96.3938% MPKI: 6.5053 Average ROB Occupancy at Mispredict: 21.774
Branch types
NOT_BRANCH: 40980217 81.9604%
BRANCH_DIRECT_JUMP: 540054 1.08011%
BRANCH_INDIRECT: 59163 0.118326%
BRANCH_CONDITIONAL: 5945671 11.8913%
BRANCH_DIRECT_CALL: 1004108 2.00822%
BRANCH_INDIRECT_CALL: 233270 0.46654%
BRANCH_RETURN: 1237360 2.47472%
BRANCH_OTHER: 0 0%

@sumon_overall_L1D     16583      1482     39160     55738    416992    417091
@Sumon_Early_by_class_L1D      8993        44      5830         0
@Sumon_Late_by_class_L1D       643       657        96         0

@Sumon_Early_by_cycle_L1D       778       362        29        16       283      2965      1275      1359      6464      2590       255       207
@Sumon_Late_by_cycle_L1D       279       159       359       445       101        55         0         0         0         0         0         0
@Sumon_Early_stream_L1D       502        53        12        13        34      1360       814       745      3879      1401       125        55
@Sumon_Early_CS_L1D        14        26         3         0         1         0         0         0         0         0         0         0
@Sumon_Early_CPLX_L1D       187       255         9         3         0      1082       326       570      2470       673       121       134
@Sumon_Late_stream_L1D       114        54       158       257        39        21         0         0         0         0         0         0
@Sumon_Late_CS_L1D        74       100       200       188        62        33         0         0         0         0         0         0
@Sumon_Late_CPLX_L1D        89         5         1         0         0         1         0         0         0         0         0         0
@sumon_overall_L2C     33401       693     61092     94401    304378    304379
@Sumon_Early_by_class_L2C       936         0       700         0
@Sumon_Late_by_class_L2C         0        13         0         0

@Sumon_Early_by_cycle_L2C      2178      3032      6760       946      1659      8575      1148       639      1273      3862       231      3098
@Sumon_Late_by_cycle_L2C       626        53         2         7         5         0         0         0         0         0         0         0
@Sumon_Early_stream_L2C         0         0         0         0         0         0         0         0        55        15        35       831
@Sumon_Early_CS_L2C         0         0         0         0         0         0         0         0         0         0         0         0
@Sumon_Early_CPLX_L2C         0         0         0         0         0         0         0         3        16        51        17       613
@Sumon_Late_stream_L2C         0         0         0         0         0         0         0         0         0         0         0         0
@Sumon_Late_CS_L2C         0         0         1         7         5         0         0         0         0         0         0         0
@Sumon_Late_CPLX_L2C         0         0         0         0         0         0         0         0         0         0         0         0
DRAM PAGES: 1048576
Allocated PAGES: 4736
