
*** ChampSim Multicore Out-of-Order Simulator ***

Warmup Instructions: 10000000
Simulation Instructions: 50000000
Number of CPUs: 1
LLC sets: 2048
LLC ways: 16
Off-chip DRAM Size: 4096 MB Channels: 1 Width: 64-bit Data Rate: 533 MT/s
CPU 0 runs traces/clientserver/server_038.champsimtrace.xz
.xz
CPU 0 Bimodal branch predictor
BTB has LRU replacement policy
ITLB has LRU replacement policy
DTLB has LRU replacement policy
STLB has LRU replacement policy
L1I has LRU replacement policy
IP Table Entries: 256
L1D has LRU replacement policy
IP_Table L2 entries: 256
L2C has LRU replacement policy
LLC has LRU replacement policy
Heartbeat CPU 0 instructions: 10000001 cycles: 2752389 heartbeat IPC: 3.63321 cumulative IPC: 3.63321 (Simulation time: 0 hr 18 min 48 sec) 

Warmup complete CPU 0 instructions: 10000001 cycles: 2752389 (Simulation time: 0 hr 18 min 48 sec) 

Heartbeat CPU 0 instructions: 20000001 cycles: 20784352 heartbeat IPC: 0.554571 cumulative IPC: 0.554571 (Simulation time: 0 hr 35 min 27 sec) 
Heartbeat CPU 0 instructions: 30000003 cycles: 38743291 heartbeat IPC: 0.556826 cumulative IPC: 0.555696 (Simulation time: 0 hr 52 min 17 sec) 
Heartbeat CPU 0 instructions: 40000002 cycles: 56760328 heartbeat IPC: 0.55503 cumulative IPC: 0.555474 (Simulation time: 1 hr 9 min 11 sec) 
Heartbeat CPU 0 instructions: 50000003 cycles: 74721238 heartbeat IPC: 0.556765 cumulative IPC: 0.555796 (Simulation time: 1 hr 25 min 48 sec) 
Heartbeat CPU 0 instructions: 60000000 cycles: 92712545 heartbeat IPC: 0.555824 cumulative IPC: 0.555802 (Simulation time: 1 hr 41 min 46 sec) 
Finished CPU 0 instructions: 50000000 cycles: 89960160 cumulative IPC: 0.555802 (Simulation time: 1 hr 41 min 46 sec) 

ChampSim completed all CPUs

Region of Interest Statistics

CPU 0 cumulative IPC: 0.555802 instructions: 50000000 cycles: 89960160
ITLB TOTAL     ACCESS:    8847937  HIT:    8213341  MISS:     634596  HIT %:    92.8278  MISS %:    7.17225   MPKI: 12.6919
ITLB LOAD TRANSLATION ACCESS:    8847937  HIT:    8213341  MISS:     634596  HIT %:    92.8278  MISS %:    7.17225   MPKI: 12.6919
ITLB PREFETCH  REQUESTED:          0  ISSUED:          0  USEFUL:          0  USELESS:          0
ITLB USEFUL LOAD PREFETCHES:          0 PREFETCH ISSUED TO LOWER LEVEL:          0  ACCURACY: -nan
ITLB TIMELY PREFETCHES:          0 LATE PREFETCHES: 0 DROPPED PREFETCHES: 0
ITLB PREFETCHES SAME FILL-ORIGIN LEVEL: 0 DIFFERENT FILL-ORIGIN LEVEL: 0
ITLB AVERAGE MISS LATENCY: 9.05439 cycles
ITLB RQ	ACCESS:   10676653	FORWARD:          0	MERGED:    1630618	TO_CACHE:    9046035

DTLB TOTAL     ACCESS:   10914607  HIT:   10393017  MISS:     521590  HIT %:    95.2212  MISS %:    4.77883   MPKI: 10.4318
DTLB LOAD TRANSLATION ACCESS:   10914607  HIT:   10393017  MISS:     521590  HIT %:    95.2212  MISS %:    4.77883   MPKI: 10.4318
DTLB PREFETCH  REQUESTED:          0  ISSUED:          0  USEFUL:          0  USELESS:          0
DTLB USEFUL LOAD PREFETCHES:          0 PREFETCH ISSUED TO LOWER LEVEL:          0  ACCURACY: -nan
DTLB TIMELY PREFETCHES:          0 LATE PREFETCHES: 0 DROPPED PREFETCHES: 0
DTLB PREFETCHES SAME FILL-ORIGIN LEVEL: 0 DIFFERENT FILL-ORIGIN LEVEL: 0
DTLB AVERAGE MISS LATENCY: 10.2817 cycles
DTLB RQ	ACCESS:   14521304	FORWARD:          0	MERGED:    3568289	TO_CACHE:   10953015

STLB TOTAL     ACCESS:    1277442  HIT:    1271343  MISS:       6099  HIT %:    99.5226  MISS %:   0.477439   MPKI: 0.12198
STLB LOAD TRANSLATION ACCESS:    1156186  HIT:    1150087  MISS:       6099  HIT %:    99.4725  MISS %:    0.52751   MPKI: 0.12198
STLB TRANSLATION FROM L1D PREFETCHER ACCESS:     121256  HIT:     121256  MISS:          0  HIT %:        100  MISS %:          0   MPKI: 0
STLB PREFETCH  REQUESTED:          0  ISSUED:          0  USEFUL:          0  USELESS:          0
STLB USEFUL LOAD PREFETCHES:          0 PREFETCH ISSUED TO LOWER LEVEL:          0  ACCURACY: -nan
STLB TIMELY PREFETCHES:          0 LATE PREFETCHES: 0 DROPPED PREFETCHES: 0
STLB PREFETCHES SAME FILL-ORIGIN LEVEL: 0 DIFFERENT FILL-ORIGIN LEVEL: 0
STLB AVERAGE MISS LATENCY: 111.617 cycles
STLB RQ	ACCESS:    1362886	FORWARD:          0	MERGED:      85444	TO_CACHE:    1277442

STLB Hit, L1D data hit: 0
STLB Hit, L2C data hit: 0
STLB Hit, LLC data hit: 0
STLB Hit, LLC data miss: 0
STLB STLB hints to L2: 0
L1D TOTAL     ACCESS:   14623365  HIT:   14115162  MISS:     508203  HIT %:    96.5247  MISS %:    3.47528   MPKI: 10.1641
L1D LOAD      ACCESS:    8117999  HIT:    7730793  MISS:     387206  HIT %:    95.2303  MISS %:    4.76972   MPKI: 7.74412
L1D RFO       ACCESS:    6305937  HIT:    6239470  MISS:      66467  HIT %:     98.946  MISS %:    1.05404   MPKI: 1.32934
L1D PREFETCH  ACCESS:     199429  HIT:     144899  MISS:      54530  HIT %:    72.6569  MISS %:    27.3431   MPKI: 1.0906
L1D PREFETCH  REQUESTED:     413500  ISSUED:     413479  USEFUL:      15126  USELESS:      39405
L1D USEFUL LOAD PREFETCHES:      15126 PREFETCH ISSUED TO LOWER LEVEL:      54530  ACCURACY: 27.7389
L1D TIMELY PREFETCHES:      15126 LATE PREFETCHES: 1782 DROPPED PREFETCHES: 0
L1D PREFETCHES SAME FILL-ORIGIN LEVEL: 54530 DIFFERENT FILL-ORIGIN LEVEL: 0
L1D AVERAGE MISS LATENCY: 37.5953 cycles
L1D RQ	ACCESS:   11827718	FORWARD:          0	MERGED:    3521420	TO_CACHE:    8140821
L1D WQ	ACCESS:    6426250	FORWARD:     165556	MERGED:      45767	TO_CACHE:    6380483
L1D PQ	ACCESS:     206779	FORWARD:          0	MERGED:          0	TO_CACHE:     206700

L1D UNIQUE REGIONS ACCESSED: 0
L1D REGIONS CONFLICTS: 0
L1D Cross Page Prefetch Requests: 0
L1D Same Page Prefetch Requests: 241438
L1D ROI Sum of L1D PQ occupancy: 2763961
L1D PREFETCHES PUSHED FROM L2C: 0
L1I TOTAL     ACCESS:    9645645  HIT:    5598926  MISS:    4046719  HIT %:    58.0462  MISS %:    41.9538   MPKI: 80.9344
L1I LOAD      ACCESS:    9645645  HIT:    5598926  MISS:    4046719  HIT %:    58.0462  MISS %:    41.9538   MPKI: 80.9344
L1I PREFETCH  REQUESTED:          0  ISSUED:          0  USEFUL:          0  USELESS:          0
L1I USEFUL LOAD PREFETCHES:          0 PREFETCH ISSUED TO LOWER LEVEL:          0  ACCURACY: -nan
L1I TIMELY PREFETCHES:          0 LATE PREFETCHES: 0 DROPPED PREFETCHES: 0
L1I PREFETCHES SAME FILL-ORIGIN LEVEL: 0 DIFFERENT FILL-ORIGIN LEVEL: 0
L1I AVERAGE MISS LATENCY: 14.1624 cycles
L1I RQ	ACCESS:   14765125	FORWARD:          0	MERGED:    4088472	TO_CACHE:   10676653

BTB TOTAL     ACCESS:    5367160  HIT:    4843603  MISS:     523557  HIT %:    90.2452  MISS %:    9.75482   MPKI: 10.4711
BTB BRANCH_DIRECT_JUMP	ACCESS:     541712  HIT:     529168  MISS:      12544
BTB BRANCH_INDIRECT	ACCESS:      59661  HIT:      59563  MISS:         98
BTB BRANCH_CONDITIONAL	ACCESS:    2287820  HIT:    2245521  MISS:      42299
BTB BRANCH_DIRECT_CALL	ACCESS:    1004491  HIT:     966931  MISS:      37560
BTB BRANCH_INDIRECT_CALL	ACCESS:     234493  HIT:     188817  MISS:      45676
BTB BRANCH_RETURN	ACCESS:    1238983  HIT:     853603  MISS:     385380
BTB BRANCH_OTHER ACCESS:          0  HIT:          0  MISS:          0

L2C TOTAL     ACCESS:    5099221  HIT:    4821546  MISS:     277675  HIT %:    94.5546  MISS %:    5.44544   MPKI: 5.5535
L2C LOAD      ACCESS:    4433920  HIT:    4288245  MISS:     145675  HIT %:    96.7145  MISS %:    3.28547   MPKI: 2.9135
L2C DATA LOAD MPKI: 2.76454
L2C INSTRUCTION LOAD MPKI: 0.14896
L2C RFO       ACCESS:      66467  HIT:      38018  MISS:      28449  HIT %:    57.1983  MISS %:    42.8017   MPKI: 0.56898
L2C PREFETCH  ACCESS:     350665  HIT:     253829  MISS:      96836  HIT %:     72.385  MISS %:     27.615   MPKI: 1.93672
L2C DATA PREFETCH MPKI: 1.93672
L2C INSTRUCTION PREFETCH MPKI: 0
L2C WRITEBACK ACCESS:     239752  HIT:     238824  MISS:        928  HIT %:    99.6129  MISS %:   0.387067   MPKI: 0.01856
L2C LOAD TRANSLATION ACCESS:       8417  HIT:       2630  MISS:       5787  HIT %:    31.2463  MISS %:    68.7537   MPKI: 0.11574
L2C PREFETCH  REQUESTED:     314772  ISSUED:     314772  USEFUL:      35689  USELESS:      61144
L2C USEFUL LOAD PREFETCHES:      35689 PREFETCH ISSUED TO LOWER LEVEL:      97414  ACCURACY: 36.6364
L2C TIMELY PREFETCHES:      35689 LATE PREFETCHES: 578 DROPPED PREFETCHES: 0
L2C PREFETCHES SAME FILL-ORIGIN LEVEL: 79167 DIFFERENT FILL-ORIGIN LEVEL: 0
L2C AVERAGE MISS LATENCY: 55.4147 cycles
L2C RQ	ACCESS:    4508809	FORWARD:          0	MERGED:          0	TO_CACHE:    4508804
L2C WQ	ACCESS:     239752	FORWARD:          6	MERGED:          0	TO_CACHE:     239752
L2C PQ	ACCESS:     369302	FORWARD:          0	MERGED:       7293	TO_CACHE:     362008

L2C Instructions Evicting Data 6862
L2C Translations Evicting Data 5457
L2C Data Evicting Data 251276
L2C Instructions Evicting Instructions 458
L2C Translations Evicting Instructions 142
L2C Data Evicting Instructions 6776
L2C Instructions Evicting Translations 128
L2C Translations Evicting Translations 188
L2C Data Evicting Translations 5459
L2C Dense regions hint from L2: 0
PSCL5 TOTAL     ACCESS:       6099  HIT:       6099  MISS:          0  HIT %:        100  MISS %:          0   MPKI: 0
PSCL5 LOAD TRANSLATION ACCESS:       6099  HIT:       6099  MISS:          0  HIT %:        100  MISS %:          0   MPKI: 0
PSCL5 PREFETCH  REQUESTED:          0  ISSUED:          0  USEFUL:          0  USELESS:          0
PSCL5 USEFUL LOAD PREFETCHES:          0 PREFETCH ISSUED TO LOWER LEVEL:          0  ACCURACY: -nan
PSCL5 TIMELY PREFETCHES:          0 LATE PREFETCHES: 0 DROPPED PREFETCHES: 0
PSCL5 PREFETCHES SAME FILL-ORIGIN LEVEL: 0 DIFFERENT FILL-ORIGIN LEVEL: 0

PSCL4 TOTAL     ACCESS:       6022  HIT:       6019  MISS:          3  HIT %:    99.9502  MISS %:  0.0498173   MPKI: 6e-05
PSCL4 LOAD TRANSLATION ACCESS:       6022  HIT:       6019  MISS:          3  HIT %:    99.9502  MISS %:  0.0498173   MPKI: 6e-05
PSCL4 PREFETCH  REQUESTED:          0  ISSUED:          0  USEFUL:          0  USELESS:          0
PSCL4 USEFUL LOAD PREFETCHES:          0 PREFETCH ISSUED TO LOWER LEVEL:          0  ACCURACY: -nan
PSCL4 TIMELY PREFETCHES:          0 LATE PREFETCHES: 0 DROPPED PREFETCHES: 0
PSCL4 PREFETCHES SAME FILL-ORIGIN LEVEL: 0 DIFFERENT FILL-ORIGIN LEVEL: 0

PSCL3 TOTAL     ACCESS:       6068  HIT:       6038  MISS:         30  HIT %:    99.5056  MISS %:   0.494397   MPKI: 0.0006
PSCL3 LOAD TRANSLATION ACCESS:       6068  HIT:       6038  MISS:         30  HIT %:    99.5056  MISS %:   0.494397   MPKI: 0.0006
PSCL3 PREFETCH  REQUESTED:          0  ISSUED:          0  USEFUL:          0  USELESS:          0
PSCL3 USEFUL LOAD PREFETCHES:          0 PREFETCH ISSUED TO LOWER LEVEL:          0  ACCURACY: -nan
PSCL3 TIMELY PREFETCHES:          0 LATE PREFETCHES: 0 DROPPED PREFETCHES: 0
PSCL3 PREFETCHES SAME FILL-ORIGIN LEVEL: 0 DIFFERENT FILL-ORIGIN LEVEL: 0

PSCL2 TOTAL     ACCESS:       6099  HIT:       3785  MISS:       2314  HIT %:    62.0594  MISS %:    37.9406   MPKI: 0.04628
PSCL2 LOAD TRANSLATION ACCESS:       6099  HIT:       3785  MISS:       2314  HIT %:    62.0594  MISS %:    37.9406   MPKI: 0.04628
PSCL2 PREFETCH  REQUESTED:          0  ISSUED:          0  USEFUL:          0  USELESS:          0
PSCL2 USEFUL LOAD PREFETCHES:          0 PREFETCH ISSUED TO LOWER LEVEL:          0  ACCURACY: -nan
PSCL2 TIMELY PREFETCHES:          0 LATE PREFETCHES: 0 DROPPED PREFETCHES: 0
PSCL2 PREFETCHES SAME FILL-ORIGIN LEVEL: 0 DIFFERENT FILL-ORIGIN LEVEL: 0

LLC TOTAL     ACCESS:     404226  HIT:     372892  MISS:      31334  HIT %:    92.2484  MISS %:     7.7516   MPKI: 0.62668
LLC LOAD      ACCESS:     145100  HIT:     130323  MISS:      14777  HIT %:     89.816  MISS %:     10.184   MPKI: 0.29554
LLC RFO       ACCESS:      28445  HIT:      21920  MISS:       6525  HIT %:     77.061  MISS %:     22.939   MPKI: 0.1305
LLC PREFETCH  ACCESS:      97414  HIT:      88037  MISS:       9377  HIT %:    90.3741  MISS %:    9.62593   MPKI: 0.18754
LLC WRITEBACK ACCESS:     127480  HIT:     127350  MISS:        130  HIT %:     99.898  MISS %:   0.101977   MPKI: 0.0026
LLC LOAD TRANSLATION ACCESS:       5787  HIT:       5262  MISS:        525  HIT %:    90.9279  MISS %:    9.07206   MPKI: 0.0105
LLC PREFETCH  REQUESTED:          0  ISSUED:          0  USEFUL:        406  USELESS:       4624
LLC USEFUL LOAD PREFETCHES:        406 PREFETCH ISSUED TO LOWER LEVEL:       9377  ACCURACY: 4.32974
LLC TIMELY PREFETCHES:        406 LATE PREFETCHES: 0 DROPPED PREFETCHES: 0
LLC PREFETCHES SAME FILL-ORIGIN LEVEL: 0 DIFFERENT FILL-ORIGIN LEVEL: 0
LLC AVERAGE MISS LATENCY: 225.653 cycles
LLC RQ	ACCESS:     179333	FORWARD:          0	MERGED:          0	TO_CACHE:     179332
LLC WQ	ACCESS:     127480	FORWARD:          1	MERGED:          0	TO_CACHE:     127480
LLC PQ	ACCESS:      97414	FORWARD:          0	MERGED:          0	TO_CACHE:      97414

LLC Dense regions hint to LLC: 0

RAW hits: 723064
Loads Generated: 12550783
Loads sent to L1D: 11827718
Stores Generated: 6426241
Stores sent to L1D: 6426250
Major fault: 0 Minor fault: 4744
Allocated PAGES: 4744

stream: 
stream:times selected: 197207
stream:pref_filled: 31915
stream:pref_useful: 10299
stream:pref_late: 873
stream:misses: 56
stream:misses_by_poll: 0

CS: 
CS:times selected: 5439
CS:pref_filled: 1202
CS:pref_useful: 291
CS:pref_late: 882
CS:misses: 825
CS:misses_by_poll: 0

CPLX: 
CPLX:times selected: 192113
CPLX:pref_filled: 27147
CPLX:pref_useful: 5728
CPLX:pref_late: 181
CPLX:misses: 4606
CPLX:misses_by_poll: 2

NL_L1: 
NL:times selected: 4052
NL:pref_filled: 199
NL:pref_useful: 36
NL:pref_late: 1
NL:misses: 0
NL:misses_by_poll: 0

total selections: 398811
total_filled: 54530
total_useful: 15126
total_late: 1944
total_polluted: 2
total_misses_after_warmup: 410031
conflicts: 3728720
Degree Incremented Times: 0
Degree Decremented Times: 93653

L1 IP Table Write Accesses: 4246863
L1 IP Table Read Accesses: 518143
L1 RST Write Accesses: 168044
L1 RST Read Accesses: 336088
L1 CSPT Write Accesses: 168044
L1 CSPT Read Accesses: 332824
L1 RR Filter Tag Write Accesses: 206800
L1 RR Filter Tag Read Accesses: 9214343
L1 IP Table Tag Write Accesses: 8140824
L1 IP Table Tag Read Accesses: 8140824
L1 RST Tag Write Accesses: 0
L1 RST Tag Read Accesses: 1782798
L1 RR Filter Write Accesses: 0
L1 RR Filter Read Accesses: 299436
test: 69133
L2 IP Table Read Accesses: 555926
L2 IP Table Write Accesses: 741399
L2 IP Table Tag Read Accesses: 436674
L2 IP Table Tag Write Accesses: 436674

DRAM Statistics
 CHANNEL 0
 RQ ROW_BUFFER_HIT:       7753  ROW_BUFFER_MISS:      23447
 DBUS_CONGESTED:      14337
 WQ ROW_BUFFER_HIT:        545  ROW_BUFFER_MISS:       5140  FULL:          0

 AVG_CONGESTED_CYCLE: 46
 All warmup complete: 2
Channel 0 Bank busy for read cycles: 0
Channel 0 Bank busy for write cycles: 0
Channel 0
Rank 0
0banks busy for read cycles: 86088739
0banks busy for write cycles: 4162
1banks busy for read cycles: 1799330
1banks busy for write cycles: 675146
2banks busy for read cycles: 898415
2banks busy for write cycles: 111216
3banks busy for read cycles: 101498
3banks busy for write cycles: 21006
4banks busy for read cycles: 28342
4banks busy for write cycles: 14073
5banks busy for read cycles: 16685
5banks busy for write cycles: 6015
6banks busy for read cycles: 19887
6banks busy for write cycles: 3452
7banks busy for read cycles: 33810
7banks busy for write cycles: 1769
8banks busy for read cycles: 133555
8banks busy for write cycles: 3061

CPU 0 Branch Prediction Accuracy: 96.3715% MPKI: 6.52798 Average ROB Occupancy at Mispredict: 21.8487
Branch types
NOT_BRANCH: 41004141 82.0083%
BRANCH_DIRECT_JUMP: 541712 1.08342%
BRANCH_INDIRECT: 59661 0.119322%
BRANCH_CONDITIONAL: 5916196 11.8324%
BRANCH_DIRECT_CALL: 1004491 2.00898%
BRANCH_INDIRECT_CALL: 234493 0.468986%
BRANCH_RETURN: 1238983 2.47797%
BRANCH_OTHER: 0 0%

@sumon_overall_L1D     15126      1782     39405     54530    413479    413500
@Sumon_Early_by_class_L1D      8502        57      4810         0
@Sumon_Late_by_class_L1D       684       882       117         0

@Sumon_Early_by_cycle_L1D       855       447        37        12       347      3330       561      1437      5885      1931       208        76
@Sumon_Late_by_cycle_L1D       305       219       456       466       137       103         0         0         0         0         0         0
@Sumon_Early_stream_L1D       516        98        14         8        36      1769       408       694      3741      1174        36         8
@Sumon_Early_CS_L1D        15        37         5         0         0         0         0         0         0         0         0         0
@Sumon_Early_CPLX_L1D       216       280        11         3         1      1081        93       671      2046       214       127        67
@Sumon_Late_stream_L1D       109        67       200       236        41        31         0         0         0         0         0         0
@Sumon_Late_CS_L1D        86       151       250       229        94        72         0         0         0         0         0         0
@Sumon_Late_CPLX_L1D       107         1         6         1         2         0         0         0         0         0         0         0
@sumon_overall_L2C     35689       578     61144     96836    314772    314772
@Sumon_Early_by_class_L2C       795         0       678         0
@Sumon_Late_by_class_L2C         0         0         0         0

@Sumon_Early_by_cycle_L2C      2950      3821      7314      1040      2120      7934      1198       737      1255      3187       219      3914
@Sumon_Late_by_cycle_L2C       517        57         4         0         0         0         0         0         0         0         0         0
@Sumon_Early_stream_L2C         0         0         0         0         0         0         0         4        79         4         1       707
@Sumon_Early_CS_L2C         0         0         0         0         0         0         0         0         0         0         0         0
@Sumon_Early_CPLX_L2C         0         0         0         0         0         0         0         0         8        10         1       659
@Sumon_Late_stream_L2C         0         0         0         0         0         0         0         0         0         0         0         0
@Sumon_Late_CS_L2C         0         0         0         0         0         0         0         0         0         0         0         0
@Sumon_Late_CPLX_L2C         0         0         0         0         0         0         0         0         0         0         0         0
DRAM PAGES: 1048576
Allocated PAGES: 4744
