
*** ChampSim Multicore Out-of-Order Simulator ***

Warmup Instructions: 10000000
Simulation Instructions: 50000000
Number of CPUs: 1
LLC sets: 2048
LLC ways: 16
Off-chip DRAM Size: 4096 MB Channels: 1 Width: 64-bit Data Rate: 533 MT/s
CPU 0 runs traces/clientserver/server_025.champsimtrace.xz
.xz
CPU 0 Bimodal branch predictor
BTB has LRU replacement policy
ITLB has LRU replacement policy
DTLB has LRU replacement policy
STLB has LRU replacement policy
L1I has LRU replacement policy
IP Table Entries: 256
L1D has LRU replacement policy
IP_Table L2 entries: 256
L2C has LRU replacement policy
LLC has LRU replacement policy
Heartbeat CPU 0 instructions: 10000000 cycles: 2889041 heartbeat IPC: 3.46136 cumulative IPC: 3.46136 (Simulation time: 0 hr 19 min 49 sec) 

Warmup complete CPU 0 instructions: 10000004 cycles: 2889042 (Simulation time: 0 hr 19 min 49 sec) 

Heartbeat CPU 0 instructions: 20000002 cycles: 28369289 heartbeat IPC: 0.392461 cumulative IPC: 0.392461 (Simulation time: 0 hr 37 min 54 sec) 
Heartbeat CPU 0 instructions: 30000001 cycles: 53594399 heartbeat IPC: 0.39643 cumulative IPC: 0.394436 (Simulation time: 0 hr 55 min 49 sec) 
Heartbeat CPU 0 instructions: 40000001 cycles: 79006407 heartbeat IPC: 0.393515 cumulative IPC: 0.394128 (Simulation time: 1 hr 13 min 47 sec) 
Heartbeat CPU 0 instructions: 50000002 cycles: 104355162 heartbeat IPC: 0.394497 cumulative IPC: 0.39422 (Simulation time: 1 hr 31 min 39 sec) 
Heartbeat CPU 0 instructions: 60000000 cycles: 129632085 heartbeat IPC: 0.395618 cumulative IPC: 0.394499 (Simulation time: 1 hr 46 min 19 sec) 
Finished CPU 0 instructions: 50000000 cycles: 126743073 cumulative IPC: 0.394499 (Simulation time: 1 hr 46 min 19 sec) 

ChampSim completed all CPUs

Region of Interest Statistics

CPU 0 cumulative IPC: 0.394499 instructions: 50000000 cycles: 126743073
ITLB TOTAL     ACCESS:    8423576  HIT:    7928622  MISS:     494954  HIT %:    94.1242  MISS %:    5.87582   MPKI: 9.89908
ITLB LOAD TRANSLATION ACCESS:    8423576  HIT:    7928622  MISS:     494954  HIT %:    94.1242  MISS %:    5.87582   MPKI: 9.89908
ITLB PREFETCH  REQUESTED:          0  ISSUED:          0  USEFUL:          0  USELESS:          0
ITLB USEFUL LOAD PREFETCHES:          0 PREFETCH ISSUED TO LOWER LEVEL:          0  ACCURACY: -nan
ITLB TIMELY PREFETCHES:          0 LATE PREFETCHES: 0 DROPPED PREFETCHES: 0
ITLB PREFETCHES SAME FILL-ORIGIN LEVEL: 0 DIFFERENT FILL-ORIGIN LEVEL: 0
ITLB AVERAGE MISS LATENCY: 9.07868 cycles
ITLB RQ	ACCESS:   10069237	FORWARD:          0	MERGED:    1520539	TO_CACHE:    8548698

DTLB TOTAL     ACCESS:   12655187  HIT:   12180583  MISS:     474604  HIT %:    96.2497  MISS %:    3.75027   MPKI: 9.49208
DTLB LOAD TRANSLATION ACCESS:   12655187  HIT:   12180583  MISS:     474604  HIT %:    96.2497  MISS %:    3.75027   MPKI: 9.49208
DTLB PREFETCH  REQUESTED:          0  ISSUED:          0  USEFUL:          0  USELESS:          0
DTLB USEFUL LOAD PREFETCHES:          0 PREFETCH ISSUED TO LOWER LEVEL:          0  ACCURACY: -nan
DTLB TIMELY PREFETCHES:          0 LATE PREFETCHES: 0 DROPPED PREFETCHES: 0
DTLB PREFETCHES SAME FILL-ORIGIN LEVEL: 0 DIFFERENT FILL-ORIGIN LEVEL: 0
DTLB AVERAGE MISS LATENCY: 9.42406 cycles
DTLB RQ	ACCESS:   15790348	FORWARD:          0	MERGED:    3116514	TO_CACHE:   12673834

STLB TOTAL     ACCESS:    1381765  HIT:    1379304  MISS:       2461  HIT %:    99.8219  MISS %:   0.178106   MPKI: 0.04922
STLB LOAD TRANSLATION ACCESS:     969558  HIT:     967097  MISS:       2461  HIT %:    99.7462  MISS %:   0.253827   MPKI: 0.04922
STLB TRANSLATION FROM L1D PREFETCHER ACCESS:     412207  HIT:     412207  MISS:          0  HIT %:        100  MISS %:          0   MPKI: 0
STLB PREFETCH  REQUESTED:          0  ISSUED:          0  USEFUL:          0  USELESS:          0
STLB USEFUL LOAD PREFETCHES:          0 PREFETCH ISSUED TO LOWER LEVEL:          0  ACCURACY: -nan
STLB TIMELY PREFETCHES:          0 LATE PREFETCHES: 0 DROPPED PREFETCHES: 0
STLB PREFETCHES SAME FILL-ORIGIN LEVEL: 0 DIFFERENT FILL-ORIGIN LEVEL: 0
STLB AVERAGE MISS LATENCY: 93.7883 cycles
STLB RQ	ACCESS:    1493057	FORWARD:          0	MERGED:     111292	TO_CACHE:    1381765

STLB Hit, L1D data hit: 0
STLB Hit, L2C data hit: 0
STLB Hit, LLC data hit: 0
STLB Hit, LLC data miss: 0
STLB STLB hints to L2: 0
L1D TOTAL     ACCESS:   15791617  HIT:   14625572  MISS:    1166045  HIT %:    92.6161  MISS %:    7.38395   MPKI: 23.3209
L1D LOAD      ACCESS:    8825935  HIT:    8120562  MISS:     705373  HIT %:     92.008  MISS %:    7.99205   MPKI: 14.1075
L1D RFO       ACCESS:    6456896  HIT:    6162712  MISS:     294184  HIT %:    95.4439  MISS %:    4.55612   MPKI: 5.88368
L1D PREFETCH  ACCESS:     508786  HIT:     342298  MISS:     166488  HIT %:    67.2774  MISS %:    32.7226   MPKI: 3.32976
L1D PREFETCH  REQUESTED:    1047277  ISSUED:    1047191  USEFUL:      43094  USELESS:     123384
L1D USEFUL LOAD PREFETCHES:      43094 PREFETCH ISSUED TO LOWER LEVEL:     166900  ACCURACY: 25.8203
L1D TIMELY PREFETCHES:      43094 LATE PREFETCHES: 28883 DROPPED PREFETCHES: 0
L1D PREFETCHES SAME FILL-ORIGIN LEVEL: 166900 DIFFERENT FILL-ORIGIN LEVEL: 0
L1D AVERAGE MISS LATENCY: 23445.9 cycles
L1D RQ	ACCESS:   12117007	FORWARD:          0	MERGED:    3116738	TO_CACHE:    8884407
L1D WQ	ACCESS:    6952503	FORWARD:     116055	MERGED:      46562	TO_CACHE:    6905941
L1D PQ	ACCESS:     523692	FORWARD:          0	MERGED:          0	TO_CACHE:     523499

L1D UNIQUE REGIONS ACCESSED: 0
L1D REGIONS CONFLICTS: 0
L1D Cross Page Prefetch Requests: 0
L1D Same Page Prefetch Requests: 622148
L1D ROI Sum of L1D PQ occupancy: 7593716
L1D PREFETCHES PUSHED FROM L2C: 0
L1I TOTAL     ACCESS:    9600400  HIT:    6831599  MISS:    2768801  HIT %:    71.1595  MISS %:    28.8405   MPKI: 55.376
L1I LOAD      ACCESS:    9600400  HIT:    6831599  MISS:    2768801  HIT %:    71.1595  MISS %:    28.8405   MPKI: 55.376
L1I PREFETCH  REQUESTED:          0  ISSUED:          0  USEFUL:          0  USELESS:          0
L1I USEFUL LOAD PREFETCHES:          0 PREFETCH ISSUED TO LOWER LEVEL:          0  ACCURACY: -nan
L1I TIMELY PREFETCHES:          0 LATE PREFETCHES: 0 DROPPED PREFETCHES: 0
L1I PREFETCHES SAME FILL-ORIGIN LEVEL: 0 DIFFERENT FILL-ORIGIN LEVEL: 0
L1I AVERAGE MISS LATENCY: 19.1052 cycles
L1I RQ	ACCESS:   13833221	FORWARD:          0	MERGED:    3763984	TO_CACHE:   10069237

BTB TOTAL     ACCESS:    5985589  HIT:    3971316  MISS:    2014273  HIT %:     66.348  MISS %:     33.652   MPKI: 40.2855
BTB BRANCH_DIRECT_JUMP	ACCESS:     527165  HIT:     349603  MISS:     177562
BTB BRANCH_INDIRECT	ACCESS:     205601  HIT:     168171  MISS:      37430
BTB BRANCH_CONDITIONAL	ACCESS:    3024529  HIT:    2460439  MISS:     564090
BTB BRANCH_DIRECT_CALL	ACCESS:     939434  HIT:     530321  MISS:     409113
BTB BRANCH_INDIRECT_CALL	ACCESS:     174709  HIT:      95732  MISS:      78977
BTB BRANCH_RETURN	ACCESS:    1114151  HIT:     367050  MISS:     747101
BTB BRANCH_OTHER ACCESS:          0  HIT:          0  MISS:          0

L2C TOTAL     ACCESS:    5068410  HIT:    4244598  MISS:     823812  HIT %:    83.7461  MISS %:    16.2539   MPKI: 16.4762
L2C LOAD      ACCESS:    3474164  HIT:    2899897  MISS:     574267  HIT %:    83.4704  MISS %:    16.5296   MPKI: 11.4853
L2C DATA LOAD MPKI: 2.3159
L2C INSTRUCTION LOAD MPKI: 9.16944
L2C RFO       ACCESS:     293765  HIT:     202560  MISS:      91205  HIT %:    68.9531  MISS %:    31.0469   MPKI: 1.8241
L2C PREFETCH  ACCESS:     765076  HIT:     617966  MISS:     147110  HIT %:    80.7718  MISS %:    19.2282   MPKI: 2.9422
L2C DATA PREFETCH MPKI: 2.9422
L2C INSTRUCTION PREFETCH MPKI: 0
L2C WRITEBACK ACCESS:     532772  HIT:     523523  MISS:       9249  HIT %:     98.264  MISS %:    1.73601   MPKI: 0.18498
L2C LOAD TRANSLATION ACCESS:       2633  HIT:        652  MISS:       1981  HIT %:    24.7626  MISS %:    75.2374   MPKI: 0.03962
L2C PREFETCH  REQUESTED:     613352  ISSUED:     613352  USEFUL:      24160  USELESS:     122965
L2C USEFUL LOAD PREFETCHES:      24160 PREFETCH ISSUED TO LOWER LEVEL:     149583  ACCURACY: 16.1516
L2C TIMELY PREFETCHES:      24160 LATE PREFETCHES: 2473 DROPPED PREFETCHES: 0
L2C PREFETCHES SAME FILL-ORIGIN LEVEL: 96189 DIFFERENT FILL-ORIGIN LEVEL: 0
L2C AVERAGE MISS LATENCY: 44.7156 cycles
L2C RQ	ACCESS:    3770578	FORWARD:          0	MERGED:          0	TO_CACHE:    3770562
L2C WQ	ACCESS:     532772	FORWARD:         16	MERGED:          0	TO_CACHE:     532772
L2C PQ	ACCESS:     780252	FORWARD:          0	MERGED:       5768	TO_CACHE:     774484

L2C Instructions Evicting Data 189523
L2C Translations Evicting Data 1239
L2C Data Evicting Data 169057
L2C Instructions Evicting Instructions 268180
L2C Translations Evicting Instructions 725
L2C Data Evicting Instructions 183835
L2C Instructions Evicting Translations 767
L2C Translations Evicting Translations 17
L2C Data Evicting Translations 1195
L2C Dense regions hint from L2: 0
PSCL5 TOTAL     ACCESS:       2461  HIT:       2461  MISS:          0  HIT %:        100  MISS %:          0   MPKI: 0
PSCL5 LOAD TRANSLATION ACCESS:       2461  HIT:       2461  MISS:          0  HIT %:        100  MISS %:          0   MPKI: 0
PSCL5 PREFETCH  REQUESTED:          0  ISSUED:          0  USEFUL:          0  USELESS:          0
PSCL5 USEFUL LOAD PREFETCHES:          0 PREFETCH ISSUED TO LOWER LEVEL:          0  ACCURACY: -nan
PSCL5 TIMELY PREFETCHES:          0 LATE PREFETCHES: 0 DROPPED PREFETCHES: 0
PSCL5 PREFETCHES SAME FILL-ORIGIN LEVEL: 0 DIFFERENT FILL-ORIGIN LEVEL: 0

PSCL4 TOTAL     ACCESS:       2291  HIT:       2277  MISS:         14  HIT %:    99.3889  MISS %:   0.611087   MPKI: 0.00028
PSCL4 LOAD TRANSLATION ACCESS:       2291  HIT:       2277  MISS:         14  HIT %:    99.3889  MISS %:   0.611087   MPKI: 0.00028
PSCL4 PREFETCH  REQUESTED:          0  ISSUED:          0  USEFUL:          0  USELESS:          0
PSCL4 USEFUL LOAD PREFETCHES:          0 PREFETCH ISSUED TO LOWER LEVEL:          0  ACCURACY: -nan
PSCL4 TIMELY PREFETCHES:          0 LATE PREFETCHES: 0 DROPPED PREFETCHES: 0
PSCL4 PREFETCHES SAME FILL-ORIGIN LEVEL: 0 DIFFERENT FILL-ORIGIN LEVEL: 0

PSCL3 TOTAL     ACCESS:       2388  HIT:       2360  MISS:         28  HIT %:    98.8275  MISS %:    1.17253   MPKI: 0.00056
PSCL3 LOAD TRANSLATION ACCESS:       2388  HIT:       2360  MISS:         28  HIT %:    98.8275  MISS %:    1.17253   MPKI: 0.00056
PSCL3 PREFETCH  REQUESTED:          0  ISSUED:          0  USEFUL:          0  USELESS:          0
PSCL3 USEFUL LOAD PREFETCHES:          0 PREFETCH ISSUED TO LOWER LEVEL:          0  ACCURACY: -nan
PSCL3 TIMELY PREFETCHES:          0 LATE PREFETCHES: 0 DROPPED PREFETCHES: 0
PSCL3 PREFETCHES SAME FILL-ORIGIN LEVEL: 0 DIFFERENT FILL-ORIGIN LEVEL: 0

PSCL2 TOTAL     ACCESS:       2461  HIT:       2318  MISS:        143  HIT %:    94.1894  MISS %:    5.81065   MPKI: 0.00286
PSCL2 LOAD TRANSLATION ACCESS:       2461  HIT:       2318  MISS:        143  HIT %:    94.1894  MISS %:    5.81065   MPKI: 0.00286
PSCL2 PREFETCH  REQUESTED:          0  ISSUED:          0  USEFUL:          0  USELESS:          0
PSCL2 USEFUL LOAD PREFETCHES:          0 PREFETCH ISSUED TO LOWER LEVEL:          0  ACCURACY: -nan
PSCL2 TIMELY PREFETCHES:          0 LATE PREFETCHES: 0 DROPPED PREFETCHES: 0
PSCL2 PREFETCHES SAME FILL-ORIGIN LEVEL: 0 DIFFERENT FILL-ORIGIN LEVEL: 0

LLC TOTAL     ACCESS:     956601  HIT:     926522  MISS:      30079  HIT %:    96.8556  MISS %:    3.14436   MPKI: 0.60158
LLC LOAD      ACCESS:     571934  HIT:     567292  MISS:       4642  HIT %:    99.1884  MISS %:   0.811632   MPKI: 0.09284
LLC RFO       ACCESS:      91060  HIT:      77085  MISS:      13975  HIT %:     84.653  MISS %:     15.347   MPKI: 0.2795
LLC PREFETCH  ACCESS:     149583  HIT:     138345  MISS:      11238  HIT %:    92.4871  MISS %:    7.51289   MPKI: 0.22476
LLC WRITEBACK ACCESS:     142043  HIT:     141999  MISS:         44  HIT %:     99.969  MISS %:  0.0309765   MPKI: 0.00088
LLC LOAD TRANSLATION ACCESS:       1981  HIT:       1801  MISS:        180  HIT %:    90.9137  MISS %:    9.08632   MPKI: 0.0036
LLC PREFETCH  REQUESTED:          0  ISSUED:          0  USEFUL:        861  USELESS:       6141
LLC USEFUL LOAD PREFETCHES:        861 PREFETCH ISSUED TO LOWER LEVEL:      11238  ACCURACY: 7.66151
LLC TIMELY PREFETCHES:        861 LATE PREFETCHES: 0 DROPPED PREFETCHES: 0
LLC PREFETCHES SAME FILL-ORIGIN LEVEL: 0 DIFFERENT FILL-ORIGIN LEVEL: 0
LLC AVERAGE MISS LATENCY: 413.996 cycles
LLC RQ	ACCESS:     664980	FORWARD:          0	MERGED:          0	TO_CACHE:     664975
LLC WQ	ACCESS:     142043	FORWARD:          5	MERGED:          0	TO_CACHE:     142043
LLC PQ	ACCESS:     149583	FORWARD:          0	MERGED:          0	TO_CACHE:     149583

LLC Dense regions hint to LLC: 0

RAW hits: 524346
Loads Generated: 12641353
Loads sent to L1D: 12117007
Stores Generated: 6952498
Stores sent to L1D: 6952503
Major fault: 0 Minor fault: 2266
Allocated PAGES: 2266

stream: 
stream:times selected: 1001626
stream:pref_filled: 119189
stream:pref_useful: 22328
stream:pref_late: 15921
stream:misses: 4903
stream:misses_by_poll: 0

CS: 
CS:times selected: 124699
CS:pref_filled: 50401
CS:pref_useful: 24954
CS:pref_late: 6915
CS:misses: 17275
CS:misses_by_poll: 5

CPLX: 
CPLX:times selected: 874583
CPLX:pref_filled: 22898
CPLX:pref_useful: 4293
CPLX:pref_late: 1239
CPLX:misses: 64232
CPLX:misses_by_poll: 0

NL_L1: 
NL:times selected: 5823
NL:pref_filled: 428
NL:pref_useful: 86
NL:pref_late: 18
NL:misses: 97
NL:misses_by_poll: 0

total selections: 2006731
total_filled: 166488
total_useful: 43094
total_late: 24359
total_polluted: 5
total_misses_after_warmup: 763847
conflicts: 3283632
Degree Incremented Times: 0
Degree Decremented Times: 117335

L1 IP Table Write Accesses: 5303884
L1 IP Table Read Accesses: 2020252
L1 RST Write Accesses: 844998
L1 RST Read Accesses: 1689996
L1 CSPT Write Accesses: 844998
L1 CSPT Read Accesses: 1582684
L1 RR Filter Tag Write Accesses: 523778
L1 RR Filter Tag Read Accesses: 37309953
L1 IP Table Tag Write Accesses: 8884409
L1 IP Table Tag Read Accesses: 8884409
L1 RST Tag Write Accesses: 0
L1 RST Tag Read Accesses: 7619403
L1 RR Filter Write Accesses: 0
L1 RR Filter Read Accesses: 1377995
test: 144310
L2 IP Table Read Accesses: 1113686
L2 IP Table Write Accesses: 1560422
L2 IP Table Tag Read Accesses: 866804
L2 IP Table Tag Write Accesses: 866804

DRAM Statistics
 CHANNEL 0
 RQ ROW_BUFFER_HIT:      16345  ROW_BUFFER_MISS:      13685
 DBUS_CONGESTED:      26204
 WQ ROW_BUFFER_HIT:        497  ROW_BUFFER_MISS:       5013  FULL:          0

 AVG_CONGESTED_CYCLE: 52
 All warmup complete: 2
Channel 0 Bank busy for read cycles: 0
Channel 0 Bank busy for write cycles: 0
Channel 0
Rank 0
0banks busy for read cycles: 124046476
0banks busy for write cycles: 1750
1banks busy for read cycles: 685309
1banks busy for write cycles: 213769
2banks busy for read cycles: 412591
2banks busy for write cycles: 89908
3banks busy for read cycles: 139583
3banks busy for write cycles: 46981
4banks busy for read cycles: 122187
4banks busy for write cycles: 35612
5banks busy for read cycles: 97439
5banks busy for write cycles: 27755
6banks busy for read cycles: 76757
6banks busy for write cycles: 27889
7banks busy for read cycles: 95625
7banks busy for write cycles: 24158
8banks busy for read cycles: 543262
8banks busy for write cycles: 56023

CPU 0 Branch Prediction Accuracy: 91.5878% MPKI: 15.3805 Average ROB Occupancy at Mispredict: 17.11
Branch types
NOT_BRANCH: 40857901 81.7158%
BRANCH_DIRECT_JUMP: 527165 1.05433%
BRANCH_INDIRECT: 205601 0.411202%
BRANCH_CONDITIONAL: 6180687 12.3614%
BRANCH_DIRECT_CALL: 939434 1.87887%
BRANCH_INDIRECT_CALL: 174709 0.349418%
BRANCH_RETURN: 1114151 2.2283%
BRANCH_OTHER: 0 0%

@sumon_overall_L1D     43094     28883    123384    166488   1047191   1047277
@Sumon_Early_by_class_L1D     18224     20320      3428        15
@Sumon_Late_by_class_L1D     15079      6576       989        15

@Sumon_Early_by_cycle_L1D     26110      2674      2280      3182       388      1167       952      1770      1264      2251       835       221
@Sumon_Late_by_cycle_L1D     20282      1236      1180       173        12        14         0         0         0         0         0         0
@Sumon_Early_stream_L1D      5505      1952      1692      2622       238       972       719      1338       851      1471       686       178
@Sumon_Early_CS_L1D     18958       442       407        89        32        38         3       271         7        28        11        34
@Sumon_Early_CPLX_L1D      1393       176       124       402        88       145       221       146       240       351       133         9
@Sumon_Late_stream_L1D     14907       146        26         0         0         0         0         0         0         0         0         0
@Sumon_Late_CS_L1D      4165      1066      1146       173        12        14         0         0         0         0         0         0
@Sumon_Late_CPLX_L1D       962        19         8         0         0         0         0         0         0         0         0         0
@sumon_overall_L2C     24160      2473    122965    147110    613352    613352
@Sumon_Early_by_class_L2C      1806       196       407         0
@Sumon_Late_by_class_L2C         0         0         0         0

@Sumon_Early_by_cycle_L2C      4117      3075      2252      1358       382      2359      2003      1387       836      1190       987      4214
@Sumon_Late_by_cycle_L2C      2170       302         1         0         0         0         0         0         0         0         0         0
@Sumon_Early_stream_L2C         0         0         0         0         0         0         0         0         0         9       295      1502
@Sumon_Early_CS_L2C         0         0         0         0         0         0         0         0         0         0         2       194
@Sumon_Early_CPLX_L2C         0         0         0         0         0         0         0         0         0         0        27       380
@Sumon_Late_stream_L2C         0         0         0         0         0         0         0         0         0         0         0         0
@Sumon_Late_CS_L2C         0         0         0         0         0         0         0         0         0         0         0         0
@Sumon_Late_CPLX_L2C         0         0         0         0         0         0         0         0         0         0         0         0
DRAM PAGES: 1048576
Allocated PAGES: 2266
