
*** ChampSim Multicore Out-of-Order Simulator ***

Warmup Instructions: 10000000
Simulation Instructions: 50000000
Number of CPUs: 1
LLC sets: 2048
LLC ways: 16
Off-chip DRAM Size: 4096 MB Channels: 1 Width: 64-bit Data Rate: 533 MT/s
CPU 0 runs traces/clientserver/server_032.champsimtrace.xz
.xz
CPU 0 Bimodal branch predictor
BTB has LRU replacement policy
ITLB has LRU replacement policy
DTLB has LRU replacement policy
STLB has LRU replacement policy
L1I has LRU replacement policy
IP Table Entries: 256
L1D has LRU replacement policy
IP_Table L2 entries: 256
L2C has LRU replacement policy
LLC has LRU replacement policy
Heartbeat CPU 0 instructions: 10000002 cycles: 2881421 heartbeat IPC: 3.47051 cumulative IPC: 3.47051 (Simulation time: 0 hr 19 min 42 sec) 

Warmup complete CPU 0 instructions: 10000002 cycles: 2881421 (Simulation time: 0 hr 19 min 42 sec) 

Heartbeat CPU 0 instructions: 20000003 cycles: 27702068 heartbeat IPC: 0.40289 cumulative IPC: 0.40289 (Simulation time: 0 hr 37 min 41 sec) 
Heartbeat CPU 0 instructions: 30000001 cycles: 52450643 heartbeat IPC: 0.404064 cumulative IPC: 0.403476 (Simulation time: 0 hr 55 min 27 sec) 
Heartbeat CPU 0 instructions: 40000002 cycles: 77157642 heartbeat IPC: 0.404744 cumulative IPC: 0.403898 (Simulation time: 1 hr 13 min 12 sec) 
Heartbeat CPU 0 instructions: 50000000 cycles: 101875474 heartbeat IPC: 0.404566 cumulative IPC: 0.404065 (Simulation time: 1 hr 30 min 55 sec) 
Heartbeat CPU 0 instructions: 60000002 cycles: 126575422 heartbeat IPC: 0.404859 cumulative IPC: 0.404223 (Simulation time: 1 hr 45 min 57 sec) 
Finished CPU 0 instructions: 50000000 cycles: 123694001 cumulative IPC: 0.404223 (Simulation time: 1 hr 45 min 57 sec) 

ChampSim completed all CPUs

Region of Interest Statistics

CPU 0 cumulative IPC: 0.404223 instructions: 50000000 cycles: 123694001
ITLB TOTAL     ACCESS:    8552889  HIT:    7964955  MISS:     587934  HIT %:    93.1259  MISS %:     6.8741   MPKI: 11.7587
ITLB LOAD TRANSLATION ACCESS:    8552889  HIT:    7964955  MISS:     587934  HIT %:    93.1259  MISS %:     6.8741   MPKI: 11.7587
ITLB PREFETCH  REQUESTED:          0  ISSUED:          0  USEFUL:          0  USELESS:          0
ITLB USEFUL LOAD PREFETCHES:          0 PREFETCH ISSUED TO LOWER LEVEL:          0  ACCURACY: -nan
ITLB TIMELY PREFETCHES:          0 LATE PREFETCHES: 0 DROPPED PREFETCHES: 0
ITLB PREFETCHES SAME FILL-ORIGIN LEVEL: 0 DIFFERENT FILL-ORIGIN LEVEL: 0
ITLB AVERAGE MISS LATENCY: 9.0113 cycles
ITLB RQ	ACCESS:   10330570	FORWARD:          0	MERGED:    1630947	TO_CACHE:    8699623

DTLB TOTAL     ACCESS:   12826212  HIT:   12313888  MISS:     512324  HIT %:    96.0056  MISS %:    3.99435   MPKI: 10.2465
DTLB LOAD TRANSLATION ACCESS:   12826212  HIT:   12313888  MISS:     512324  HIT %:    96.0056  MISS %:    3.99435   MPKI: 10.2465
DTLB PREFETCH  REQUESTED:          0  ISSUED:          0  USEFUL:          0  USELESS:          0
DTLB USEFUL LOAD PREFETCHES:          0 PREFETCH ISSUED TO LOWER LEVEL:          0  ACCURACY: -nan
DTLB TIMELY PREFETCHES:          0 LATE PREFETCHES: 0 DROPPED PREFETCHES: 0
DTLB PREFETCHES SAME FILL-ORIGIN LEVEL: 0 DIFFERENT FILL-ORIGIN LEVEL: 0
DTLB AVERAGE MISS LATENCY: 9.06944 cycles
DTLB RQ	ACCESS:   16051570	FORWARD:          0	MERGED:    3209714	TO_CACHE:   12841856

STLB TOTAL     ACCESS:    1393758  HIT:    1393307  MISS:        451  HIT %:    99.9676  MISS %:  0.0323586   MPKI: 0.00902
STLB LOAD TRANSLATION ACCESS:    1100257  HIT:    1099806  MISS:        451  HIT %:     99.959  MISS %:  0.0409904   MPKI: 0.00902
STLB TRANSLATION FROM L1D PREFETCHER ACCESS:     293501  HIT:     293501  MISS:          0  HIT %:        100  MISS %:          0   MPKI: 0
STLB PREFETCH  REQUESTED:          0  ISSUED:          0  USEFUL:          0  USELESS:          0
STLB USEFUL LOAD PREFETCHES:          0 PREFETCH ISSUED TO LOWER LEVEL:          0  ACCURACY: -nan
STLB TIMELY PREFETCHES:          0 LATE PREFETCHES: 0 DROPPED PREFETCHES: 0
STLB PREFETCHES SAME FILL-ORIGIN LEVEL: 0 DIFFERENT FILL-ORIGIN LEVEL: 0
STLB AVERAGE MISS LATENCY: 71.4656 cycles
STLB RQ	ACCESS:    1460434	FORWARD:          0	MERGED:      66676	TO_CACHE:    1393758

STLB Hit, L1D data hit: 0
STLB Hit, L2C data hit: 0
STLB Hit, LLC data hit: 0
STLB Hit, LLC data miss: 0
STLB STLB hints to L2: 0
L1D TOTAL     ACCESS:   15917415  HIT:   14640958  MISS:    1276457  HIT %:    91.9808  MISS %:    8.01925   MPKI: 25.5291
L1D LOAD      ACCESS:    8818585  HIT:    7982624  MISS:     835961  HIT %:    90.5205  MISS %:    9.47954   MPKI: 16.7192
L1D RFO       ACCESS:    6754014  HIT:    6449676  MISS:     304338  HIT %:     95.494  MISS %:    4.50603   MPKI: 6.08676
L1D PREFETCH  ACCESS:     344816  HIT:     208658  MISS:     136158  HIT %:    60.5129  MISS %:    39.4871   MPKI: 2.72316
L1D PREFETCH  REQUESTED:     720530  ISSUED:     720530  USEFUL:      22156  USELESS:     113982
L1D USEFUL LOAD PREFETCHES:      22156 PREFETCH ISSUED TO LOWER LEVEL:     136162  ACCURACY: 16.2718
L1D TIMELY PREFETCHES:      22156 LATE PREFETCHES: 9676 DROPPED PREFETCHES: 0
L1D PREFETCHES SAME FILL-ORIGIN LEVEL: 136162 DIFFERENT FILL-ORIGIN LEVEL: 0
L1D AVERAGE MISS LATENCY: 256.168 cycles
L1D RQ	ACCESS:   12025598	FORWARD:          0	MERGED:    3037576	TO_CACHE:    8860574
L1D WQ	ACCESS:    7236665	FORWARD:     127624	MERGED:      45669	TO_CACHE:    7190996
L1D PQ	ACCESS:     360353	FORWARD:          0	MERGED:          0	TO_CACHE:     360177

L1D UNIQUE REGIONS ACCESSED: 0
L1D REGIONS CONFLICTS: 0
L1D Cross Page Prefetch Requests: 0
L1D Same Page Prefetch Requests: 426430
L1D ROI Sum of L1D PQ occupancy: 4655853
L1D PREFETCHES PUSHED FROM L2C: 0
L1I TOTAL     ACCESS:    9777563  HIT:    6610713  MISS:    3166850  HIT %:     67.611  MISS %:     32.389   MPKI: 63.337
L1I LOAD      ACCESS:    9777563  HIT:    6610713  MISS:    3166850  HIT %:     67.611  MISS %:     32.389   MPKI: 63.337
L1I PREFETCH  REQUESTED:          0  ISSUED:          0  USEFUL:          0  USELESS:          0
L1I USEFUL LOAD PREFETCHES:          0 PREFETCH ISSUED TO LOWER LEVEL:          0  ACCURACY: -nan
L1I TIMELY PREFETCHES:          0 LATE PREFETCHES: 0 DROPPED PREFETCHES: 0
L1I PREFETCHES SAME FILL-ORIGIN LEVEL: 0 DIFFERENT FILL-ORIGIN LEVEL: 0
L1I AVERAGE MISS LATENCY: 16.4515 cycles
L1I RQ	ACCESS:   14042506	FORWARD:          0	MERGED:    3711936	TO_CACHE:   10330570

BTB TOTAL     ACCESS:    5869489  HIT:    3861124  MISS:    2008365  HIT %:     65.783  MISS %:     34.217   MPKI: 40.1673
BTB BRANCH_DIRECT_JUMP	ACCESS:     509293  HIT:     347105  MISS:     162188
BTB BRANCH_INDIRECT	ACCESS:     180190  HIT:     143387  MISS:      36803
BTB BRANCH_CONDITIONAL	ACCESS:    2595854  HIT:    2046614  MISS:     549240
BTB BRANCH_DIRECT_CALL	ACCESS:    1085949  HIT:     693462  MISS:     392487
BTB BRANCH_INDIRECT_CALL	ACCESS:     206137  HIT:     130928  MISS:      75209
BTB BRANCH_RETURN	ACCESS:    1292066  HIT:     499628  MISS:     792438
BTB BRANCH_OTHER ACCESS:          0  HIT:          0  MISS:          0

L2C TOTAL     ACCESS:    5750210  HIT:    5287538  MISS:     462672  HIT %:    91.9538  MISS %:    8.04618   MPKI: 9.25344
L2C LOAD      ACCESS:    4002811  HIT:    3663125  MISS:     339686  HIT %:    91.5138  MISS %:    8.48619   MPKI: 6.79372
L2C DATA LOAD MPKI: 1.80534
L2C INSTRUCTION LOAD MPKI: 4.98838
L2C RFO       ACCESS:     304335  HIT:     274867  MISS:      29468  HIT %:    90.3172  MISS %:    9.68275   MPKI: 0.58936
L2C PREFETCH  ACCESS:     841572  HIT:     756790  MISS:      84782  HIT %:    89.9258  MISS %:    10.0742   MPKI: 1.69564
L2C DATA PREFETCH MPKI: 1.69564
L2C INSTRUCTION PREFETCH MPKI: 0
L2C WRITEBACK ACCESS:     601013  HIT:     592481  MISS:       8532  HIT %:    98.5804  MISS %:     1.4196   MPKI: 0.17064
L2C LOAD TRANSLATION ACCESS:        479  HIT:        275  MISS:        204  HIT %:    57.4113  MISS %:    42.5887   MPKI: 0.00408
L2C PREFETCH  REQUESTED:     718862  ISSUED:     718862  USEFUL:       9796  USELESS:      75317
L2C USEFUL LOAD PREFETCHES:       9796 PREFETCH ISSUED TO LOWER LEVEL:      86666  ACCURACY: 11.3032
L2C TIMELY PREFETCHES:       9796 LATE PREFETCHES: 1884 DROPPED PREFETCHES: 0
L2C PREFETCHES SAME FILL-ORIGIN LEVEL: 56875 DIFFERENT FILL-ORIGIN LEVEL: 0
L2C AVERAGE MISS LATENCY: 33.6889 cycles
L2C RQ	ACCESS:    4307625	FORWARD:          0	MERGED:          0	TO_CACHE:    4307625
L2C WQ	ACCESS:     601013	FORWARD:         21	MERGED:          0	TO_CACHE:     601013
L2C PQ	ACCESS:     855024	FORWARD:          0	MERGED:       4808	TO_CACHE:     850195

L2C Instructions Evicting Data 102276
L2C Translations Evicting Data 194
L2C Data Evicting Data 107402
L2C Instructions Evicting Instructions 147136
L2C Translations Evicting Instructions 8
L2C Data Evicting Instructions 96789
L2C Instructions Evicting Translations 6
L2C Translations Evicting Translations 2
L2C Data Evicting Translations 250
L2C Dense regions hint from L2: 0
PSCL5 TOTAL     ACCESS:        451  HIT:        451  MISS:          0  HIT %:        100  MISS %:          0   MPKI: 0
PSCL5 LOAD TRANSLATION ACCESS:        451  HIT:        451  MISS:          0  HIT %:        100  MISS %:          0   MPKI: 0
PSCL5 PREFETCH  REQUESTED:          0  ISSUED:          0  USEFUL:          0  USELESS:          0
PSCL5 USEFUL LOAD PREFETCHES:          0 PREFETCH ISSUED TO LOWER LEVEL:          0  ACCURACY: -nan
PSCL5 TIMELY PREFETCHES:          0 LATE PREFETCHES: 0 DROPPED PREFETCHES: 0
PSCL5 PREFETCHES SAME FILL-ORIGIN LEVEL: 0 DIFFERENT FILL-ORIGIN LEVEL: 0

PSCL4 TOTAL     ACCESS:        449  HIT:        445  MISS:          4  HIT %:    99.1091  MISS %:   0.890869   MPKI: 8e-05
PSCL4 LOAD TRANSLATION ACCESS:        449  HIT:        445  MISS:          4  HIT %:    99.1091  MISS %:   0.890869   MPKI: 8e-05
PSCL4 PREFETCH  REQUESTED:          0  ISSUED:          0  USEFUL:          0  USELESS:          0
PSCL4 USEFUL LOAD PREFETCHES:          0 PREFETCH ISSUED TO LOWER LEVEL:          0  ACCURACY: -nan
PSCL4 TIMELY PREFETCHES:          0 LATE PREFETCHES: 0 DROPPED PREFETCHES: 0
PSCL4 PREFETCHES SAME FILL-ORIGIN LEVEL: 0 DIFFERENT FILL-ORIGIN LEVEL: 0

PSCL3 TOTAL     ACCESS:        450  HIT:        446  MISS:          4  HIT %:    99.1111  MISS %:   0.888889   MPKI: 8e-05
PSCL3 LOAD TRANSLATION ACCESS:        450  HIT:        446  MISS:          4  HIT %:    99.1111  MISS %:   0.888889   MPKI: 8e-05
PSCL3 PREFETCH  REQUESTED:          0  ISSUED:          0  USEFUL:          0  USELESS:          0
PSCL3 USEFUL LOAD PREFETCHES:          0 PREFETCH ISSUED TO LOWER LEVEL:          0  ACCURACY: -nan
PSCL3 TIMELY PREFETCHES:          0 LATE PREFETCHES: 0 DROPPED PREFETCHES: 0
PSCL3 PREFETCHES SAME FILL-ORIGIN LEVEL: 0 DIFFERENT FILL-ORIGIN LEVEL: 0

PSCL2 TOTAL     ACCESS:        451  HIT:        429  MISS:         22  HIT %:     95.122  MISS %:    4.87805   MPKI: 0.00044
PSCL2 LOAD TRANSLATION ACCESS:        451  HIT:        429  MISS:         22  HIT %:     95.122  MISS %:    4.87805   MPKI: 0.00044
PSCL2 PREFETCH  REQUESTED:          0  ISSUED:          0  USEFUL:          0  USELESS:          0
PSCL2 USEFUL LOAD PREFETCHES:          0 PREFETCH ISSUED TO LOWER LEVEL:          0  ACCURACY: -nan
PSCL2 TIMELY PREFETCHES:          0 LATE PREFETCHES: 0 DROPPED PREFETCHES: 0
PSCL2 PREFETCHES SAME FILL-ORIGIN LEVEL: 0 DIFFERENT FILL-ORIGIN LEVEL: 0

LLC TOTAL     ACCESS:     515462  HIT:     504794  MISS:      10668  HIT %:    97.9304  MISS %:     2.0696   MPKI: 0.21336
LLC LOAD      ACCESS:     337837  HIT:     333657  MISS:       4180  HIT %:    98.7627  MISS %:    1.23728   MPKI: 0.0836
LLC RFO       ACCESS:      29428  HIT:      29415  MISS:         13  HIT %:    99.9558  MISS %:  0.0441756   MPKI: 0.00026
LLC PREFETCH  ACCESS:      86666  HIT:      80211  MISS:       6455  HIT %:    92.5519  MISS %:    7.44813   MPKI: 0.1291
LLC WRITEBACK ACCESS:      61327  HIT:      61327  MISS:          0  HIT %:        100  MISS %:          0   MPKI: 0
LLC LOAD TRANSLATION ACCESS:        204  HIT:        184  MISS:         20  HIT %:    90.1961  MISS %:    9.80392   MPKI: 0.0004
LLC PREFETCH  REQUESTED:          0  ISSUED:          0  USEFUL:       1579  USELESS:         26
LLC USEFUL LOAD PREFETCHES:       1579 PREFETCH ISSUED TO LOWER LEVEL:       6455  ACCURACY: 24.4617
LLC TIMELY PREFETCHES:       1579 LATE PREFETCHES: 0 DROPPED PREFETCHES: 0
LLC PREFETCHES SAME FILL-ORIGIN LEVEL: 0 DIFFERENT FILL-ORIGIN LEVEL: 0
LLC AVERAGE MISS LATENCY: 190.144 cycles
LLC RQ	ACCESS:     367474	FORWARD:          0	MERGED:          0	TO_CACHE:     367469
LLC WQ	ACCESS:      61327	FORWARD:          5	MERGED:          0	TO_CACHE:      61327
LLC PQ	ACCESS:      86666	FORWARD:          0	MERGED:          0	TO_CACHE:      86666

LLC Dense regions hint to LLC: 0

RAW hits: 610395
Loads Generated: 12635992
Loads sent to L1D: 12025598
Stores Generated: 7236649
Stores sent to L1D: 7236665
Major fault: 0 Minor fault: 1259
Allocated PAGES: 1259

stream: 
stream:times selected: 661646
stream:pref_filled: 115061
stream:pref_useful: 20717
stream:pref_late: 5769
stream:misses: 3546
stream:misses_by_poll: 0

CS: 
CS:times selected: 57846
CS:pref_filled: 7143
CS:pref_useful: 2682
CS:pref_late: 1526
CS:misses: 1810
CS:misses_by_poll: 0

CPLX: 
CPLX:times selected: 646502
CPLX:pref_filled: 38865
CPLX:pref_useful: 4422
CPLX:pref_late: 318
CPLX:misses: 60761
CPLX:misses_by_poll: 6

NL_L1: 
NL:times selected: 5835
NL:pref_filled: 1012
NL:pref_useful: 126
NL:pref_late: 4
NL:misses: 90
NL:misses_by_poll: 0

total selections: 1371829
total_filled: 136158
total_useful: 22156
total_late: 7682
total_polluted: 6
total_misses_after_warmup: 877952
conflicts: 3541243
Degree Incremented Times: 0
Degree Decremented Times: 154919

L1 IP Table Write Accesses: 5024958
L1 IP Table Read Accesses: 1483715
L1 RST Write Accesses: 562606
L1 RST Read Accesses: 1125212
L1 CSPT Write Accesses: 562606
L1 CSPT Read Accesses: 1118542
L1 RR Filter Tag Write Accesses: 360353
L1 RR Filter Tag Read Accesses: 24084118
L1 IP Table Tag Write Accesses: 8860576
L1 IP Table Tag Read Accesses: 8860576
L1 RST Tag Write Accesses: 0
L1 RST Tag Read Accesses: 4383660
L1 RR Filter Write Accesses: 0
L1 RR Filter Read Accesses: 892545
test: 118159
L2 IP Table Read Accesses: 1203562
L2 IP Table Write Accesses: 1734148
L2 IP Table Tag Read Accesses: 967845
L2 IP Table Tag Write Accesses: 967845

DRAM Statistics
 CHANNEL 0
 RQ ROW_BUFFER_HIT:       4533  ROW_BUFFER_MISS:       6135
 DBUS_CONGESTED:       5732
 WQ ROW_BUFFER_HIT:          0  ROW_BUFFER_MISS:          1  FULL:          0

 AVG_CONGESTED_CYCLE: 46
 All warmup complete: 2
Channel 0 Bank busy for read cycles: 0
Channel 0 Bank busy for write cycles: 0
Channel 0
Rank 0
0banks busy for read cycles: 122838632
0banks busy for write cycles: 1
1banks busy for read cycles: 398557
1banks busy for write cycles: 252
2banks busy for read cycles: 287065
2banks busy for write cycles: 0
3banks busy for read cycles: 71440
3banks busy for write cycles: 0
4banks busy for read cycles: 35772
4banks busy for write cycles: 0
5banks busy for read cycles: 23555
5banks busy for write cycles: 0
6banks busy for read cycles: 16873
6banks busy for write cycles: 0
7banks busy for read cycles: 12232
7banks busy for write cycles: 0
8banks busy for read cycles: 9623
8banks busy for write cycles: 0

CPU 0 Branch Prediction Accuracy: 92.2268% MPKI: 14.419 Average ROB Occupancy at Mispredict: 16.4041
Branch types
NOT_BRANCH: 40724969 81.4499%
BRANCH_DIRECT_JUMP: 509293 1.01859%
BRANCH_INDIRECT: 180190 0.36038%
BRANCH_CONDITIONAL: 6001166 12.0023%
BRANCH_DIRECT_CALL: 1085949 2.1719%
BRANCH_INDIRECT_CALL: 206137 0.412274%
BRANCH_RETURN: 1292066 2.58413%
BRANCH_OTHER: 0 0%

@sumon_overall_L1D     22156      9676    113982    136158    720530    720530
@Sumon_Early_by_class_L1D     17159       707      3599         4
@Sumon_Late_by_class_L1D      5044      1392       180         4

@Sumon_Early_by_cycle_L1D      8021      2075      2080      1295        76      2585       410      2013      2285      1262        51         3
@Sumon_Late_by_cycle_L1D      5139       604       638       260        18         0         0         0         0         0         0         0
@Sumon_Early_stream_L1D      6782      1796      1151      1099        66      2265       120      1415      1646       794        23         2
@Sumon_Early_CS_L1D       600        81        23         3         0         0         0         0         0         0         0         0
@Sumon_Early_CPLX_L1D       466       165       602       184         9       262       241       592       626       423        28         1
@Sumon_Late_stream_L1D      4249       305       288       188        14         0         0         0         0         0         0         0
@Sumon_Late_CS_L1D       676       292       348        72         4         0         0         0         0         0         0         0
@Sumon_Late_CPLX_L1D       173         5         2         0         0         0         0         0         0         0         0         0
@sumon_overall_L2C      9796      1884     75317     84782    718862    718862
@Sumon_Early_by_class_L2C       749        54       234         0
@Sumon_Late_by_class_L2C         0         0         0         0

@Sumon_Early_by_cycle_L2C      2105       569       633       307        92      1050       377      1025        18      1210       906      1504
@Sumon_Late_by_cycle_L2C      1721       163         0         0         0         0         0         0         0         0         0         0
@Sumon_Early_stream_L2C         0         0         0         0         0         0         0         0         0         4        73       672
@Sumon_Early_CS_L2C         0         0         0         0         0         0         0         0         0         0         6        48
@Sumon_Early_CPLX_L2C         0         0         0         0         0         0         0         0         0        11         3       220
@Sumon_Late_stream_L2C         0         0         0         0         0         0         0         0         0         0         0         0
@Sumon_Late_CS_L2C         0         0         0         0         0         0         0         0         0         0         0         0
@Sumon_Late_CPLX_L2C         0         0         0         0         0         0         0         0         0         0         0         0
DRAM PAGES: 1048576
Allocated PAGES: 1259
