
*** ChampSim Multicore Out-of-Order Simulator ***

Warmup Instructions: 10000000
Simulation Instructions: 50000000
Number of CPUs: 1
LLC sets: 2048
LLC ways: 16
Off-chip DRAM Size: 4096 MB Channels: 1 Width: 64-bit Data Rate: 533 MT/s
CPU 0 runs traces/clientserver/server_035.champsimtrace.xz
.xz
CPU 0 Bimodal branch predictor
BTB has LRU replacement policy
ITLB has LRU replacement policy
DTLB has LRU replacement policy
STLB has LRU replacement policy
L1I has LRU replacement policy
IP Table Entries: 256
L1D has LRU replacement policy
IP_Table L2 entries: 256
L2C has LRU replacement policy
LLC has LRU replacement policy
Heartbeat CPU 0 instructions: 10000001 cycles: 2768981 heartbeat IPC: 3.61144 cumulative IPC: 3.61144 (Simulation time: 0 hr 18 min 41 sec) 

Warmup complete CPU 0 instructions: 10000001 cycles: 2768981 (Simulation time: 0 hr 18 min 41 sec) 

Heartbeat CPU 0 instructions: 20000000 cycles: 25619560 heartbeat IPC: 0.437626 cumulative IPC: 0.437626 (Simulation time: 0 hr 36 min 58 sec) 
Heartbeat CPU 0 instructions: 30000000 cycles: 46917768 heartbeat IPC: 0.469523 cumulative IPC: 0.453014 (Simulation time: 0 hr 54 min 21 sec) 
Heartbeat CPU 0 instructions: 40000000 cycles: 69704308 heartbeat IPC: 0.438856 cumulative IPC: 0.448194 (Simulation time: 1 hr 12 min 28 sec) 
Heartbeat CPU 0 instructions: 50000000 cycles: 90842407 heartbeat IPC: 0.473079 cumulative IPC: 0.454167 (Simulation time: 1 hr 30 min 1 sec) 
Heartbeat CPU 0 instructions: 60000001 cycles: 113474986 heartbeat IPC: 0.441841 cumulative IPC: 0.451647 (Simulation time: 1 hr 45 min 49 sec) 
Finished CPU 0 instructions: 50000000 cycles: 110706005 cumulative IPC: 0.451647 (Simulation time: 1 hr 45 min 49 sec) 

ChampSim completed all CPUs

Region of Interest Statistics

CPU 0 cumulative IPC: 0.451647 instructions: 50000000 cycles: 110706005
ITLB TOTAL     ACCESS:    8921708  HIT:    8418044  MISS:     503664  HIT %:    94.3546  MISS %:    5.64538   MPKI: 10.0733
ITLB LOAD TRANSLATION ACCESS:    8921708  HIT:    8418044  MISS:     503664  HIT %:    94.3546  MISS %:    5.64538   MPKI: 10.0733
ITLB PREFETCH  REQUESTED:          0  ISSUED:          0  USEFUL:          0  USELESS:          0
ITLB USEFUL LOAD PREFETCHES:          0 PREFETCH ISSUED TO LOWER LEVEL:          0  ACCURACY: -nan
ITLB TIMELY PREFETCHES:          0 LATE PREFETCHES: 0 DROPPED PREFETCHES: 0
ITLB PREFETCHES SAME FILL-ORIGIN LEVEL: 0 DIFFERENT FILL-ORIGIN LEVEL: 0
ITLB AVERAGE MISS LATENCY: 9.14711 cycles
ITLB RQ	ACCESS:   10585466	FORWARD:          0	MERGED:    1540149	TO_CACHE:    9045317

DTLB TOTAL     ACCESS:   10598008  HIT:   10148064  MISS:     449944  HIT %:    95.7544  MISS %:    4.24555   MPKI: 8.99888
DTLB LOAD TRANSLATION ACCESS:   10598008  HIT:   10148064  MISS:     449944  HIT %:    95.7544  MISS %:    4.24555   MPKI: 8.99888
DTLB PREFETCH  REQUESTED:          0  ISSUED:          0  USEFUL:          0  USELESS:          0
DTLB USEFUL LOAD PREFETCHES:          0 PREFETCH ISSUED TO LOWER LEVEL:          0  ACCURACY: -nan
DTLB TIMELY PREFETCHES:          0 LATE PREFETCHES: 0 DROPPED PREFETCHES: 0
DTLB PREFETCHES SAME FILL-ORIGIN LEVEL: 0 DIFFERENT FILL-ORIGIN LEVEL: 0
DTLB AVERAGE MISS LATENCY: 11.4419 cycles
DTLB RQ	ACCESS:   14198201	FORWARD:          0	MERGED:    3588689	TO_CACHE:   10609512

STLB TOTAL     ACCESS:    1204368  HIT:    1195423  MISS:       8945  HIT %:    99.2573  MISS %:   0.742713   MPKI: 0.1789
STLB LOAD TRANSLATION ACCESS:     953608  HIT:     944663  MISS:       8945  HIT %:     99.062  MISS %:   0.938016   MPKI: 0.1789
STLB TRANSLATION FROM L1D PREFETCHER ACCESS:     250760  HIT:     250760  MISS:          0  HIT %:        100  MISS %:          0   MPKI: 0
STLB PREFETCH  REQUESTED:          0  ISSUED:          0  USEFUL:          0  USELESS:          0
STLB USEFUL LOAD PREFETCHES:          0 PREFETCH ISSUED TO LOWER LEVEL:          0  ACCURACY: -nan
STLB TIMELY PREFETCHES:          0 LATE PREFETCHES: 0 DROPPED PREFETCHES: 0
STLB PREFETCHES SAME FILL-ORIGIN LEVEL: 0 DIFFERENT FILL-ORIGIN LEVEL: 0
STLB AVERAGE MISS LATENCY: 128.707 cycles
STLB RQ	ACCESS:    1322721	FORWARD:          0	MERGED:     118353	TO_CACHE:    1204368

STLB Hit, L1D data hit: 0
STLB Hit, L2C data hit: 0
STLB Hit, LLC data hit: 0
STLB Hit, LLC data miss: 0
STLB STLB hints to L2: 0
L1D TOTAL     ACCESS:   14402314  HIT:   13463118  MISS:     939196  HIT %:    93.4789  MISS %:    6.52115   MPKI: 18.7839
L1D LOAD      ACCESS:    7740125  HIT:    7107411  MISS:     632714  HIT %:    91.8255  MISS %:    8.17447   MPKI: 12.6543
L1D RFO       ACCESS:    6306510  HIT:    6189871  MISS:     116639  HIT %:    98.1505  MISS %:     1.8495   MPKI: 2.33278
L1D PREFETCH  ACCESS:     355679  HIT:     165836  MISS:     189843  HIT %:    46.6252  MISS %:    53.3748   MPKI: 3.79686
L1D PREFETCH  REQUESTED:     739124  ISSUED:     738679  USEFUL:      25952  USELESS:     163895
L1D USEFUL LOAD PREFETCHES:      25952 PREFETCH ISSUED TO LOWER LEVEL:     190516  ACCURACY: 13.622
L1D TIMELY PREFETCHES:      25952 LATE PREFETCHES: 3689 DROPPED PREFETCHES: 0
L1D PREFETCHES SAME FILL-ORIGIN LEVEL: 190516 DIFFERENT FILL-ORIGIN LEVEL: 0
L1D AVERAGE MISS LATENCY: 51635.5 cycles
L1D RQ	ACCESS:   11105451	FORWARD:          0	MERGED:    3181088	TO_CACHE:    7775449
L1D WQ	ACCESS:    6513311	FORWARD:     149367	MERGED:      90559	TO_CACHE:    6422752
L1D PQ	ACCESS:     369566	FORWARD:          0	MERGED:          0	TO_CACHE:     369113

L1D UNIQUE REGIONS ACCESSED: 0
L1D REGIONS CONFLICTS: 0
L1D Cross Page Prefetch Requests: 0
L1D Same Page Prefetch Requests: 426899
L1D ROI Sum of L1D PQ occupancy: 10578617
L1D PREFETCHES PUSHED FROM L2C: 0
L1I TOTAL     ACCESS:    9853606  HIT:    6514099  MISS:    3339507  HIT %:    66.1088  MISS %:    33.8912   MPKI: 66.7901
L1I LOAD      ACCESS:    9853606  HIT:    6514099  MISS:    3339507  HIT %:    66.1088  MISS %:    33.8912   MPKI: 66.7901
L1I PREFETCH  REQUESTED:          0  ISSUED:          0  USEFUL:          0  USELESS:          0
L1I USEFUL LOAD PREFETCHES:          0 PREFETCH ISSUED TO LOWER LEVEL:          0  ACCURACY: -nan
L1I TIMELY PREFETCHES:          0 LATE PREFETCHES: 0 DROPPED PREFETCHES: 0
L1I PREFETCHES SAME FILL-ORIGIN LEVEL: 0 DIFFERENT FILL-ORIGIN LEVEL: 0
L1I AVERAGE MISS LATENCY: 14.8588 cycles
L1I RQ	ACCESS:   14701763	FORWARD:          0	MERGED:    4116297	TO_CACHE:   10585466

BTB TOTAL     ACCESS:    6340916  HIT:    5350576  MISS:     990340  HIT %:    84.3818  MISS %:    15.6182   MPKI: 19.8068
BTB BRANCH_DIRECT_JUMP	ACCESS:     773568  HIT:     696055  MISS:      77513
BTB BRANCH_INDIRECT	ACCESS:     108366  HIT:      73637  MISS:      34729
BTB BRANCH_CONDITIONAL	ACCESS:    2912413  HIT:    2697483  MISS:     214930
BTB BRANCH_DIRECT_CALL	ACCESS:    1062756  HIT:     948426  MISS:     114330
BTB BRANCH_INDIRECT_CALL	ACCESS:     210540  HIT:     143969  MISS:      66571
BTB BRANCH_RETURN	ACCESS:    1273273  HIT:     791006  MISS:     482267
BTB BRANCH_OTHER ACCESS:          0  HIT:          0  MISS:          0

L2C TOTAL     ACCESS:    5101112  HIT:    4814830  MISS:     286282  HIT %:    94.3879  MISS %:    5.61215   MPKI: 5.72564
L2C LOAD      ACCESS:    3972168  HIT:    3837210  MISS:     134958  HIT %:    96.6024  MISS %:    3.39759   MPKI: 2.69916
L2C DATA LOAD MPKI: 2.30484
L2C INSTRUCTION LOAD MPKI: 0.39432
L2C RFO       ACCESS:     115966  HIT:      95447  MISS:      20519  HIT %:     82.306  MISS %:     17.694   MPKI: 0.41038
L2C PREFETCH  ACCESS:     724827  HIT:     599814  MISS:     125013  HIT %:    82.7527  MISS %:    17.2473   MPKI: 2.50026
L2C DATA PREFETCH MPKI: 2.50026
L2C INSTRUCTION PREFETCH MPKI: 0
L2C WRITEBACK ACCESS:     278549  HIT:     276820  MISS:       1729  HIT %:    99.3793  MISS %:   0.620717   MPKI: 0.03458
L2C LOAD TRANSLATION ACCESS:       9602  HIT:       5539  MISS:       4063  HIT %:    57.6859  MISS %:    42.3141   MPKI: 0.08126
L2C PREFETCH  REQUESTED:     553978  ISSUED:     553978  USEFUL:      48002  USELESS:      77142
L2C USEFUL LOAD PREFETCHES:      48002 PREFETCH ISSUED TO LOWER LEVEL:     131676  ACCURACY: 36.4546
L2C TIMELY PREFETCHES:      48002 LATE PREFETCHES: 6662 DROPPED PREFETCHES: 0
L2C PREFETCHES SAME FILL-ORIGIN LEVEL: 92026 DIFFERENT FILL-ORIGIN LEVEL: 0
L2C AVERAGE MISS LATENCY: 313.919 cycles
L2C RQ	ACCESS:    4097790	FORWARD:          0	MERGED:          0	TO_CACHE:    4097737
L2C WQ	ACCESS:     278550	FORWARD:         53	MERGED:          0	TO_CACHE:     278550
L2C PQ	ACCESS:     744494	FORWARD:          0	MERGED:       4641	TO_CACHE:     739853

L2C Instructions Evicting Data 14143
L2C Translations Evicting Data 3869
L2C Data Evicting Data 243088
L2C Instructions Evicting Instructions 5393
L2C Translations Evicting Instructions 144
L2C Data Evicting Instructions 13883
L2C Instructions Evicting Translations 180
L2C Translations Evicting Translations 50
L2C Data Evicting Translations 3803
L2C Dense regions hint from L2: 0
PSCL5 TOTAL     ACCESS:       8945  HIT:       8945  MISS:          0  HIT %:        100  MISS %:          0   MPKI: 0
PSCL5 LOAD TRANSLATION ACCESS:       8945  HIT:       8945  MISS:          0  HIT %:        100  MISS %:          0   MPKI: 0
PSCL5 PREFETCH  REQUESTED:          0  ISSUED:          0  USEFUL:          0  USELESS:          0
PSCL5 USEFUL LOAD PREFETCHES:          0 PREFETCH ISSUED TO LOWER LEVEL:          0  ACCURACY: -nan
PSCL5 TIMELY PREFETCHES:          0 LATE PREFETCHES: 0 DROPPED PREFETCHES: 0
PSCL5 PREFETCHES SAME FILL-ORIGIN LEVEL: 0 DIFFERENT FILL-ORIGIN LEVEL: 0

PSCL4 TOTAL     ACCESS:       8529  HIT:       8493  MISS:         36  HIT %:    99.5779  MISS %:   0.422089   MPKI: 0.00072
PSCL4 LOAD TRANSLATION ACCESS:       8529  HIT:       8493  MISS:         36  HIT %:    99.5779  MISS %:   0.422089   MPKI: 0.00072
PSCL4 PREFETCH  REQUESTED:          0  ISSUED:          0  USEFUL:          0  USELESS:          0
PSCL4 USEFUL LOAD PREFETCHES:          0 PREFETCH ISSUED TO LOWER LEVEL:          0  ACCURACY: -nan
PSCL4 TIMELY PREFETCHES:          0 LATE PREFETCHES: 0 DROPPED PREFETCHES: 0
PSCL4 PREFETCHES SAME FILL-ORIGIN LEVEL: 0 DIFFERENT FILL-ORIGIN LEVEL: 0

PSCL3 TOTAL     ACCESS:       8697  HIT:       8661  MISS:         36  HIT %:    99.5861  MISS %:   0.413936   MPKI: 0.00072
PSCL3 LOAD TRANSLATION ACCESS:       8697  HIT:       8661  MISS:         36  HIT %:    99.5861  MISS %:   0.413936   MPKI: 0.00072
PSCL3 PREFETCH  REQUESTED:          0  ISSUED:          0  USEFUL:          0  USELESS:          0
PSCL3 USEFUL LOAD PREFETCHES:          0 PREFETCH ISSUED TO LOWER LEVEL:          0  ACCURACY: -nan
PSCL3 TIMELY PREFETCHES:          0 LATE PREFETCHES: 0 DROPPED PREFETCHES: 0
PSCL3 PREFETCHES SAME FILL-ORIGIN LEVEL: 0 DIFFERENT FILL-ORIGIN LEVEL: 0

PSCL2 TOTAL     ACCESS:       8945  HIT:       8355  MISS:        590  HIT %:    93.4041  MISS %:    6.59586   MPKI: 0.0118
PSCL2 LOAD TRANSLATION ACCESS:       8945  HIT:       8355  MISS:        590  HIT %:    93.4041  MISS %:    6.59586   MPKI: 0.0118
PSCL2 PREFETCH  REQUESTED:          0  ISSUED:          0  USEFUL:          0  USELESS:          0
PSCL2 USEFUL LOAD PREFETCHES:          0 PREFETCH ISSUED TO LOWER LEVEL:          0  ACCURACY: -nan
PSCL2 TIMELY PREFETCHES:          0 LATE PREFETCHES: 0 DROPPED PREFETCHES: 0
PSCL2 PREFETCHES SAME FILL-ORIGIN LEVEL: 0 DIFFERENT FILL-ORIGIN LEVEL: 0

LLC TOTAL     ACCESS:     383859  HIT:     153860  MISS:     229999  HIT %:    40.0824  MISS %:    59.9176   MPKI: 4.59998
LLC LOAD      ACCESS:     128707  HIT:      26752  MISS:     101955  HIT %:    20.7852  MISS %:    79.2148   MPKI: 2.0391
LLC RFO       ACCESS:      20108  HIT:       6708  MISS:      13400  HIT %:    33.3599  MISS %:    66.6401   MPKI: 0.268
LLC PREFETCH  ACCESS:     131675  HIT:      19798  MISS:     111877  HIT %:    15.0355  MISS %:    84.9645   MPKI: 2.23754
LLC WRITEBACK ACCESS:      99306  HIT:      98483  MISS:        823  HIT %:    99.1712  MISS %:   0.828752   MPKI: 0.01646
LLC LOAD TRANSLATION ACCESS:       4063  HIT:       2119  MISS:       1944  HIT %:    52.1536  MISS %:    47.8464   MPKI: 0.03888
LLC PREFETCH  REQUESTED:          0  ISSUED:          0  USEFUL:       3386  USELESS:     106817
LLC USEFUL LOAD PREFETCHES:       3386 PREFETCH ISSUED TO LOWER LEVEL:     111878  ACCURACY: 3.02651
LLC TIMELY PREFETCHES:       3386 LATE PREFETCHES: 0 DROPPED PREFETCHES: 0
LLC PREFETCHES SAME FILL-ORIGIN LEVEL: 0 DIFFERENT FILL-ORIGIN LEVEL: 0
LLC AVERAGE MISS LATENCY: 357.333 cycles
LLC RQ	ACCESS:     152878	FORWARD:          0	MERGED:          0	TO_CACHE:     152878
LLC WQ	ACCESS:      99307	FORWARD:          0	MERGED:          0	TO_CACHE:      99307
LLC PQ	ACCESS:     131676	FORWARD:          0	MERGED:          0	TO_CACHE:     131676

LLC Dense regions hint to LLC: 0

RAW hits: 975438
Loads Generated: 12080891
Loads sent to L1D: 11105451
Stores Generated: 6513315
Stores sent to L1D: 6513311
Major fault: 0 Minor fault: 5429
Allocated PAGES: 5429

stream: 
stream:times selected: 451001
stream:pref_filled: 122464
stream:pref_useful: 15387
stream:pref_late: 1243
stream:misses: 11879
stream:misses_by_poll: 0

CS: 
CS:times selected: 20023
CS:pref_filled: 9858
CS:pref_useful: 3522
CS:pref_late: 1382
CS:misses: 806
CS:misses_by_poll: 45

CPLX: 
CPLX:times selected: 437045
CPLX:pref_filled: 82676
CPLX:pref_useful: 9138
CPLX:pref_late: 667
CPLX:misses: 54832
CPLX:misses_by_poll: 29

NL_L1: 
NL:times selected: 2212
NL:pref_filled: 1631
NL:pref_useful: 14
NL:pref_late: 1
NL:misses: 264
NL:misses_by_poll: 0

total selections: 910281
total_filled: 189843
total_useful: 25952
total_late: 3304
total_polluted: 74
total_misses_after_warmup: 668038
conflicts: 3231004
Degree Incremented Times: 0
Degree Decremented Times: 135534

L1 IP Table Write Accesses: 4317549
L1 IP Table Read Accesses: 1086545
L1 RST Write Accesses: 393983
L1 RST Read Accesses: 787966
L1 CSPT Write Accesses: 393983
L1 CSPT Read Accesses: 777267
L1 RR Filter Tag Write Accesses: 370011
L1 RR Filter Tag Read Accesses: 17562994
L1 IP Table Tag Write Accesses: 7775449
L1 IP Table Tag Read Accesses: 7775449
L1 RST Tag Write Accesses: 0
L1 RST Tag Read Accesses: 3968959
L1 RR Filter Write Accesses: 0
L1 RR Filter Read Accesses: 612372
test: 204589
L2 IP Table Read Accesses: 1076343
L2 IP Table Write Accesses: 1465419
L2 IP Table Tag Read Accesses: 817496
L2 IP Table Tag Write Accesses: 817496

DRAM Statistics
 CHANNEL 0
 RQ ROW_BUFFER_HIT:      56291  ROW_BUFFER_MISS:     172883
 DBUS_CONGESTED:     217975
 WQ ROW_BUFFER_HIT:      21626  ROW_BUFFER_MISS:      64127  FULL:          0

 AVG_CONGESTED_CYCLE: 48
 All warmup complete: 2
Channel 0 Bank busy for read cycles: 0
Channel 0 Bank busy for write cycles: 0
Channel 0
Rank 0
0banks busy for read cycles: 82999357
0banks busy for write cycles: 19346
1banks busy for read cycles: 7406544
1banks busy for write cycles: 2616116
2banks busy for read cycles: 5223941
2banks busy for write cycles: 1341295
3banks busy for read cycles: 2362324
3banks busy for write cycles: 910879
4banks busy for read cycles: 1211993
4banks busy for write cycles: 678519
5banks busy for read cycles: 794386
5banks busy for write cycles: 536205
6banks busy for read cycles: 584924
6banks busy for write cycles: 533891
7banks busy for read cycles: 746247
7banks busy for write cycles: 799998
8banks busy for read cycles: 666205
8banks busy for write cycles: 1273836

CPU 0 Branch Prediction Accuracy: 93.023% MPKI: 13.5823 Average ROB Occupancy at Mispredict: 21.9518
Branch types
NOT_BRANCH: 40266107 80.5322%
BRANCH_DIRECT_JUMP: 773568 1.54714%
BRANCH_INDIRECT: 108366 0.216732%
BRANCH_CONDITIONAL: 6305104 12.6102%
BRANCH_DIRECT_CALL: 1062756 2.12551%
BRANCH_INDIRECT_CALL: 210540 0.42108%
BRANCH_RETURN: 1273273 2.54655%
BRANCH_OTHER: 0 0%

@sumon_overall_L1D     25952      3689    163895    189843    738679    739124
@Sumon_Early_by_class_L1D     13006      3337      8006         0
@Sumon_Late_by_class_L1D      1097      1369       486         0

@Sumon_Early_by_cycle_L1D      5930      4829      4081      1778      2428      2866      1384       639       293      1153       456       115
@Sumon_Late_by_cycle_L1D      1725       436       381       213        84       110         6         0         0         0         0         0
@Sumon_Early_stream_L1D      3558      3731      3211       518        72       182       509        28        63       749       312        73
@Sumon_Early_CS_L1D       293       170       325       345       255      1197       499       208        27        16         2         0
@Sumon_Early_CPLX_L1D      2041       561       276       147      2095      1482       234       402       202       387       141        38
@Sumon_Late_stream_L1D       858        80        38        17        18        83         3         0         0         0         0         0
@Sumon_Late_CS_L1D       413       336       333       195        65        25         2         0         0         0         0         0
@Sumon_Late_CPLX_L1D       452        19        10         1         1         2         1         0         0         0         0         0
@sumon_overall_L2C     48002      6662     77142    125013    553978    553978
@Sumon_Early_by_class_L2C      1182        37      1129         0
@Sumon_Late_by_class_L2C         0         0         0         0

@Sumon_Early_by_cycle_L2C      3582      4997      4369      2459      2392      6395      1839       512      1446      5322     10577      4112
@Sumon_Late_by_cycle_L2C      3621      2176       859         6         0         0         0         0         0         0         0         0
@Sumon_Early_stream_L2C         0         0         0         0         0         0         0         0         0         5       696       481
@Sumon_Early_CS_L2C         0         0         0         0         0         0         0         0         0         0         1        36
@Sumon_Early_CPLX_L2C         0         0         0         0         0         0         0         0         0        20       214       895
@Sumon_Late_stream_L2C         0         0         0         0         0         0         0         0         0         0         0         0
@Sumon_Late_CS_L2C         0         0         0         0         0         0         0         0         0         0         0         0
@Sumon_Late_CPLX_L2C         0         0         0         0         0         0         0         0         0         0         0         0
DRAM PAGES: 1048576
Allocated PAGES: 5429
