
*** ChampSim Multicore Out-of-Order Simulator ***

Warmup Instructions: 10000000
Simulation Instructions: 50000000
Number of CPUs: 1
LLC sets: 2048
LLC ways: 16
Off-chip DRAM Size: 4096 MB Channels: 1 Width: 64-bit Data Rate: 800 MT/s
CPU 0 runs traces/SPEC2017/600.perlbench_s-570B.champsimtrace.xz
.xz
CPU 0 Bimodal branch predictor
BTB has LRU replacement policy
ITLB has LRU replacement policy
DTLB has LRU replacement policy
STLB has LRU replacement policy
L1I has LRU replacement policy
IP Table Entries: 256
L1D has LRU replacement policy
IP_Table L2 entries: 256
L2C has LRU replacement policy
LLC has LRU replacement policy
Heartbeat CPU 0 instructions: 10000003 cycles: 2893542 heartbeat IPC: 3.45597 cumulative IPC: 3.45597 (Simulation time: 0 hr 21 min 51 sec) 

Warmup complete CPU 0 instructions: 10000003 cycles: 2893542 (Simulation time: 0 hr 21 min 51 sec) 

Heartbeat CPU 0 instructions: 20000003 cycles: 18674276 heartbeat IPC: 0.633684 cumulative IPC: 0.633684 (Simulation time: 0 hr 42 min 19 sec) 
Heartbeat CPU 0 instructions: 30000002 cycles: 35031938 heartbeat IPC: 0.611334 cumulative IPC: 0.622309 (Simulation time: 1 hr 3 min 4 sec) 
Heartbeat CPU 0 instructions: 40000000 cycles: 51076248 heartbeat IPC: 0.623274 cumulative IPC: 0.62263 (Simulation time: 1 hr 23 min 2 sec) 
Heartbeat CPU 0 instructions: 50000003 cycles: 66525315 heartbeat IPC: 0.647289 cumulative IPC: 0.628617 (Simulation time: 1 hr 42 min 57 sec) 
Heartbeat CPU 0 instructions: 60000000 cycles: 81725631 heartbeat IPC: 0.657881 cumulative IPC: 0.634259 (Simulation time: 2 hr 1 min 20 sec) 
Finished CPU 0 instructions: 50000001 cycles: 78832090 cumulative IPC: 0.634259 (Simulation time: 2 hr 1 min 20 sec) 

ChampSim completed all CPUs

Region of Interest Statistics

CPU 0 cumulative IPC: 0.634259 instructions: 50000001 cycles: 78832090
ITLB TOTAL     ACCESS:    7354570  HIT:    7354381  MISS:        189  HIT %:    99.9974  MISS %: 0.00256983   MPKI: 0.00378
ITLB LOAD TRANSLATION ACCESS:    7354570  HIT:    7354381  MISS:        189  HIT %:    99.9974  MISS %: 0.00256983   MPKI: 0.00378
ITLB PREFETCH  REQUESTED:          0  ISSUED:          0  USEFUL:          0  USELESS:          0
ITLB USEFUL LOAD PREFETCHES:          0 PREFETCH ISSUED TO LOWER LEVEL:          0  ACCURACY: -nan
ITLB TIMELY PREFETCHES:          0 LATE PREFETCHES: 0 DROPPED PREFETCHES: 0
ITLB PREFETCHES SAME FILL-ORIGIN LEVEL: 0 DIFFERENT FILL-ORIGIN LEVEL: 0
ITLB AVERAGE MISS LATENCY: 10.6455 cycles
ITLB RQ	ACCESS:    8343806	FORWARD:          0	MERGED:     989193	TO_CACHE:    7354613

DTLB TOTAL     ACCESS:   12653379  HIT:   12619468  MISS:      33911  HIT %:     99.732  MISS %:      0.268   MPKI: 0.67822
DTLB LOAD TRANSLATION ACCESS:   12653379  HIT:   12619468  MISS:      33911  HIT %:     99.732  MISS %:      0.268   MPKI: 0.67822
DTLB PREFETCH  REQUESTED:          0  ISSUED:          0  USEFUL:          0  USELESS:          0
DTLB USEFUL LOAD PREFETCHES:          0 PREFETCH ISSUED TO LOWER LEVEL:          0  ACCURACY: -nan
DTLB TIMELY PREFETCHES:          0 LATE PREFETCHES: 0 DROPPED PREFETCHES: 0
DTLB PREFETCHES SAME FILL-ORIGIN LEVEL: 0 DIFFERENT FILL-ORIGIN LEVEL: 0
DTLB AVERAGE MISS LATENCY: 10.5134 cycles
DTLB RQ	ACCESS:   19242792	FORWARD:          0	MERGED:    6589226	TO_CACHE:   12653566

STLB TOTAL     ACCESS:     101313  HIT:     101004  MISS:        309  HIT %:     99.695  MISS %:   0.304995   MPKI: 0.00618
STLB LOAD TRANSLATION ACCESS:      34100  HIT:      33791  MISS:        309  HIT %:    99.0938  MISS %:   0.906158   MPKI: 0.00618
STLB TRANSLATION FROM L1D PREFETCHER ACCESS:      67213  HIT:      67213  MISS:          0  HIT %:        100  MISS %:          0   MPKI: 0
STLB PREFETCH  REQUESTED:          0  ISSUED:          0  USEFUL:          0  USELESS:          0
STLB USEFUL LOAD PREFETCHES:          0 PREFETCH ISSUED TO LOWER LEVEL:          0  ACCURACY: -nan
STLB TIMELY PREFETCHES:          0 LATE PREFETCHES: 0 DROPPED PREFETCHES: 0
STLB PREFETCHES SAME FILL-ORIGIN LEVEL: 0 DIFFERENT FILL-ORIGIN LEVEL: 0
STLB AVERAGE MISS LATENCY: 165.812 cycles
STLB RQ	ACCESS:     115949	FORWARD:          0	MERGED:      14635	TO_CACHE:     101314

STLB Hit, L1D data hit: 0
STLB Hit, L2C data hit: 0
STLB Hit, LLC data hit: 0
STLB Hit, LLC data miss: 0
STLB STLB hints to L2: 0
L1D TOTAL     ACCESS:   19323879  HIT:   19316578  MISS:       7301  HIT %:    99.9622  MISS %:  0.0377823   MPKI: 0.14602
L1D LOAD      ACCESS:    8507483  HIT:    8504305  MISS:       3178  HIT %:    99.9626  MISS %:  0.0373553   MPKI: 0.06356
L1D RFO       ACCESS:   10734580  HIT:   10734396  MISS:        184  HIT %:    99.9983  MISS %: 0.00171409   MPKI: 0.00368
L1D PREFETCH  ACCESS:      81816  HIT:      77877  MISS:       3939  HIT %:    95.1855  MISS %:    4.81446   MPKI: 0.07878
L1D PREFETCH  REQUESTED:     163698  ISSUED:     163698  USEFUL:       1298  USELESS:       2599
L1D USEFUL LOAD PREFETCHES:       1298 PREFETCH ISSUED TO LOWER LEVEL:       3939  ACCURACY: 32.9525
L1D TIMELY PREFETCHES:       1298 LATE PREFETCHES: 109 DROPPED PREFETCHES: 0
L1D PREFETCHES SAME FILL-ORIGIN LEVEL: 3939 DIFFERENT FILL-ORIGIN LEVEL: 0
L1D AVERAGE MISS LATENCY: 144.136 cycles
L1D RQ	ACCESS:   10818812	FORWARD:          0	MERGED:    1977725	TO_CACHE:    8507919
L1D WQ	ACCESS:   10830029	FORWARD:     333168	MERGED:      95156	TO_CACHE:   10734873
L1D PQ	ACCESS:      81849	FORWARD:          0	MERGED:          0	TO_CACHE:      81849

L1D UNIQUE REGIONS ACCESSED: 0
L1D REGIONS CONFLICTS: 0
L1D Cross Page Prefetch Requests: 0
L1D Same Page Prefetch Requests: 175227
L1D ROI Sum of L1D PQ occupancy: 1066132
L1D PREFETCHES PUSHED FROM L2C: 0
L1I TOTAL     ACCESS:    8343316  HIT:    8341430  MISS:       1886  HIT %:    99.9774  MISS %:  0.0226049   MPKI: 0.03772
L1I LOAD      ACCESS:    8343316  HIT:    8341430  MISS:       1886  HIT %:    99.9774  MISS %:  0.0226049   MPKI: 0.03772
L1I PREFETCH  REQUESTED:          0  ISSUED:          0  USEFUL:          0  USELESS:          0
L1I USEFUL LOAD PREFETCHES:          0 PREFETCH ISSUED TO LOWER LEVEL:          0  ACCURACY: -nan
L1I TIMELY PREFETCHES:          0 LATE PREFETCHES: 0 DROPPED PREFETCHES: 0
L1I PREFETCHES SAME FILL-ORIGIN LEVEL: 0 DIFFERENT FILL-ORIGIN LEVEL: 0
L1I AVERAGE MISS LATENCY: 27.7391 cycles
L1I RQ	ACCESS:   13352830	FORWARD:          0	MERGED:    5009024	TO_CACHE:    8343806

BTB TOTAL     ACCESS:    4994041  HIT:    4730753  MISS:     263288  HIT %:     94.728  MISS %:    5.27204   MPKI: 5.26576
BTB BRANCH_DIRECT_JUMP	ACCESS:    1003467  HIT:    1003316  MISS:        151
BTB BRANCH_INDIRECT	ACCESS:     365932  HIT:     110976  MISS:     254956
BTB BRANCH_CONDITIONAL	ACCESS:    2901535  HIT:    2901105  MISS:        430
BTB BRANCH_DIRECT_CALL	ACCESS:     355129  HIT:     355070  MISS:         59
BTB BRANCH_INDIRECT_CALL	ACCESS:       6424  HIT:       3196  MISS:       3228
BTB BRANCH_RETURN	ACCESS:     361554  HIT:     357090  MISS:       4464
BTB BRANCH_OTHER ACCESS:          0  HIT:          0  MISS:          0

L2C TOTAL     ACCESS:      11424  HIT:       5004  MISS:       6420  HIT %:    43.8025  MISS %:    56.1975   MPKI: 0.1284
L2C LOAD      ACCESS:       5064  HIT:       2012  MISS:       3052  HIT %:    39.7314  MISS %:    60.2686   MPKI: 0.06104
L2C DATA LOAD MPKI: 0.05796
L2C INSTRUCTION LOAD MPKI: 0.00308
L2C RFO       ACCESS:        184  HIT:         44  MISS:        140  HIT %:     23.913  MISS %:     76.087   MPKI: 0.0028
L2C PREFETCH  ACCESS:       5267  HIT:       2126  MISS:       3141  HIT %:    40.3645  MISS %:    59.6355   MPKI: 0.06282
L2C DATA PREFETCH MPKI: 0.06282
L2C INSTRUCTION PREFETCH MPKI: 0
L2C WRITEBACK ACCESS:        593  HIT:        588  MISS:          5  HIT %:    99.1568  MISS %:    0.84317   MPKI: 0.0001
L2C LOAD TRANSLATION ACCESS:        316  HIT:        234  MISS:         82  HIT %:    74.0506  MISS %:    25.9494   MPKI: 0.00164
L2C PREFETCH  REQUESTED:       1658  ISSUED:       1658  USEFUL:        150  USELESS:        969
L2C USEFUL LOAD PREFETCHES:        150 PREFETCH ISSUED TO LOWER LEVEL:       3146  ACCURACY: 4.76796
L2C TIMELY PREFETCHES:        150 LATE PREFETCHES: 5 DROPPED PREFETCHES: 0
L2C PREFETCHES SAME FILL-ORIGIN LEVEL: 523 DIFFERENT FILL-ORIGIN LEVEL: 0
L2C AVERAGE MISS LATENCY: 170.417 cycles
L2C RQ	ACCESS:       5564	FORWARD:          0	MERGED:          0	TO_CACHE:       5564
L2C WQ	ACCESS:        593	FORWARD:          0	MERGED:          0	TO_CACHE:        593
L2C PQ	ACCESS:       5597	FORWARD:          0	MERGED:        254	TO_CACHE:       5343

L2C Instructions Evicting Data 44
L2C Translations Evicting Data 19
L2C Data Evicting Data 1690
L2C Instructions Evicting Instructions 6
L2C Translations Evicting Instructions 0
L2C Data Evicting Instructions 291
L2C Instructions Evicting Translations 0
L2C Translations Evicting Translations 1
L2C Data Evicting Translations 61
L2C Dense regions hint from L2: 0
PSCL5 TOTAL     ACCESS:        309  HIT:        309  MISS:          0  HIT %:        100  MISS %:          0   MPKI: 0
PSCL5 LOAD TRANSLATION ACCESS:        309  HIT:        309  MISS:          0  HIT %:        100  MISS %:          0   MPKI: 0
PSCL5 PREFETCH  REQUESTED:          0  ISSUED:          0  USEFUL:          0  USELESS:          0
PSCL5 USEFUL LOAD PREFETCHES:          0 PREFETCH ISSUED TO LOWER LEVEL:          0  ACCURACY: -nan
PSCL5 TIMELY PREFETCHES:          0 LATE PREFETCHES: 0 DROPPED PREFETCHES: 0
PSCL5 PREFETCHES SAME FILL-ORIGIN LEVEL: 0 DIFFERENT FILL-ORIGIN LEVEL: 0

PSCL4 TOTAL     ACCESS:        309  HIT:        309  MISS:          0  HIT %:        100  MISS %:          0   MPKI: 0
PSCL4 LOAD TRANSLATION ACCESS:        309  HIT:        309  MISS:          0  HIT %:        100  MISS %:          0   MPKI: 0
PSCL4 PREFETCH  REQUESTED:          0  ISSUED:          0  USEFUL:          0  USELESS:          0
PSCL4 USEFUL LOAD PREFETCHES:          0 PREFETCH ISSUED TO LOWER LEVEL:          0  ACCURACY: -nan
PSCL4 TIMELY PREFETCHES:          0 LATE PREFETCHES: 0 DROPPED PREFETCHES: 0
PSCL4 PREFETCHES SAME FILL-ORIGIN LEVEL: 0 DIFFERENT FILL-ORIGIN LEVEL: 0

PSCL3 TOTAL     ACCESS:        309  HIT:        309  MISS:          0  HIT %:        100  MISS %:          0   MPKI: 0
PSCL3 LOAD TRANSLATION ACCESS:        309  HIT:        309  MISS:          0  HIT %:        100  MISS %:          0   MPKI: 0
PSCL3 PREFETCH  REQUESTED:          0  ISSUED:          0  USEFUL:          0  USELESS:          0
PSCL3 USEFUL LOAD PREFETCHES:          0 PREFETCH ISSUED TO LOWER LEVEL:          0  ACCURACY: -nan
PSCL3 TIMELY PREFETCHES:          0 LATE PREFETCHES: 0 DROPPED PREFETCHES: 0
PSCL3 PREFETCHES SAME FILL-ORIGIN LEVEL: 0 DIFFERENT FILL-ORIGIN LEVEL: 0

PSCL2 TOTAL     ACCESS:        309  HIT:        296  MISS:         13  HIT %:    95.7929  MISS %:    4.20712   MPKI: 0.00026
PSCL2 LOAD TRANSLATION ACCESS:        309  HIT:        296  MISS:         13  HIT %:    95.7929  MISS %:    4.20712   MPKI: 0.00026
PSCL2 PREFETCH  REQUESTED:          0  ISSUED:          0  USEFUL:          0  USELESS:          0
PSCL2 USEFUL LOAD PREFETCHES:          0 PREFETCH ISSUED TO LOWER LEVEL:          0  ACCURACY: -nan
PSCL2 TIMELY PREFETCHES:          0 LATE PREFETCHES: 0 DROPPED PREFETCHES: 0
PSCL2 PREFETCHES SAME FILL-ORIGIN LEVEL: 0 DIFFERENT FILL-ORIGIN LEVEL: 0

LLC TOTAL     ACCESS:       6565  HIT:        205  MISS:       6360  HIT %:    3.12262  MISS %:    96.8774   MPKI: 0.1272
LLC LOAD      ACCESS:       3047  HIT:         24  MISS:       3023  HIT %:    0.78766  MISS %:    99.2123   MPKI: 0.06046
LLC RFO       ACCESS:        140  HIT:          0  MISS:        140  HIT %:          0  MISS %:        100   MPKI: 0.0028
LLC PREFETCH  ACCESS:       3146  HIT:         29  MISS:       3117  HIT %:   0.921805  MISS %:    99.0782   MPKI: 0.06234
LLC WRITEBACK ACCESS:        150  HIT:        150  MISS:          0  HIT %:        100  MISS %:          0   MPKI: 0
LLC LOAD TRANSLATION ACCESS:         82  HIT:          2  MISS:         80  HIT %:    2.43902  MISS %:     97.561   MPKI: 0.0016
LLC PREFETCH  REQUESTED:          0  ISSUED:          0  USEFUL:          1  USELESS:          0
LLC USEFUL LOAD PREFETCHES:          1 PREFETCH ISSUED TO LOWER LEVEL:       3117  ACCURACY: 0.0320821
LLC TIMELY PREFETCHES:          1 LATE PREFETCHES: 0 DROPPED PREFETCHES: 0
LLC PREFETCHES SAME FILL-ORIGIN LEVEL: 0 DIFFERENT FILL-ORIGIN LEVEL: 0
LLC AVERAGE MISS LATENCY: 141.34 cycles
LLC RQ	ACCESS:       3269	FORWARD:          0	MERGED:          0	TO_CACHE:       3269
LLC WQ	ACCESS:        150	FORWARD:          0	MERGED:          0	TO_CACHE:        150
LLC PQ	ACCESS:       3146	FORWARD:          0	MERGED:          0	TO_CACHE:       3146

LLC Dense regions hint to LLC: 0

RAW hits: 778118
Loads Generated: 11596922
Loads sent to L1D: 10818812
Stores Generated: 10830023
Stores sent to L1D: 10830029
Major fault: 0 Minor fault: 672
Allocated PAGES: 672

stream: 
stream:times selected: 771791
stream:pref_filled: 3015
stream:pref_useful: 1060
stream:pref_late: 74
stream:misses: 168
stream:misses_by_poll: 0

CS: 
CS:times selected: 18207
CS:pref_filled: 588
CS:pref_useful: 502
CS:pref_late: 0
CS:misses: 23
CS:misses_by_poll: 0

CPLX: 
CPLX:times selected: 753356
CPLX:pref_filled: 2076
CPLX:pref_useful: 246
CPLX:pref_late: 14
CPLX:misses: 1570
CPLX:misses_by_poll: 1

NL_L1: 
NL:times selected: 619
NL:pref_filled: 17
NL:pref_useful: 7
NL:pref_late: 0
NL:misses: 9
NL:misses_by_poll: 0

total selections: 1543973
total_filled: 3939
total_useful: 1298
total_late: 96
total_polluted: 1
total_misses_after_warmup: 3617
conflicts: 121685
Degree Incremented Times: 159
Degree Decremented Times: 72147

L1 IP Table Write Accesses: 7566355
L1 IP Table Read Accesses: 7444670
L1 RST Write Accesses: 646252
L1 RST Read Accesses: 1292504
L1 CSPT Write Accesses: 646252
L1 CSPT Read Accesses: 1277991
L1 RR Filter Tag Write Accesses: 81849
L1 RR Filter Tag Read Accesses: 20796889
L1 IP Table Tag Write Accesses: 8507922
L1 IP Table Tag Read Accesses: 8507922
L1 RST Tag Write Accesses: 0
L1 RST Tag Read Accesses: 9048450
L1 RR Filter Write Accesses: 0
L1 RR Filter Read Accesses: 1160405
test: 9378
L2 IP Table Read Accesses: 13315
L2 IP Table Write Accesses: 10973
L2 IP Table Tag Read Accesses: 7022
L2 IP Table Tag Write Accesses: 7022

DRAM Statistics
 CHANNEL 0
 RQ ROW_BUFFER_HIT:       2950  ROW_BUFFER_MISS:       3410
 DBUS_CONGESTED:       2051
 WQ ROW_BUFFER_HIT:          0  ROW_BUFFER_MISS:          0  FULL:          0

 AVG_CONGESTED_CYCLE: 31
 All warmup complete: 2
Channel 0 Bank busy for read cycles: 0
Channel 0 Bank busy for write cycles: 0
Channel 0
Rank 0
0banks busy for read cycles: 78344836
0banks busy for write cycles: 0
1banks busy for read cycles: 309222
1banks busy for write cycles: 0
2banks busy for read cycles: 128067
2banks busy for write cycles: 0
3banks busy for read cycles: 31807
3banks busy for write cycles: 0
4banks busy for read cycles: 11006
4banks busy for write cycles: 0
5banks busy for read cycles: 4133
5banks busy for write cycles: 0
6banks busy for read cycles: 2252
6banks busy for write cycles: 0
7banks busy for read cycles: 472
7banks busy for write cycles: 0
8banks busy for read cycles: 296
8banks busy for write cycles: 0

CPU 0 Branch Prediction Accuracy: 97.8399% MPKI: 3.0284 Average ROB Occupancy at Mispredict: 45.9352
Branch types
NOT_BRANCH: 42989829 85.9797%
BRANCH_DIRECT_JUMP: 1003467 2.00693%
BRANCH_INDIRECT: 365932 0.731864%
BRANCH_CONDITIONAL: 4917335 9.83467%
BRANCH_DIRECT_CALL: 355129 0.710258%
BRANCH_INDIRECT_CALL: 6424 0.012848%
BRANCH_RETURN: 361554 0.723108%
BRANCH_OTHER: 0 0%

@sumon_overall_L1D      1298       109      2599      3939    163698    163698
@Sumon_Early_by_class_L1D       719       374       185         0
@Sumon_Late_by_class_L1D        70         0        13         0

@Sumon_Early_by_cycle_L1D       148       106        60        43        52       166        80        31        31        61        94       426
@Sumon_Late_by_cycle_L1D        68        22         1         0         0         0         0         0         0         0         0         0
@Sumon_Early_stream_L1D       129        89        43        34        37       109        55        16        21        24        34       128
@Sumon_Early_CS_L1D         6         4         8         3         6        25        11        10         6        33        52       210
@Sumon_Early_CPLX_L1D        11         7         9         5         6        28        14         5         4         3         7        86
@Sumon_Late_stream_L1D        49        20         1         0         0         0         0         0         0         0         0         0
@Sumon_Late_CS_L1D         0         0         0         0         0         0         0         0         0         0         0         0
@Sumon_Late_CPLX_L1D        11         2         0         0         0         0         0         0         0         0         0         0
@sumon_overall_L2C       150         5       969      3141      1658      1658
@Sumon_Early_by_class_L2C        13        58        13         0
@Sumon_Late_by_class_L2C         0         0         0         0

@Sumon_Early_by_cycle_L2C         6         1        14         9         0         6         1         8         2         4         3        96
@Sumon_Late_by_cycle_L2C         3         1         1         0         0         0         0         0         0         0         0         0
@Sumon_Early_stream_L2C         0         0         0         0         0         0         0         0         0         0         0        13
@Sumon_Early_CS_L2C         0         0         1         2         0         0         0         3         0         0         2        50
@Sumon_Early_CPLX_L2C         0         0         0         0         0         0         0         0         0         0         0        13
@Sumon_Late_stream_L2C         0         0         0         0         0         0         0         0         0         0         0         0
@Sumon_Late_CS_L2C         0         0         0         0         0         0         0         0         0         0         0         0
@Sumon_Late_CPLX_L2C         0         0         0         0         0         0         0         0         0         0         0         0
DRAM PAGES: 1048576
Allocated PAGES: 672
