
*** ChampSim Multicore Out-of-Order Simulator ***

Warmup Instructions: 10000000
Simulation Instructions: 50000000
Number of CPUs: 1
LLC sets: 2048
LLC ways: 16
Off-chip DRAM Size: 4096 MB Channels: 1 Width: 64-bit Data Rate: 800 MT/s
CPU 0 runs traces/SPEC2017/605.mcf_s-1152B.champsimtrace.xz
.xz
CPU 0 Bimodal branch predictor
BTB has LRU replacement policy
ITLB has LRU replacement policy
DTLB has LRU replacement policy
STLB has LRU replacement policy
L1I has LRU replacement policy
IP Table Entries: 256
L1D has LRU replacement policy
IP_Table L2 entries: 256
L2C has LRU replacement policy
LLC has LRU replacement policy
Heartbeat CPU 0 instructions: 10000001 cycles: 3346592 heartbeat IPC: 2.98811 cumulative IPC: 2.98811 (Simulation time: 0 hr 28 min 58 sec) 

Warmup complete CPU 0 instructions: 10000001 cycles: 3346592 (Simulation time: 0 hr 28 min 58 sec) 

Heartbeat CPU 0 instructions: 20000003 cycles: 46263864 heartbeat IPC: 0.233006 cumulative IPC: 0.233006 (Simulation time: 0 hr 54 min 39 sec) 
Heartbeat CPU 0 instructions: 30000000 cycles: 88830483 heartbeat IPC: 0.234926 cumulative IPC: 0.233962 (Simulation time: 1 hr 19 min 59 sec) 
Heartbeat CPU 0 instructions: 40000003 cycles: 131492883 heartbeat IPC: 0.234399 cumulative IPC: 0.234107 (Simulation time: 1 hr 45 min 17 sec) 
Heartbeat CPU 0 instructions: 50000001 cycles: 174348563 heartbeat IPC: 0.233341 cumulative IPC: 0.233915 (Simulation time: 2 hr 6 min 10 sec) 
Heartbeat CPU 0 instructions: 60000001 cycles: 216990043 heartbeat IPC: 0.234513 cumulative IPC: 0.234035 (Simulation time: 2 hr 19 min 16 sec) 
Finished CPU 0 instructions: 50000000 cycles: 213643451 cumulative IPC: 0.234035 (Simulation time: 2 hr 19 min 16 sec) 

ChampSim completed all CPUs

Region of Interest Statistics

CPU 0 cumulative IPC: 0.234035 instructions: 50000000 cycles: 213643451
ITLB TOTAL     ACCESS:    8900043  HIT:    8900043  MISS:          0  HIT %:        100  MISS %:          0   MPKI: 0
ITLB LOAD TRANSLATION ACCESS:    8900043  HIT:    8900043  MISS:          0  HIT %:        100  MISS %:          0   MPKI: 0
ITLB PREFETCH  REQUESTED:          0  ISSUED:          0  USEFUL:          0  USELESS:          0
ITLB USEFUL LOAD PREFETCHES:          0 PREFETCH ISSUED TO LOWER LEVEL:          0  ACCURACY: -nan
ITLB TIMELY PREFETCHES:          0 LATE PREFETCHES: 0 DROPPED PREFETCHES: 0
ITLB PREFETCHES SAME FILL-ORIGIN LEVEL: 0 DIFFERENT FILL-ORIGIN LEVEL: 0
ITLB AVERAGE MISS LATENCY: -nan cycles
ITLB RQ	ACCESS:    9317547	FORWARD:          0	MERGED:     417504	TO_CACHE:    8900043

DTLB TOTAL     ACCESS:   14843094  HIT:   13548331  MISS:    1294763  HIT %:     91.277  MISS %:      8.723   MPKI: 25.8953
DTLB LOAD TRANSLATION ACCESS:   14843094  HIT:   13548331  MISS:    1294763  HIT %:     91.277  MISS %:      8.723   MPKI: 25.8953
DTLB PREFETCH  REQUESTED:          0  ISSUED:          0  USEFUL:          0  USELESS:          0
DTLB USEFUL LOAD PREFETCHES:          0 PREFETCH ISSUED TO LOWER LEVEL:          0  ACCURACY: -nan
DTLB TIMELY PREFETCHES:          0 LATE PREFETCHES: 0 DROPPED PREFETCHES: 0
DTLB PREFETCHES SAME FILL-ORIGIN LEVEL: 0 DIFFERENT FILL-ORIGIN LEVEL: 0
DTLB AVERAGE MISS LATENCY: 11.0944 cycles
DTLB RQ	ACCESS:   18147038	FORWARD:          0	MERGED:    3199884	TO_CACHE:   14947154

STLB TOTAL     ACCESS:    5027083  HIT:    5010609  MISS:      16474  HIT %:    99.6723  MISS %:   0.327705   MPKI: 0.32948
STLB LOAD TRANSLATION ACCESS:    1294763  HIT:    1278289  MISS:      16474  HIT %:    98.7276  MISS %:    1.27236   MPKI: 0.32948
STLB TRANSLATION FROM L1D PREFETCHER ACCESS:    3732320  HIT:    3732320  MISS:          0  HIT %:        100  MISS %:          0   MPKI: 0
STLB PREFETCH  REQUESTED:          0  ISSUED:          0  USEFUL:          0  USELESS:          0
STLB USEFUL LOAD PREFETCHES:          0 PREFETCH ISSUED TO LOWER LEVEL:          0  ACCURACY: -nan
STLB TIMELY PREFETCHES:          0 LATE PREFETCHES: 0 DROPPED PREFETCHES: 0
STLB PREFETCHES SAME FILL-ORIGIN LEVEL: 0 DIFFERENT FILL-ORIGIN LEVEL: 0
STLB AVERAGE MISS LATENCY: 145.93 cycles
STLB RQ	ACCESS:    5698757	FORWARD:          0	MERGED:     671673	TO_CACHE:    5027084

STLB Hit, L1D data hit: 0
STLB Hit, L2C data hit: 0
STLB Hit, LLC data hit: 0
STLB Hit, LLC data miss: 0
STLB STLB hints to L2: 0
L1D TOTAL     ACCESS:   21985926  HIT:   17408275  MISS:    4577651  HIT %:    79.1792  MISS %:    20.8208   MPKI: 91.553
L1D LOAD      ACCESS:   12809453  HIT:   11005424  MISS:    1804029  HIT %:    85.9164  MISS %:    14.0836   MPKI: 36.0806
L1D RFO       ACCESS:    4863648  HIT:    4686053  MISS:     177595  HIT %:    96.3485  MISS %:    3.65148   MPKI: 3.5519
L1D PREFETCH  ACCESS:    4312825  HIT:    1716798  MISS:    2596027  HIT %:    39.8068  MISS %:    60.1932   MPKI: 51.9205
L1D PREFETCH  REQUESTED:    8812328  ISSUED:    8812057  USEFUL:     655310  USELESS:    1940730
L1D USEFUL LOAD PREFETCHES:     655310 PREFETCH ISSUED TO LOWER LEVEL:    2596275  ACCURACY: 25.2404
L1D TIMELY PREFETCHES:     655310 LATE PREFETCHES: 167601 DROPPED PREFETCHES: 0
L1D PREFETCHES SAME FILL-ORIGIN LEVEL: 2596275 DIFFERENT FILL-ORIGIN LEVEL: 0
L1D AVERAGE MISS LATENCY: 4836.67 cycles
L1D RQ	ACCESS:   17083576	FORWARD:          0	MERGED:    3608459	TO_CACHE:   12985267
L1D WQ	ACCESS:    5189939	FORWARD:     493919	MERGED:      28168	TO_CACHE:    5161771
L1D PQ	ACCESS:    4408063	FORWARD:          0	MERGED:          0	TO_CACHE:    4403994

L1D UNIQUE REGIONS ACCESSED: 0
L1D REGIONS CONFLICTS: 0
L1D Cross Page Prefetch Requests: 0
L1D Same Page Prefetch Requests: 5263972
L1D ROI Sum of L1D PQ occupancy: 63973735
L1D PREFETCHES PUSHED FROM L2C: 0
L1I TOTAL     ACCESS:    9317547  HIT:    9317547  MISS:          0  HIT %:        100  MISS %:          0   MPKI: 0
L1I LOAD      ACCESS:    9317547  HIT:    9317547  MISS:          0  HIT %:        100  MISS %:          0   MPKI: 0
L1I PREFETCH  REQUESTED:          0  ISSUED:          0  USEFUL:          0  USELESS:          0
L1I USEFUL LOAD PREFETCHES:          0 PREFETCH ISSUED TO LOWER LEVEL:          0  ACCURACY: -nan
L1I TIMELY PREFETCHES:          0 LATE PREFETCHES: 0 DROPPED PREFETCHES: 0
L1I PREFETCHES SAME FILL-ORIGIN LEVEL: 0 DIFFERENT FILL-ORIGIN LEVEL: 0
L1I AVERAGE MISS LATENCY: -nan cycles
L1I RQ	ACCESS:   14443048	FORWARD:          0	MERGED:    5125501	TO_CACHE:    9317547

BTB TOTAL     ACCESS:   11600278  HIT:   11097954  MISS:     502324  HIT %:    95.6697  MISS %:    4.33028   MPKI: 10.0465
BTB BRANCH_DIRECT_JUMP	ACCESS:    1321999  HIT:    1321963  MISS:         36
BTB BRANCH_INDIRECT	ACCESS:          0  HIT:          0  MISS:          0
BTB BRANCH_CONDITIONAL	ACCESS:    7949724  HIT:    7949650  MISS:         74
BTB BRANCH_DIRECT_CALL	ACCESS:    1094376  HIT:    1094358  MISS:         18
BTB BRANCH_INDIRECT_CALL	ACCESS:      69902  HIT:      69894  MISS:          8
BTB BRANCH_RETURN	ACCESS:    1164277  HIT:     662089  MISS:     502188
BTB BRANCH_OTHER ACCESS:          0  HIT:          0  MISS:          0

L2C TOTAL     ACCESS:    5445874  HIT:    1957982  MISS:    3487892  HIT %:    35.9535  MISS %:    64.0465   MPKI: 69.7578
L2C LOAD      ACCESS:    1804018  HIT:     491811  MISS:    1312207  HIT %:     27.262  MISS %:     72.738   MPKI: 26.2441
L2C DATA LOAD MPKI: 26.2441
L2C INSTRUCTION LOAD MPKI: 0
L2C RFO       ACCESS:     177388  HIT:      78447  MISS:      98941  HIT %:    44.2234  MISS %:    55.7766   MPKI: 1.97882
L2C PREFETCH  ACCESS:    3177699  HIT:    1107449  MISS:    2070250  HIT %:    34.8507  MISS %:    65.1493   MPKI: 41.405
L2C DATA PREFETCH MPKI: 41.405
L2C INSTRUCTION PREFETCH MPKI: 0
L2C WRITEBACK ACCESS:     270246  HIT:     269931  MISS:        315  HIT %:    99.8834  MISS %:    0.11656   MPKI: 0.0063
L2C LOAD TRANSLATION ACCESS:      16523  HIT:      10344  MISS:       6179  HIT %:    62.6036  MISS %:    37.3964   MPKI: 0.12358
L2C PREFETCH  REQUESTED:    1310593  ISSUED:    1310561  USEFUL:     112629  USELESS:    1957299
L2C USEFUL LOAD PREFETCHES:     112629 PREFETCH ISSUED TO LOWER LEVEL:    2077208  ACCURACY: 5.42213
L2C TIMELY PREFETCHES:     112629 LATE PREFETCHES: 6958 DROPPED PREFETCHES: 0
L2C PREFETCHES SAME FILL-ORIGIN LEVEL: 521553 DIFFERENT FILL-ORIGIN LEVEL: 0
L2C AVERAGE MISS LATENCY: 134.207 cycles
L2C RQ	ACCESS:    1997941	FORWARD:          0	MERGED:          0	TO_CACHE:    1997929
L2C WQ	ACCESS:     270246	FORWARD:         18	MERGED:          0	TO_CACHE:     270246
L2C PQ	ACCESS:    3906794	FORWARD:          0	MERGED:     334840	TO_CACHE:    3571948

L2C Instructions Evicting Data 0
L2C Translations Evicting Data 6166
L2C Data Evicting Data 3475234
L2C Instructions Evicting Instructions 0
L2C Translations Evicting Instructions 0
L2C Data Evicting Instructions 0
L2C Instructions Evicting Translations 0
L2C Translations Evicting Translations 13
L2C Data Evicting Translations 6164
L2C Dense regions hint from L2: 0
PSCL5 TOTAL     ACCESS:      16474  HIT:      16474  MISS:          0  HIT %:        100  MISS %:          0   MPKI: 0
PSCL5 LOAD TRANSLATION ACCESS:      16474  HIT:      16474  MISS:          0  HIT %:        100  MISS %:          0   MPKI: 0
PSCL5 PREFETCH  REQUESTED:          0  ISSUED:          0  USEFUL:          0  USELESS:          0
PSCL5 USEFUL LOAD PREFETCHES:          0 PREFETCH ISSUED TO LOWER LEVEL:          0  ACCURACY: -nan
PSCL5 TIMELY PREFETCHES:          0 LATE PREFETCHES: 0 DROPPED PREFETCHES: 0
PSCL5 PREFETCHES SAME FILL-ORIGIN LEVEL: 0 DIFFERENT FILL-ORIGIN LEVEL: 0

PSCL4 TOTAL     ACCESS:      16474  HIT:      16474  MISS:          0  HIT %:        100  MISS %:          0   MPKI: 0
PSCL4 LOAD TRANSLATION ACCESS:      16474  HIT:      16474  MISS:          0  HIT %:        100  MISS %:          0   MPKI: 0
PSCL4 PREFETCH  REQUESTED:          0  ISSUED:          0  USEFUL:          0  USELESS:          0
PSCL4 USEFUL LOAD PREFETCHES:          0 PREFETCH ISSUED TO LOWER LEVEL:          0  ACCURACY: -nan
PSCL4 TIMELY PREFETCHES:          0 LATE PREFETCHES: 0 DROPPED PREFETCHES: 0
PSCL4 PREFETCHES SAME FILL-ORIGIN LEVEL: 0 DIFFERENT FILL-ORIGIN LEVEL: 0

PSCL3 TOTAL     ACCESS:      16474  HIT:      16474  MISS:          0  HIT %:        100  MISS %:          0   MPKI: 0
PSCL3 LOAD TRANSLATION ACCESS:      16474  HIT:      16474  MISS:          0  HIT %:        100  MISS %:          0   MPKI: 0
PSCL3 PREFETCH  REQUESTED:          0  ISSUED:          0  USEFUL:          0  USELESS:          0
PSCL3 USEFUL LOAD PREFETCHES:          0 PREFETCH ISSUED TO LOWER LEVEL:          0  ACCURACY: -nan
PSCL3 TIMELY PREFETCHES:          0 LATE PREFETCHES: 0 DROPPED PREFETCHES: 0
PSCL3 PREFETCHES SAME FILL-ORIGIN LEVEL: 0 DIFFERENT FILL-ORIGIN LEVEL: 0

PSCL2 TOTAL     ACCESS:      16474  HIT:      16318  MISS:        156  HIT %:    99.0531  MISS %:   0.946947   MPKI: 0.00312
PSCL2 LOAD TRANSLATION ACCESS:      16474  HIT:      16318  MISS:        156  HIT %:    99.0531  MISS %:   0.946947   MPKI: 0.00312
PSCL2 PREFETCH  REQUESTED:          0  ISSUED:          0  USEFUL:          0  USELESS:          0
PSCL2 USEFUL LOAD PREFETCHES:          0 PREFETCH ISSUED TO LOWER LEVEL:          0  ACCURACY: -nan
PSCL2 TIMELY PREFETCHES:          0 LATE PREFETCHES: 0 DROPPED PREFETCHES: 0
PSCL2 PREFETCHES SAME FILL-ORIGIN LEVEL: 0 DIFFERENT FILL-ORIGIN LEVEL: 0

LLC TOTAL     ACCESS:    3673911  HIT:    2294767  MISS:    1379144  HIT %:    62.4611  MISS %:    37.5389   MPKI: 27.5829
LLC LOAD      ACCESS:    1305248  HIT:     986115  MISS:     319133  HIT %:      75.55  MISS %:      24.45   MPKI: 6.38266
LLC RFO       ACCESS:      98940  HIT:      97956  MISS:        984  HIT %:    99.0055  MISS %:   0.994542   MPKI: 0.01968
LLC PREFETCH  ACCESS:    2077207  HIT:    1021604  MISS:    1055603  HIT %:    49.1816  MISS %:    50.8184   MPKI: 21.1121
LLC WRITEBACK ACCESS:     186337  HIT:     186082  MISS:        255  HIT %:    99.8632  MISS %:   0.136849   MPKI: 0.0051
LLC LOAD TRANSLATION ACCESS:       6179  HIT:       3010  MISS:       3169  HIT %:    48.7134  MISS %:    51.2866   MPKI: 0.06338
LLC PREFETCH  REQUESTED:          0  ISSUED:          0  USEFUL:      87277  USELESS:     967749
LLC USEFUL LOAD PREFETCHES:      87277 PREFETCH ISSUED TO LOWER LEVEL:    1055603  ACCURACY: 8.26798
LLC TIMELY PREFETCHES:      87277 LATE PREFETCHES: 0 DROPPED PREFETCHES: 0
LLC PREFETCHES SAME FILL-ORIGIN LEVEL: 0 DIFFERENT FILL-ORIGIN LEVEL: 0
LLC AVERAGE MISS LATENCY: 263.562 cycles
LLC RQ	ACCESS:    1410369	FORWARD:          0	MERGED:          0	TO_CACHE:    1410367
LLC WQ	ACCESS:     186337	FORWARD:          3	MERGED:          0	TO_CACHE:     186337
LLC PQ	ACCESS:    2077208	FORWARD:          0	MERGED:          0	TO_CACHE:    2077207

LLC Dense regions hint to LLC: 0

RAW hits: 651957
Loads Generated: 17735533
Loads sent to L1D: 17083576
Stores Generated: 5189909
Stores sent to L1D: 5189939
Major fault: 0 Minor fault: 14980
Allocated PAGES: 14980

stream: 
stream:times selected: 7023014
stream:pref_filled: 2001033
stream:pref_useful: 101698
stream:pref_late: 2830
stream:misses: 474853
stream:misses_by_poll: 0

CS: 
CS:times selected: 1080031
CS:pref_filled: 814916
CS:pref_useful: 646208
CS:pref_late: 171978
CS:misses: 238368
CS:misses_by_poll: 2387

CPLX: 
CPLX:times selected: 5889431
CPLX:pref_filled: 254933
CPLX:pref_useful: 32681
CPLX:pref_late: 1545
CPLX:misses: 1651351
CPLX:misses_by_poll: 758

NL_L1: 
NL:times selected: 45330
NL:pref_filled: 15491
NL:pref_useful: 998
NL:pref_late: 213
NL:misses: 16110
NL:misses_by_poll: 1

total selections: 14037806
total_filled: 2596027
total_useful: 655310
total_late: 176569
total_polluted: 3146
total_misses_after_warmup: 1979843
conflicts: 83452
Degree Incremented Times: 53164
Degree Decremented Times: 177915

L1 IP Table Write Accesses: 12778928
L1 IP Table Read Accesses: 12695476
L1 RST Write Accesses: 5823921
L1 RST Read Accesses: 11647842
L1 CSPT Write Accesses: 5823921
L1 CSPT Read Accesses: 10727237
L1 RR Filter Tag Write Accesses: 4408334
L1 RR Filter Tag Read Accesses: 243572696
L1 IP Table Tag Write Accesses: 12985267
L1 IP Table Tag Read Accesses: 12985267
L1 RST Tag Write Accesses: 0
L1 RST Tag Read Accesses: 55495139
L1 RR Filter Write Accesses: 0
L1 RR Filter Read Accesses: 8805424
test: 3368266
L2 IP Table Read Accesses: 8212154
L2 IP Table Write Accesses: 6413362
L2 IP Table Tag Read Accesses: 4108920
L2 IP Table Tag Write Accesses: 4108920

DRAM Statistics
 CHANNEL 0
 RQ ROW_BUFFER_HIT:     324730  ROW_BUFFER_MISS:    1054144
 DBUS_CONGESTED:     942386
 WQ ROW_BUFFER_HIT:       1677  ROW_BUFFER_MISS:       6151  FULL:          0

 AVG_CONGESTED_CYCLE: 34
 All warmup complete: 2
Channel 0 Bank busy for read cycles: 0
Channel 0 Bank busy for write cycles: 0
Channel 0
Rank 0
0banks busy for read cycles: 133278238
0banks busy for write cycles: 6511
1banks busy for read cycles: 20274281
1banks busy for write cycles: 1681515
2banks busy for read cycles: 16105779
2banks busy for write cycles: 232910
3banks busy for read cycles: 12585560
3banks busy for write cycles: 42423
4banks busy for read cycles: 9770862
4banks busy for write cycles: 9866
5banks busy for read cycles: 7272709
5banks busy for write cycles: 3905
6banks busy for read cycles: 5606370
6banks busy for write cycles: 2259
7banks busy for read cycles: 4310705
7banks busy for write cycles: 188
8banks busy for read cycles: 2459371
8banks busy for write cycles: 0

CPU 0 Branch Prediction Accuracy: 90.105% MPKI: 24.6801 Average ROB Occupancy at Mispredict: 14.8835
Branch types
NOT_BRANCH: 37528554 75.0571%
BRANCH_DIRECT_JUMP: 1321999 2.644%
BRANCH_INDIRECT: 0 0%
BRANCH_CONDITIONAL: 8820511 17.641%
BRANCH_DIRECT_CALL: 1094376 2.18875%
BRANCH_INDIRECT_CALL: 69902 0.139804%
BRANCH_RETURN: 1164277 2.32855%
BRANCH_OTHER: 0 0%

@sumon_overall_L1D    655310    167601   1940730   2596027   8812057   8812328
@Sumon_Early_by_class_L1D     85191    539386     29901       209
@Sumon_Late_by_class_L1D      2220    141490      1490       209

@Sumon_Early_by_cycle_L1D    111206     83466    187123    107024     34422     19296     15921     20090     27268     28847     13725      6922
@Sumon_Late_by_cycle_L1D     55469     52740     29906      6546       720        31         0         0         0         0         0         0
@Sumon_Early_stream_L1D      6601      1959      2086      1230       908      4437      5578     10070     15017     20612     10711      5982
@Sumon_Early_CS_L1D    103376     80029    181160    101587     30001     10788      9499      8609      9808      3630       633       266
@Sumon_Early_CPLX_L1D      1016      1465      3867      4194      3500      3936       791      1334      2336      4480      2333       649
@Sumon_Late_stream_L1D      1701       306       167        42         4         0         0         0         0         0         0         0
@Sumon_Late_CS_L1D     52813     51936     29536      6466       708        31         0         0         0         0         0         0
@Sumon_Late_CPLX_L1D       744       497       203        38         8         0         0         0         0         0         0         0
@sumon_overall_L2C    112629      6958   1957299   2070250   1310561   1310593
@Sumon_Early_by_class_L2C     58423     45624      7758         0
@Sumon_Late_by_class_L2C         0      6708         0         0

@Sumon_Early_by_cycle_L2C      3198      4061      4640      1763       556       236        20        84       751      6493     15305     75522
@Sumon_Late_by_cycle_L2C      2952      2148      1371       411        65        11         0         0         0         0         0         0
@Sumon_Early_stream_L2C         0         0         0         0         0         0         3        38       553      5544     11841     40444
@Sumon_Early_CS_L2C      3127      4045      4635      1762       554       226         8        11        20       169      1972     29095
@Sumon_Early_CPLX_L2C         0         0         0         0         0         0         3        14       163       696      1381      5501
@Sumon_Late_stream_L2C         0         0         0         0         0         0         0         0         0         0         0         0
@Sumon_Late_CS_L2C      2709      2141      1371       411        65        11         0         0         0         0         0         0
@Sumon_Late_CPLX_L2C         0         0         0         0         0         0         0         0         0         0         0         0
DRAM PAGES: 1048576
Allocated PAGES: 14980
