
*** ChampSim Multicore Out-of-Order Simulator ***

Warmup Instructions: 10000000
Simulation Instructions: 50000000
Number of CPUs: 1
LLC sets: 2048
LLC ways: 16
Off-chip DRAM Size: 4096 MB Channels: 1 Width: 64-bit Data Rate: 800 MT/s
CPU 0 runs traces/SPEC2017/607.cactuBSSN_s-2421B.champsimtrace.xz
.xz
CPU 0 Bimodal branch predictor
BTB has LRU replacement policy
ITLB has LRU replacement policy
DTLB has LRU replacement policy
STLB has LRU replacement policy
L1I has LRU replacement policy
IP Table Entries: 256
L1D has LRU replacement policy
IP_Table L2 entries: 256
L2C has LRU replacement policy
LLC has LRU replacement policy
Heartbeat CPU 0 instructions: 10000002 cycles: 3586561 heartbeat IPC: 2.78819 cumulative IPC: 2.78819 (Simulation time: 0 hr 30 min 9 sec) 

Warmup complete CPU 0 instructions: 10000002 cycles: 3586561 (Simulation time: 0 hr 30 min 9 sec) 

Heartbeat CPU 0 instructions: 20000001 cycles: 14734492 heartbeat IPC: 0.897027 cumulative IPC: 0.897027 (Simulation time: 0 hr 51 min 25 sec) 
Heartbeat CPU 0 instructions: 30000000 cycles: 25842314 heartbeat IPC: 0.900266 cumulative IPC: 0.898644 (Simulation time: 1 hr 12 min 29 sec) 
Heartbeat CPU 0 instructions: 40000001 cycles: 36920776 heartbeat IPC: 0.902652 cumulative IPC: 0.899976 (Simulation time: 1 hr 33 min 30 sec) 
Heartbeat CPU 0 instructions: 50000000 cycles: 48026766 heartbeat IPC: 0.900415 cumulative IPC: 0.900086 (Simulation time: 1 hr 53 min 32 sec) 
Heartbeat CPU 0 instructions: 60000003 cycles: 59748285 heartbeat IPC: 0.853132 cumulative IPC: 0.890286 (Simulation time: 2 hr 8 min 1 sec) 
Finished CPU 0 instructions: 50000001 cycles: 56161724 cumulative IPC: 0.890286 (Simulation time: 2 hr 8 min 1 sec) 

ChampSim completed all CPUs

Region of Interest Statistics

CPU 0 cumulative IPC: 0.890286 instructions: 50000001 cycles: 56161724
ITLB TOTAL     ACCESS:    6920230  HIT:    6920170  MISS:         60  HIT %:    99.9991  MISS %: 0.000867023   MPKI: 0.0012
ITLB LOAD TRANSLATION ACCESS:    6920230  HIT:    6920170  MISS:         60  HIT %:    99.9991  MISS %: 0.000867023   MPKI: 0.0012
ITLB PREFETCH  REQUESTED:          0  ISSUED:          0  USEFUL:          0  USELESS:          0
ITLB USEFUL LOAD PREFETCHES:          0 PREFETCH ISSUED TO LOWER LEVEL:          0  ACCURACY: -nan
ITLB TIMELY PREFETCHES:          0 LATE PREFETCHES: 0 DROPPED PREFETCHES: 0
ITLB PREFETCHES SAME FILL-ORIGIN LEVEL: 0 DIFFERENT FILL-ORIGIN LEVEL: 0
ITLB AVERAGE MISS LATENCY: 393.367 cycles
ITLB RQ	ACCESS:    8514661	FORWARD:          0	MERGED:    1594419	TO_CACHE:    6920242

DTLB TOTAL     ACCESS:   13508480  HIT:   11289501  MISS:    2218979  HIT %:    83.5734  MISS %:    16.4266   MPKI: 44.3796
DTLB LOAD TRANSLATION ACCESS:   13508480  HIT:   11289501  MISS:    2218979  HIT %:    83.5734  MISS %:    16.4266   MPKI: 44.3796
DTLB PREFETCH  REQUESTED:          0  ISSUED:          0  USEFUL:          0  USELESS:          0
DTLB USEFUL LOAD PREFETCHES:          0 PREFETCH ISSUED TO LOWER LEVEL:          0  ACCURACY: -nan
DTLB TIMELY PREFETCHES:          0 LATE PREFETCHES: 0 DROPPED PREFETCHES: 0
DTLB PREFETCHES SAME FILL-ORIGIN LEVEL: 0 DIFFERENT FILL-ORIGIN LEVEL: 0
DTLB AVERAGE MISS LATENCY: 10.2112 cycles
DTLB RQ	ACCESS:   18953901	FORWARD:          0	MERGED:    5235417	TO_CACHE:   13718484

STLB TOTAL     ACCESS:    2247012  HIT:    2243954  MISS:       3058  HIT %:    99.8639  MISS %:   0.136092   MPKI: 0.06116
STLB LOAD TRANSLATION ACCESS:    2219039  HIT:    2215981  MISS:       3058  HIT %:    99.8622  MISS %:   0.137807   MPKI: 0.06116
STLB TRANSLATION FROM L1D PREFETCHER ACCESS:      27973  HIT:      27973  MISS:          0  HIT %:        100  MISS %:          0   MPKI: 0
STLB PREFETCH  REQUESTED:          0  ISSUED:          0  USEFUL:          0  USELESS:          0
STLB USEFUL LOAD PREFETCHES:          0 PREFETCH ISSUED TO LOWER LEVEL:          0  ACCURACY: -nan
STLB TIMELY PREFETCHES:          0 LATE PREFETCHES: 0 DROPPED PREFETCHES: 0
STLB PREFETCHES SAME FILL-ORIGIN LEVEL: 0 DIFFERENT FILL-ORIGIN LEVEL: 0
STLB AVERAGE MISS LATENCY: 643.129 cycles
STLB RQ	ACCESS:    2248235	FORWARD:          0	MERGED:       1223	TO_CACHE:    2247012

STLB Hit, L1D data hit: 0
STLB Hit, L2C data hit: 0
STLB Hit, LLC data hit: 0
STLB Hit, LLC data miss: 0
STLB STLB hints to L2: 0
L1D TOTAL     ACCESS:   18861383  HIT:   14821482  MISS:    4039901  HIT %:    78.5811  MISS %:    21.4189   MPKI: 80.798
L1D LOAD      ACCESS:   14561512  HIT:   10867090  MISS:    3694422  HIT %:    74.6289  MISS %:    25.3711   MPKI: 73.8884
L1D RFO       ACCESS:    4270691  HIT:    3951332  MISS:     319359  HIT %:    92.5221  MISS %:    7.47792   MPKI: 6.38718
L1D PREFETCH  ACCESS:      29180  HIT:       3060  MISS:      26120  HIT %:    10.4866  MISS %:    89.5134   MPKI: 0.5224
L1D PREFETCH  REQUESTED:      58392  ISSUED:      58392  USEFUL:       2338  USELESS:      23734
L1D USEFUL LOAD PREFETCHES:       2338 PREFETCH ISSUED TO LOWER LEVEL:     101339  ACCURACY: 2.30711
L1D TIMELY PREFETCHES:       2338 LATE PREFETCHES: 4 DROPPED PREFETCHES: 0
L1D PREFETCHES SAME FILL-ORIGIN LEVEL: 101339 DIFFERENT FILL-ORIGIN LEVEL: 0
L1D AVERAGE MISS LATENCY: 26.6414 cycles
L1D RQ	ACCESS:   18622475	FORWARD:          0	MERGED:    3957053	TO_CACHE:   14657044
L1D WQ	ACCESS:    4319711	FORWARD:       8378	MERGED:      22854	TO_CACHE:    4296857
L1D PQ	ACCESS:      29196	FORWARD:          0	MERGED:          0	TO_CACHE:      29196

L1D UNIQUE REGIONS ACCESSED: 0
L1D REGIONS CONFLICTS: 0
L1D Cross Page Prefetch Requests: 0
L1D Same Page Prefetch Requests: 30520
L1D ROI Sum of L1D PQ occupancy: 1485722
L1D PREFETCHES PUSHED FROM L2C: 0
L1I TOTAL     ACCESS:    7958687  HIT:    6868930  MISS:    1089757  HIT %:    86.3073  MISS %:    13.6927   MPKI: 21.7951
L1I LOAD      ACCESS:    7958687  HIT:    6868930  MISS:    1089757  HIT %:    86.3073  MISS %:    13.6927   MPKI: 21.7951
L1I PREFETCH  REQUESTED:          0  ISSUED:          0  USEFUL:          0  USELESS:          0
L1I USEFUL LOAD PREFETCHES:          0 PREFETCH ISSUED TO LOWER LEVEL:          0  ACCURACY: -nan
L1I TIMELY PREFETCHES:          0 LATE PREFETCHES: 0 DROPPED PREFETCHES: 0
L1I PREFETCHES SAME FILL-ORIGIN LEVEL: 0 DIFFERENT FILL-ORIGIN LEVEL: 0
L1I AVERAGE MISS LATENCY: 14.2898 cycles
L1I RQ	ACCESS:   12030789	FORWARD:          0	MERGED:    3516128	TO_CACHE:    8514661

BTB TOTAL     ACCESS:     280550  HIT:     262606  MISS:      17944  HIT %:     93.604  MISS %:    6.39601   MPKI: 0.35888
BTB BRANCH_DIRECT_JUMP	ACCESS:      48856  HIT:      48796  MISS:         60
BTB BRANCH_INDIRECT	ACCESS:      10100  HIT:      10021  MISS:         79
BTB BRANCH_CONDITIONAL	ACCESS:     122188  HIT:     121715  MISS:        473
BTB BRANCH_DIRECT_CALL	ACCESS:      49700  HIT:      49036  MISS:        664
BTB BRANCH_INDIRECT_CALL	ACCESS:          3  HIT:          0  MISS:          3
BTB BRANCH_RETURN	ACCESS:      49703  HIT:      33038  MISS:      16665
BTB BRANCH_OTHER ACCESS:          0  HIT:          0  MISS:          0

L2C TOTAL     ACCESS:    7953266  HIT:    7615606  MISS:     337660  HIT %:    95.7544  MISS %:    4.24555   MPKI: 6.7532
L2C LOAD      ACCESS:    4768451  HIT:    4690297  MISS:      78154  HIT %:     98.361  MISS %:    1.63898   MPKI: 1.56308
L2C DATA LOAD MPKI: 1.53274
L2C INSTRUCTION LOAD MPKI: 0.03034
L2C RFO       ACCESS:     319082  HIT:     291913  MISS:      27169  HIT %:    91.4853  MISS %:    8.51474   MPKI: 0.54338
L2C PREFETCH  ACCESS:    2516007  HIT:    2287628  MISS:     228379  HIT %:     90.923  MISS %:    9.07704   MPKI: 4.56758
L2C DATA PREFETCH MPKI: 4.56758
L2C INSTRUCTION PREFETCH MPKI: 0
L2C WRITEBACK ACCESS:     345255  HIT:     345250  MISS:          5  HIT %:    99.9986  MISS %:  0.0014482   MPKI: 0.0001
L2C LOAD TRANSLATION ACCESS:       4471  HIT:        518  MISS:       3953  HIT %:    11.5858  MISS %:    88.4142   MPKI: 0.07906
L2C PREFETCH  REQUESTED:    2530734  ISSUED:    2496078  USEFUL:     221348  USELESS:       6969
L2C USEFUL LOAD PREFETCHES:     221348 PREFETCH ISSUED TO LOWER LEVEL:     228446  ACCURACY: 96.8929
L2C TIMELY PREFETCHES:     221348 LATE PREFETCHES: 67 DROPPED PREFETCHES: 0
L2C PREFETCHES SAME FILL-ORIGIN LEVEL: 210311 DIFFERENT FILL-ORIGIN LEVEL: 0
L2C AVERAGE MISS LATENCY: 301.502 cycles
L2C RQ	ACCESS:    5108009	FORWARD:          0	MERGED:          0	TO_CACHE:    5092004
L2C WQ	ACCESS:     345255	FORWARD:      16035	MERGED:          0	TO_CACHE:     345255
L2C PQ	ACCESS:    2522198	FORWARD:          0	MERGED:       3683	TO_CACHE:    2518485

L2C Instructions Evicting Data 1488
L2C Translations Evicting Data 3883
L2C Data Evicting Data 326708
L2C Instructions Evicting Instructions 20
L2C Translations Evicting Instructions 12
L2C Data Evicting Instructions 1637
L2C Instructions Evicting Translations 9
L2C Translations Evicting Translations 58
L2C Data Evicting Translations 3840
L2C Dense regions hint from L2: 0
PSCL5 TOTAL     ACCESS:       3058  HIT:       3058  MISS:          0  HIT %:        100  MISS %:          0   MPKI: 0
PSCL5 LOAD TRANSLATION ACCESS:       3058  HIT:       3058  MISS:          0  HIT %:        100  MISS %:          0   MPKI: 0
PSCL5 PREFETCH  REQUESTED:          0  ISSUED:          0  USEFUL:          0  USELESS:          0
PSCL5 USEFUL LOAD PREFETCHES:          0 PREFETCH ISSUED TO LOWER LEVEL:          0  ACCURACY: -nan
PSCL5 TIMELY PREFETCHES:          0 LATE PREFETCHES: 0 DROPPED PREFETCHES: 0
PSCL5 PREFETCHES SAME FILL-ORIGIN LEVEL: 0 DIFFERENT FILL-ORIGIN LEVEL: 0

PSCL4 TOTAL     ACCESS:       3058  HIT:       3058  MISS:          0  HIT %:        100  MISS %:          0   MPKI: 0
PSCL4 LOAD TRANSLATION ACCESS:       3058  HIT:       3058  MISS:          0  HIT %:        100  MISS %:          0   MPKI: 0
PSCL4 PREFETCH  REQUESTED:          0  ISSUED:          0  USEFUL:          0  USELESS:          0
PSCL4 USEFUL LOAD PREFETCHES:          0 PREFETCH ISSUED TO LOWER LEVEL:          0  ACCURACY: -nan
PSCL4 TIMELY PREFETCHES:          0 LATE PREFETCHES: 0 DROPPED PREFETCHES: 0
PSCL4 PREFETCHES SAME FILL-ORIGIN LEVEL: 0 DIFFERENT FILL-ORIGIN LEVEL: 0

PSCL3 TOTAL     ACCESS:       3058  HIT:       3053  MISS:          5  HIT %:    99.8365  MISS %:   0.163506   MPKI: 0.0001
PSCL3 LOAD TRANSLATION ACCESS:       3058  HIT:       3053  MISS:          5  HIT %:    99.8365  MISS %:   0.163506   MPKI: 0.0001
PSCL3 PREFETCH  REQUESTED:          0  ISSUED:          0  USEFUL:          0  USELESS:          0
PSCL3 USEFUL LOAD PREFETCHES:          0 PREFETCH ISSUED TO LOWER LEVEL:          0  ACCURACY: -nan
PSCL3 TIMELY PREFETCHES:          0 LATE PREFETCHES: 0 DROPPED PREFETCHES: 0
PSCL3 PREFETCHES SAME FILL-ORIGIN LEVEL: 0 DIFFERENT FILL-ORIGIN LEVEL: 0

PSCL2 TOTAL     ACCESS:       3058  HIT:       1588  MISS:       1470  HIT %:    51.9294  MISS %:    48.0706   MPKI: 0.0294
PSCL2 LOAD TRANSLATION ACCESS:       3058  HIT:       1588  MISS:       1470  HIT %:    51.9294  MISS %:    48.0706   MPKI: 0.0294
PSCL2 PREFETCH  REQUESTED:          0  ISSUED:          0  USEFUL:          0  USELESS:          0
PSCL2 USEFUL LOAD PREFETCHES:          0 PREFETCH ISSUED TO LOWER LEVEL:          0  ACCURACY: -nan
PSCL2 TIMELY PREFETCHES:          0 LATE PREFETCHES: 0 DROPPED PREFETCHES: 0
PSCL2 PREFETCHES SAME FILL-ORIGIN LEVEL: 0 DIFFERENT FILL-ORIGIN LEVEL: 0

LLC TOTAL     ACCESS:     372117  HIT:     195484  MISS:     176633  HIT %:    52.5329  MISS %:    47.4671   MPKI: 3.53266
LLC LOAD      ACCESS:      78085  HIT:      45182  MISS:      32903  HIT %:    57.8626  MISS %:    42.1374   MPKI: 0.65806
LLC RFO       ACCESS:      27051  HIT:       2387  MISS:      24664  HIT %:    8.82407  MISS %:    91.1759   MPKI: 0.49328
LLC PREFETCH  ACCESS:     228446  HIT:     110053  MISS:     118393  HIT %:    48.1746  MISS %:    51.8254   MPKI: 2.36786
LLC WRITEBACK ACCESS:      34582  HIT:      34542  MISS:         40  HIT %:    99.8843  MISS %:   0.115667   MPKI: 0.0008
LLC LOAD TRANSLATION ACCESS:       3953  HIT:       3320  MISS:        633  HIT %:    83.9868  MISS %:    16.0132   MPKI: 0.01266
LLC PREFETCH  REQUESTED:          0  ISSUED:          0  USEFUL:      18221  USELESS:      90085
LLC USEFUL LOAD PREFETCHES:      18221 PREFETCH ISSUED TO LOWER LEVEL:     118393  ACCURACY: 15.3903
LLC TIMELY PREFETCHES:      18221 LATE PREFETCHES: 0 DROPPED PREFETCHES: 0
LLC PREFETCHES SAME FILL-ORIGIN LEVEL: 0 DIFFERENT FILL-ORIGIN LEVEL: 0
LLC AVERAGE MISS LATENCY: 517.437 cycles
LLC RQ	ACCESS:     109209	FORWARD:          0	MERGED:          0	TO_CACHE:     109089
LLC WQ	ACCESS:      34582	FORWARD:        120	MERGED:          0	TO_CACHE:      34582
LLC PQ	ACCESS:     228446	FORWARD:          0	MERGED:          0	TO_CACHE:     228446

LLC Dense regions hint to LLC: 0

RAW hits: 104642
Loads Generated: 18727117
Loads sent to L1D: 18622475
Stores Generated: 4319811
Stores sent to L1D: 4319809
Major fault: 0 Minor fault: 3837
Allocated PAGES: 3837

stream: 
stream:times selected: 36551
stream:pref_filled: 22552
stream:pref_useful: 2128
stream:pref_late: 2
stream:misses: 515
stream:misses_by_poll: 0

CS: 
CS:times selected: 18496
CS:pref_filled: 339
CS:pref_useful: 39
CS:pref_late: 3
CS:misses: 2488
CS:misses_by_poll: 0

CPLX: 
CPLX:times selected: 34657
CPLX:pref_filled: 553
CPLX:pref_useful: 150
CPLX:pref_late: 0
CPLX:misses: 146540
CPLX:misses_by_poll: 0

NL_L1: 
NL:times selected: 4
NL:pref_filled: 3
NL:pref_useful: 1
NL:pref_late: 0
NL:misses: 17
NL:misses_by_poll: 0

total selections: 89708
total_filled: 26120
total_useful: 2338
total_late: 5
total_polluted: 0
total_misses_after_warmup: 3789962
conflicts: 7003816
Degree Incremented Times: 0
Degree Decremented Times: 415016

L1 IP Table Write Accesses: 7404303
L1 IP Table Read Accesses: 400487
L1 RST Write Accesses: 34343
L1 RST Read Accesses: 68686
L1 CSPT Write Accesses: 34343
L1 CSPT Read Accesses: 68485
L1 RR Filter Tag Write Accesses: 29196
L1 RR Filter Tag Read Accesses: 2495969
L1 IP Table Tag Write Accesses: 14657052
L1 IP Table Tag Read Accesses: 14657052
L1 RST Tag Write Accesses: 0
L1 RST Tag Read Accesses: 293268
L1 RR Filter Write Accesses: 0
L1 RR Filter Read Accesses: 82931
test: 2385
L2 IP Table Read Accesses: 4832902
L2 IP Table Write Accesses: 5978075
L2 IP Table Tag Read Accesses: 3700939
L2 IP Table Tag Write Accesses: 3700939

DRAM Statistics
 CHANNEL 0
 RQ ROW_BUFFER_HIT:     102850  ROW_BUFFER_MISS:      73743
 DBUS_CONGESTED:     122391
 WQ ROW_BUFFER_HIT:      12993  ROW_BUFFER_MISS:      21500  FULL:          0

 AVG_CONGESTED_CYCLE: 34
 All warmup complete: 2
Channel 0 Bank busy for read cycles: 0
Channel 0 Bank busy for write cycles: 0
Channel 0
Rank 0
0banks busy for read cycles: 42950020
0banks busy for write cycles: 10172
1banks busy for read cycles: 4772533
1banks busy for write cycles: 1335686
2banks busy for read cycles: 1798530
2banks busy for write cycles: 449995
3banks busy for read cycles: 1392908
3banks busy for write cycles: 315859
4banks busy for read cycles: 880998
4banks busy for write cycles: 282850
5banks busy for read cycles: 656556
5banks busy for write cycles: 231721
6banks busy for read cycles: 488443
6banks busy for write cycles: 200455
7banks busy for read cycles: 237057
7banks busy for write cycles: 121326
8banks busy for read cycles: 5963
8banks busy for write cycles: 30653

CPU 0 Branch Prediction Accuracy: 99.2795% MPKI: 0.0593 Average ROB Occupancy at Mispredict: 16.3936
Branch types
NOT_BRANCH: 49588170 99.1763%
BRANCH_DIRECT_JUMP: 48856 0.097712%
BRANCH_INDIRECT: 10100 0.0202%
BRANCH_CONDITIONAL: 253148 0.506296%
BRANCH_DIRECT_CALL: 49700 0.0994%
BRANCH_INDIRECT_CALL: 3 6e-06%
BRANCH_RETURN: 49703 0.099406%
BRANCH_OTHER: 0 0%

@sumon_overall_L1D      2338         4     23734     26120     58392     58392
@Sumon_Early_by_class_L1D      1972        19        60         0
@Sumon_Late_by_class_L1D         0         3         0         0

@Sumon_Early_by_cycle_L1D        21        17        16        10         6        22         7        35       141      2022        23        18
@Sumon_Late_by_cycle_L1D         1         2         0         0         0         0         0         0         0         0         0         0
@Sumon_Early_stream_L1D        17        13        13         6         5        16         6        29       118      1725        16         8
@Sumon_Early_CS_L1D         1         1         3         2         1         2         0         0         0         9         0         0
@Sumon_Early_CPLX_L1D         2         2         0         2         0         3         0         2         4        29         6        10
@Sumon_Late_stream_L1D         0         0         0         0         0         0         0         0         0         0         0         0
@Sumon_Late_CS_L1D         1         2         0         0         0         0         0         0         0         0         0         0
@Sumon_Late_CPLX_L1D         0         0         0         0         0         0         0         0         0         0         0         0
@sumon_overall_L2C    221348        67      6969    228379   2496078   2530734
@Sumon_Early_by_class_L2C     14549        19        18         0
@Sumon_Late_by_class_L2C         0         0         0         0

@Sumon_Early_by_cycle_L2C        48         1         3         3         3         5       399       762      8944    201991      8948       241
@Sumon_Late_by_cycle_L2C        65         2         0         0         0         0         0         0         0         0         0         0
@Sumon_Early_stream_L2C         0         0         0         0         0         0         0        21       640     13839        47         2
@Sumon_Early_CS_L2C         0         0         0         0         0         0         0         2         0        17         0         0
@Sumon_Early_CPLX_L2C         0         0         0         0         0         0         0         0         0         6         2        10
@Sumon_Late_stream_L2C         0         0         0         0         0         0         0         0         0         0         0         0
@Sumon_Late_CS_L2C         0         0         0         0         0         0         0         0         0         0         0         0
@Sumon_Late_CPLX_L2C         0         0         0         0         0         0         0         0         0         0         0         0
DRAM PAGES: 1048576
Allocated PAGES: 3837
