
*** ChampSim Multicore Out-of-Order Simulator ***

Warmup Instructions: 10000000
Simulation Instructions: 50000000
Number of CPUs: 1
LLC sets: 2048
LLC ways: 16
Off-chip DRAM Size: 4096 MB Channels: 1 Width: 64-bit Data Rate: 800 MT/s
CPU 0 runs traces/SPEC2017/654.roms_s-1007B.champsimtrace.xz
.xz
CPU 0 Bimodal branch predictor
BTB has LRU replacement policy
ITLB has LRU replacement policy
DTLB has LRU replacement policy
STLB has LRU replacement policy
L1I has LRU replacement policy
IP Table Entries: 256
L1D has LRU replacement policy
IP_Table L2 entries: 256
L2C has LRU replacement policy
LLC has LRU replacement policy
Heartbeat CPU 0 instructions: 10000000 cycles: 3015935 heartbeat IPC: 3.31572 cumulative IPC: 3.31572 (Simulation time: 0 hr 21 min 50 sec) 

Warmup complete CPU 0 instructions: 10000004 cycles: 3015936 (Simulation time: 0 hr 21 min 50 sec) 

Heartbeat CPU 0 instructions: 20000001 cycles: 22511879 heartbeat IPC: 0.512927 cumulative IPC: 0.512927 (Simulation time: 0 hr 42 min 21 sec) 
Heartbeat CPU 0 instructions: 30000000 cycles: 42023621 heartbeat IPC: 0.512512 cumulative IPC: 0.512719 (Simulation time: 1 hr 2 min 24 sec) 
Heartbeat CPU 0 instructions: 40000000 cycles: 61532001 heartbeat IPC: 0.5126 cumulative IPC: 0.51268 (Simulation time: 1 hr 22 min 41 sec) 
Heartbeat CPU 0 instructions: 50000000 cycles: 82928371 heartbeat IPC: 0.467369 cumulative IPC: 0.500548 (Simulation time: 1 hr 53 min 11 sec) 
Heartbeat CPU 0 instructions: 60000002 cycles: 105688547 heartbeat IPC: 0.439364 cumulative IPC: 0.486985 (Simulation time: 2 hr 12 min 14 sec) 
Finished CPU 0 instructions: 50000000 cycles: 102672623 cumulative IPC: 0.486985 (Simulation time: 2 hr 12 min 14 sec) 

ChampSim completed all CPUs

Region of Interest Statistics

CPU 0 cumulative IPC: 0.486985 instructions: 50000000 cycles: 102672623
ITLB TOTAL     ACCESS:    8381410  HIT:    8381404  MISS:          6  HIT %:    99.9999  MISS %: 7.1587e-05   MPKI: 0.00012
ITLB LOAD TRANSLATION ACCESS:    8381410  HIT:    8381404  MISS:          6  HIT %:    99.9999  MISS %: 7.1587e-05   MPKI: 0.00012
ITLB PREFETCH  REQUESTED:          0  ISSUED:          0  USEFUL:          0  USELESS:          0
ITLB USEFUL LOAD PREFETCHES:          0 PREFETCH ISSUED TO LOWER LEVEL:          0  ACCURACY: -nan
ITLB TIMELY PREFETCHES:          0 LATE PREFETCHES: 0 DROPPED PREFETCHES: 0
ITLB PREFETCHES SAME FILL-ORIGIN LEVEL: 0 DIFFERENT FILL-ORIGIN LEVEL: 0
ITLB AVERAGE MISS LATENCY: 345.167 cycles
ITLB RQ	ACCESS:   10685295	FORWARD:          0	MERGED:    2303885	TO_CACHE:    8381410

DTLB TOTAL     ACCESS:   14081106  HIT:   14069642  MISS:      11464  HIT %:    99.9186  MISS %:  0.0814141   MPKI: 0.22928
DTLB LOAD TRANSLATION ACCESS:   14081106  HIT:   14069642  MISS:      11464  HIT %:    99.9186  MISS %:  0.0814141   MPKI: 0.22928
DTLB PREFETCH  REQUESTED:          0  ISSUED:          0  USEFUL:          0  USELESS:          0
DTLB USEFUL LOAD PREFETCHES:          0 PREFETCH ISSUED TO LOWER LEVEL:          0  ACCURACY: -nan
DTLB TIMELY PREFETCHES:          0 LATE PREFETCHES: 0 DROPPED PREFETCHES: 0
DTLB PREFETCHES SAME FILL-ORIGIN LEVEL: 0 DIFFERENT FILL-ORIGIN LEVEL: 0
DTLB AVERAGE MISS LATENCY: 498.965 cycles
DTLB RQ	ACCESS:   15821026	FORWARD:          0	MERGED:    1716147	TO_CACHE:   14104879

STLB TOTAL     ACCESS:     425236  HIT:     414324  MISS:      10912  HIT %:    97.4339  MISS %:     2.5661   MPKI: 0.21824
STLB LOAD TRANSLATION ACCESS:      11470  HIT:        558  MISS:      10912  HIT %:    4.86486  MISS %:    95.1351   MPKI: 0.21824
STLB TRANSLATION FROM L1D PREFETCHER ACCESS:     413766  HIT:     413766  MISS:          0  HIT %:        100  MISS %:          0   MPKI: 0
STLB PREFETCH  REQUESTED:          0  ISSUED:          0  USEFUL:          0  USELESS:          0
STLB USEFUL LOAD PREFETCHES:          0 PREFETCH ISSUED TO LOWER LEVEL:          0  ACCURACY: -nan
STLB TIMELY PREFETCHES:          0 LATE PREFETCHES: 0 DROPPED PREFETCHES: 0
STLB PREFETCHES SAME FILL-ORIGIN LEVEL: 0 DIFFERENT FILL-ORIGIN LEVEL: 0
STLB AVERAGE MISS LATENCY: 514.592 cycles
STLB RQ	ACCESS:    1924820	FORWARD:          0	MERGED:    1499584	TO_CACHE:     425236

STLB Hit, L1D data hit: 0
STLB Hit, L2C data hit: 0
STLB Hit, LLC data hit: 0
STLB Hit, LLC data miss: 0
STLB STLB hints to L2: 0
L1D TOTAL     ACCESS:   16661739  HIT:   16195940  MISS:     465799  HIT %:    97.2044  MISS %:    2.79562   MPKI: 9.31598
L1D LOAD      ACCESS:    9866476  HIT:    9814451  MISS:      52025  HIT %:    99.4727  MISS %:   0.527291   MPKI: 1.0405
L1D RFO       ACCESS:    4901885  HIT:    4748165  MISS:     153720  HIT %:    96.8641  MISS %:    3.13594   MPKI: 3.0744
L1D PREFETCH  ACCESS:    1893378  HIT:    1633324  MISS:     260054  HIT %:    86.2651  MISS %:    13.7349   MPKI: 5.20108
L1D PREFETCH  REQUESTED:    4056356  ISSUED:    3833653  USEFUL:     217582  USELESS:      42471
L1D USEFUL LOAD PREFETCHES:     217582 PREFETCH ISSUED TO LOWER LEVEL:     444911  ACCURACY: 48.9046
L1D TIMELY PREFETCHES:     217582 LATE PREFETCHES: 146518 DROPPED PREFETCHES: 0
L1D PREFETCHES SAME FILL-ORIGIN LEVEL: 444911 DIFFERENT FILL-ORIGIN LEVEL: 0
L1D AVERAGE MISS LATENCY: 761.867 cycles
L1D RQ	ACCESS:   12547559	FORWARD:          0	MERGED:    2511165	TO_CACHE:   10029418
L1D WQ	ACCESS:    6118340	FORWARD:       6976	MERGED:     326732	TO_CACHE:    5791608
L1D PQ	ACCESS:    1920303	FORWARD:          0	MERGED:       6953	TO_CACHE:    1913350

L1D UNIQUE REGIONS ACCESSED: 0
L1D REGIONS CONFLICTS: 0
L1D Cross Page Prefetch Requests: 0
L1D Same Page Prefetch Requests: 2339657
L1D ROI Sum of L1D PQ occupancy: 197610106
L1D PREFETCHES PUSHED FROM L2C: 0
L1I TOTAL     ACCESS:   10685273  HIT:   10685210  MISS:         63  HIT %:    99.9994  MISS %: 0.000589597   MPKI: 0.00126
L1I LOAD      ACCESS:   10685273  HIT:   10685210  MISS:         63  HIT %:    99.9994  MISS %: 0.000589597   MPKI: 0.00126
L1I PREFETCH  REQUESTED:          0  ISSUED:          0  USEFUL:          0  USELESS:          0
L1I USEFUL LOAD PREFETCHES:          0 PREFETCH ISSUED TO LOWER LEVEL:          0  ACCURACY: -nan
L1I TIMELY PREFETCHES:          0 LATE PREFETCHES: 0 DROPPED PREFETCHES: 0
L1I PREFETCHES SAME FILL-ORIGIN LEVEL: 0 DIFFERENT FILL-ORIGIN LEVEL: 0
L1I AVERAGE MISS LATENCY: 327.19 cycles
L1I RQ	ACCESS:   13973337	FORWARD:          0	MERGED:    3288042	TO_CACHE:   10685295

BTB TOTAL     ACCESS:    3139531  HIT:    2812744  MISS:     326787  HIT %:    89.5912  MISS %:    10.4088   MPKI: 6.53574
BTB BRANCH_DIRECT_JUMP	ACCESS:     326747  HIT:     326739  MISS:          8
BTB BRANCH_INDIRECT	ACCESS:          0  HIT:          0  MISS:          0
BTB BRANCH_CONDITIONAL	ACCESS:    1505847  HIT:    1505816  MISS:         31
BTB BRANCH_DIRECT_CALL	ACCESS:     653469  HIT:     653459  MISS:         10
BTB BRANCH_INDIRECT_CALL	ACCESS:          0  HIT:          0  MISS:          0
BTB BRANCH_RETURN	ACCESS:     653468  HIT:     326730  MISS:     326738
BTB BRANCH_OTHER ACCESS:          0  HIT:          0  MISS:          0

L2C TOTAL     ACCESS:    1165567  HIT:     685481  MISS:     480086  HIT %:    58.8109  MISS %:    41.1891   MPKI: 9.60172
L2C LOAD      ACCESS:      52088  HIT:      34771  MISS:      17317  HIT %:    66.7543  MISS %:    33.2457   MPKI: 0.34634
L2C DATA LOAD MPKI: 0.34508
L2C INSTRUCTION LOAD MPKI: 0.00126
L2C RFO       ACCESS:     153720  HIT:         14  MISS:     153706  HIT %: 0.00910747  MISS %:    99.9909   MPKI: 3.07412
L2C PREFETCH  ACCESS:     795043  HIT:     488551  MISS:     306492  HIT %:    61.4496  MISS %:    38.5504   MPKI: 6.12984
L2C DATA PREFETCH MPKI: 6.12984
L2C INSTRUCTION PREFETCH MPKI: 0
L2C WRITEBACK ACCESS:     153795  HIT:     153583  MISS:        212  HIT %:    99.8622  MISS %:   0.137846   MPKI: 0.00424
L2C LOAD TRANSLATION ACCESS:      10921  HIT:       8562  MISS:       2359  HIT %:    78.3994  MISS %:    21.6006   MPKI: 0.04718
L2C PREFETCH  REQUESTED:    1019895  ISSUED:     970389  USEFUL:      34667  USELESS:     271420
L2C USEFUL LOAD PREFETCHES:      34667 PREFETCH ISSUED TO LOWER LEVEL:     313984  ACCURACY: 11.041
L2C TIMELY PREFETCHES:      34667 LATE PREFETCHES: 7492 DROPPED PREFETCHES: 0
L2C PREFETCHES SAME FILL-ORIGIN LEVEL: 272563 DIFFERENT FILL-ORIGIN LEVEL: 0
L2C AVERAGE MISS LATENCY: 1293.98 cycles
L2C RQ	ACCESS:     216729	FORWARD:          0	MERGED:          0	TO_CACHE:     216729
L2C WQ	ACCESS:     153795	FORWARD:          0	MERGED:          0	TO_CACHE:     153795
L2C PQ	ACCESS:    1230443	FORWARD:          0	MERGED:     137856	TO_CACHE:    1092587

L2C Instructions Evicting Data 61
L2C Translations Evicting Data 2354
L2C Data Evicting Data 474695
L2C Instructions Evicting Instructions 0
L2C Translations Evicting Instructions 0
L2C Data Evicting Instructions 47
L2C Instructions Evicting Translations 2
L2C Translations Evicting Translations 3
L2C Data Evicting Translations 2340
L2C Dense regions hint from L2: 0
PSCL5 TOTAL     ACCESS:      10912  HIT:      10912  MISS:          0  HIT %:        100  MISS %:          0   MPKI: 0
PSCL5 LOAD TRANSLATION ACCESS:      10912  HIT:      10912  MISS:          0  HIT %:        100  MISS %:          0   MPKI: 0
PSCL5 PREFETCH  REQUESTED:          0  ISSUED:          0  USEFUL:          0  USELESS:          0
PSCL5 USEFUL LOAD PREFETCHES:          0 PREFETCH ISSUED TO LOWER LEVEL:          0  ACCURACY: -nan
PSCL5 TIMELY PREFETCHES:          0 LATE PREFETCHES: 0 DROPPED PREFETCHES: 0
PSCL5 PREFETCHES SAME FILL-ORIGIN LEVEL: 0 DIFFERENT FILL-ORIGIN LEVEL: 0

PSCL4 TOTAL     ACCESS:      10912  HIT:      10912  MISS:          0  HIT %:        100  MISS %:          0   MPKI: 0
PSCL4 LOAD TRANSLATION ACCESS:      10912  HIT:      10912  MISS:          0  HIT %:        100  MISS %:          0   MPKI: 0
PSCL4 PREFETCH  REQUESTED:          0  ISSUED:          0  USEFUL:          0  USELESS:          0
PSCL4 USEFUL LOAD PREFETCHES:          0 PREFETCH ISSUED TO LOWER LEVEL:          0  ACCURACY: -nan
PSCL4 TIMELY PREFETCHES:          0 LATE PREFETCHES: 0 DROPPED PREFETCHES: 0
PSCL4 PREFETCHES SAME FILL-ORIGIN LEVEL: 0 DIFFERENT FILL-ORIGIN LEVEL: 0

PSCL3 TOTAL     ACCESS:      10912  HIT:      10909  MISS:          3  HIT %:    99.9725  MISS %:  0.0274927   MPKI: 6e-05
PSCL3 LOAD TRANSLATION ACCESS:      10912  HIT:      10909  MISS:          3  HIT %:    99.9725  MISS %:  0.0274927   MPKI: 6e-05
PSCL3 PREFETCH  REQUESTED:          0  ISSUED:          0  USEFUL:          0  USELESS:          0
PSCL3 USEFUL LOAD PREFETCHES:          0 PREFETCH ISSUED TO LOWER LEVEL:          0  ACCURACY: -nan
PSCL3 TIMELY PREFETCHES:          0 LATE PREFETCHES: 0 DROPPED PREFETCHES: 0
PSCL3 PREFETCHES SAME FILL-ORIGIN LEVEL: 0 DIFFERENT FILL-ORIGIN LEVEL: 0

PSCL2 TOTAL     ACCESS:      10912  HIT:      10861  MISS:         51  HIT %:    99.5326  MISS %:   0.467375   MPKI: 0.00102
PSCL2 LOAD TRANSLATION ACCESS:      10912  HIT:      10861  MISS:         51  HIT %:    99.5326  MISS %:   0.467375   MPKI: 0.00102
PSCL2 PREFETCH  REQUESTED:          0  ISSUED:          0  USEFUL:          0  USELESS:          0
PSCL2 USEFUL LOAD PREFETCHES:          0 PREFETCH ISSUED TO LOWER LEVEL:          0  ACCURACY: -nan
PSCL2 TIMELY PREFETCHES:          0 LATE PREFETCHES: 0 DROPPED PREFETCHES: 0
PSCL2 PREFETCHES SAME FILL-ORIGIN LEVEL: 0 DIFFERENT FILL-ORIGIN LEVEL: 0

LLC TOTAL     ACCESS:     633865  HIT:     153844  MISS:     480021  HIT %:    24.2708  MISS %:    75.7292   MPKI: 9.60042
LLC LOAD      ACCESS:       9825  HIT:          1  MISS:       9824  HIT %:  0.0101781  MISS %:    99.9898   MPKI: 0.19648
LLC RFO       ACCESS:     153706  HIT:          0  MISS:     153706  HIT %:          0  MISS %:        100   MPKI: 3.07412
LLC PREFETCH  ACCESS:     313984  HIT:         56  MISS:     313928  HIT %:  0.0178353  MISS %:    99.9822   MPKI: 6.27856
LLC WRITEBACK ACCESS:     153991  HIT:     153780  MISS:        211  HIT %:     99.863  MISS %:   0.137021   MPKI: 0.00422
LLC LOAD TRANSLATION ACCESS:       2359  HIT:          7  MISS:       2352  HIT %:   0.296736  MISS %:    99.7033   MPKI: 0.04704
LLC PREFETCH  REQUESTED:          0  ISSUED:          0  USEFUL:          0  USELESS:     301685
LLC USEFUL LOAD PREFETCHES:          0 PREFETCH ISSUED TO LOWER LEVEL:     313928  ACCURACY: 0
LLC TIMELY PREFETCHES:          0 LATE PREFETCHES: 0 DROPPED PREFETCHES: 0
LLC PREFETCHES SAME FILL-ORIGIN LEVEL: 0 DIFFERENT FILL-ORIGIN LEVEL: 0
LLC AVERAGE MISS LATENCY: 1285.52 cycles
LLC RQ	ACCESS:     165890	FORWARD:          0	MERGED:          0	TO_CACHE:     165890
LLC WQ	ACCESS:     153992	FORWARD:          0	MERGED:          0	TO_CACHE:     153992
LLC PQ	ACCESS:     313984	FORWARD:          0	MERGED:          0	TO_CACHE:     313984

LLC Dense regions hint to LLC: 0

RAW hits: 1335413
Loads Generated: 13882972
Loads sent to L1D: 12547559
Stores Generated: 6118341
Stores sent to L1D: 6118340
Major fault: 0 Minor fault: 10479
Allocated PAGES: 10479

stream: 
stream:times selected: 1776060
stream:pref_filled: 263134
stream:pref_useful: 220296
stream:pref_late: 36176
stream:misses: 55
stream:misses_by_poll: 0

CS: 
CS:times selected: 404638
CS:pref_filled: 5207
CS:pref_useful: 5019
CS:pref_late: 122
CS:misses: 212586
CS:misses_by_poll: 20

CPLX: 
CPLX:times selected: 1371356
CPLX:pref_filled: 91
CPLX:pref_useful: 23
CPLX:pref_late: 3
CPLX:misses: 2431
CPLX:misses_by_poll: 0

NL_L1: 
NL:times selected: 5
NL:pref_filled: 4
NL:pref_useful: 3
NL:pref_late: 0
NL:misses: 1
NL:misses_by_poll: 0

total selections: 3552059
total_filled: 260054
total_useful: 217582
total_late: 36301
total_polluted: 20
total_misses_after_warmup: 214968
conflicts: 794
Degree Incremented Times: 94705
Degree Decremented Times: 0

L1 IP Table Write Accesses: 10028063
L1 IP Table Read Accesses: 10027269
L1 RST Write Accesses: 1519260
L1 RST Read Accesses: 3038520
L1 CSPT Write Accesses: 1519260
L1 CSPT Read Accesses: 4420865
L1 RR Filter Tag Write Accesses: 2143006
L1 RR Filter Tag Read Accesses: 266168880
L1 IP Table Tag Write Accesses: 10029419
L1 IP Table Tag Read Accesses: 10029419
L1 RST Tag Write Accesses: 0
L1 RST Tag Read Accesses: 15938172
L1 RR Filter Write Accesses: 0
L1 RR Filter Read Accesses: 12731643
test: 721004
L2 IP Table Read Accesses: 366512
L2 IP Table Write Accesses: 314622
L2 IP Table Tag Read Accesses: 183292
L2 IP Table Tag Write Accesses: 183292

DRAM Statistics
 CHANNEL 0
 RQ ROW_BUFFER_HIT:     264986  ROW_BUFFER_MISS:     214824
 DBUS_CONGESTED:     556245
 WQ ROW_BUFFER_HIT:      15406  ROW_BUFFER_MISS:     133179  FULL:          0

 AVG_CONGESTED_CYCLE: 38
 All warmup complete: 2
Channel 0 Bank busy for read cycles: 0
Channel 0 Bank busy for write cycles: 0
Channel 0
Rank 0
0banks busy for read cycles: 70439660
0banks busy for write cycles: 9757
1banks busy for read cycles: 4015615
1banks busy for write cycles: 1475496
2banks busy for read cycles: 229713
2banks busy for write cycles: 63838
3banks busy for read cycles: 270525
3banks busy for write cycles: 45852
4banks busy for read cycles: 356476
4banks busy for write cycles: 44255
5banks busy for read cycles: 470503
5banks busy for write cycles: 39774
6banks busy for read cycles: 688989
6banks busy for write cycles: 41801
7banks busy for read cycles: 1848472
7banks busy for write cycles: 208512
8banks busy for read cycles: 15509935
8banks busy for write cycles: 6913451

CPU 0 Branch Prediction Accuracy: 99.9659% MPKI: 0.03484 Average ROB Occupancy at Mispredict: 106.028
Branch types
NOT_BRANCH: 44898664 89.7973%
BRANCH_DIRECT_JUMP: 326747 0.653494%
BRANCH_INDIRECT: 0 0%
BRANCH_CONDITIONAL: 3467349 6.9347%
BRANCH_DIRECT_CALL: 653469 1.30694%
BRANCH_INDIRECT_CALL: 0 0%
BRANCH_RETURN: 653468 1.30694%
BRANCH_OTHER: 0 0%

@sumon_overall_L1D    217582    146518     42471    260054   3833653   4056356
@Sumon_Early_by_class_L1D    213305      4257        20         0
@Sumon_Late_by_class_L1D     36175       121         3         0

@Sumon_Early_by_cycle_L1D     17883     15693     22067     16097     14357     76469     32354      3098      3489     16074         0         1
@Sumon_Late_by_cycle_L1D     11831      5340      5653      4261      2700      5458       997        59         0         0         0         0
@Sumon_Early_stream_L1D     17703     15484     21840     15897     13665     76056     32223      3073      1289     16074         0         1
@Sumon_Early_CS_L1D       171       205       227       200       692       410       131        25      2196         0         0         0
@Sumon_Early_CPLX_L1D         9         4         0         0         0         3         0         0         4         0         0         0
@Sumon_Late_stream_L1D     11776      5320      5638      4248      2691      5449       994        59         0         0         0         0
@Sumon_Late_CS_L1D        54        18        15        13         9         9         3         0         0         0         0         0
@Sumon_Late_CPLX_L1D         1         2         0         0         0         0         0         0         0         0         0         0
@sumon_overall_L2C     34667      7492    271420    306492    970389   1019895
@Sumon_Early_by_class_L2C     34600        56         0         0
@Sumon_Late_by_class_L2C      7447        27         0         0

@Sumon_Early_by_cycle_L2C       820      1463      2119      1357      1499     12752     13040      1497        26        91         1         2
@Sumon_Late_by_cycle_L2C       856      1250      1165      1057       785      2141       238         0         0         0         0         0
@Sumon_Early_stream_L2C       813      1453      2113      1350      1491     12736     13039      1495        20        88         1         1
@Sumon_Early_CS_L2C         6         8         6         7         6        13         0         1         6         3         0         0
@Sumon_Early_CPLX_L2C         0         0         0         0         0         0         0         0         0         0         0         0
@Sumon_Late_stream_L2C       837      1243      1163      1052       784      2131       237         0         0         0         0         0
@Sumon_Late_CS_L2C         1         7         2         5         1        10         1         0         0         0         0         0
@Sumon_Late_CPLX_L2C         0         0         0         0         0         0         0         0         0         0         0         0
DRAM PAGES: 1048576
Allocated PAGES: 10479
