
*** ChampSim Multicore Out-of-Order Simulator ***

Warmup Instructions: 10000000
Simulation Instructions: 50000000
Number of CPUs: 1
LLC sets: 2048
LLC ways: 16
Off-chip DRAM Size: 4096 MB Channels: 1 Width: 64-bit Data Rate: 800 MT/s
CPU 0 runs traces/SPEC2017/654.roms_s-1070B.champsimtrace.xz
.xz
CPU 0 Bimodal branch predictor
BTB has LRU replacement policy
ITLB has LRU replacement policy
DTLB has LRU replacement policy
STLB has LRU replacement policy
L1I has LRU replacement policy
IP Table Entries: 256
L1D has LRU replacement policy
IP_Table L2 entries: 256
L2C has LRU replacement policy
LLC has LRU replacement policy
Heartbeat CPU 0 instructions: 10000002 cycles: 3109879 heartbeat IPC: 3.21556 cumulative IPC: 3.21556 (Simulation time: 0 hr 24 min 21 sec) 

Warmup complete CPU 0 instructions: 10000002 cycles: 3109879 (Simulation time: 0 hr 24 min 21 sec) 

Heartbeat CPU 0 instructions: 20000000 cycles: 15064074 heartbeat IPC: 0.836526 cumulative IPC: 0.836526 (Simulation time: 0 hr 48 min 29 sec) 
Heartbeat CPU 0 instructions: 30000003 cycles: 30179327 heartbeat IPC: 0.661584 cumulative IPC: 0.73884 (Simulation time: 1 hr 16 min 12 sec) 
Heartbeat CPU 0 instructions: 40000003 cycles: 46557422 heartbeat IPC: 0.610572 cumulative IPC: 0.690488 (Simulation time: 1 hr 48 min 1 sec) 
Heartbeat CPU 0 instructions: 50000000 cycles: 56242695 heartbeat IPC: 1.0325 cumulative IPC: 0.75283 (Simulation time: 2 hr 4 min 23 sec) 
Heartbeat CPU 0 instructions: 60000000 cycles: 76804005 heartbeat IPC: 0.48635 cumulative IPC: 0.67848 (Simulation time: 2 hr 22 min 55 sec) 
Finished CPU 0 instructions: 50000002 cycles: 73694128 cumulative IPC: 0.67848 (Simulation time: 2 hr 22 min 55 sec) 

ChampSim completed all CPUs

Region of Interest Statistics

CPU 0 cumulative IPC: 0.67848 instructions: 50000002 cycles: 73694128
ITLB TOTAL     ACCESS:    7661364  HIT:    7661364  MISS:          0  HIT %:        100  MISS %:          0   MPKI: 0
ITLB LOAD TRANSLATION ACCESS:    7661364  HIT:    7661364  MISS:          0  HIT %:        100  MISS %:          0   MPKI: 0
ITLB PREFETCH  REQUESTED:          0  ISSUED:          0  USEFUL:          0  USELESS:          0
ITLB USEFUL LOAD PREFETCHES:          0 PREFETCH ISSUED TO LOWER LEVEL:          0  ACCURACY: -nan
ITLB TIMELY PREFETCHES:          0 LATE PREFETCHES: 0 DROPPED PREFETCHES: 0
ITLB PREFETCHES SAME FILL-ORIGIN LEVEL: 0 DIFFERENT FILL-ORIGIN LEVEL: 0
ITLB AVERAGE MISS LATENCY: -nan cycles
ITLB RQ	ACCESS:    8191157	FORWARD:          0	MERGED:     529794	TO_CACHE:    7661363

DTLB TOTAL     ACCESS:   13022484  HIT:   12998397  MISS:      24087  HIT %:     99.815  MISS %:   0.184965   MPKI: 0.48174
DTLB LOAD TRANSLATION ACCESS:   13022484  HIT:   12998397  MISS:      24087  HIT %:     99.815  MISS %:   0.184965   MPKI: 0.48174
DTLB PREFETCH  REQUESTED:          0  ISSUED:          0  USEFUL:          0  USELESS:          0
DTLB USEFUL LOAD PREFETCHES:          0 PREFETCH ISSUED TO LOWER LEVEL:          0  ACCURACY: -nan
DTLB TIMELY PREFETCHES:          0 LATE PREFETCHES: 0 DROPPED PREFETCHES: 0
DTLB PREFETCHES SAME FILL-ORIGIN LEVEL: 0 DIFFERENT FILL-ORIGIN LEVEL: 0
DTLB AVERAGE MISS LATENCY: 405.436 cycles
DTLB RQ	ACCESS:   14355030	FORWARD:          0	MERGED:    1298333	TO_CACHE:   13056697

STLB TOTAL     ACCESS:     738213  HIT:     714140  MISS:      24073  HIT %:     96.739  MISS %:    3.26098   MPKI: 0.48146
STLB LOAD TRANSLATION ACCESS:      24087  HIT:         14  MISS:      24073  HIT %:  0.0581226  MISS %:    99.9419   MPKI: 0.48146
STLB TRANSLATION FROM L1D PREFETCHER ACCESS:     714126  HIT:     714126  MISS:          0  HIT %:        100  MISS %:          0   MPKI: 0
STLB PREFETCH  REQUESTED:          0  ISSUED:          0  USEFUL:          0  USELESS:          0
STLB USEFUL LOAD PREFETCHES:          0 PREFETCH ISSUED TO LOWER LEVEL:          0  ACCURACY: -nan
STLB TIMELY PREFETCHES:          0 LATE PREFETCHES: 0 DROPPED PREFETCHES: 0
STLB PREFETCHES SAME FILL-ORIGIN LEVEL: 0 DIFFERENT FILL-ORIGIN LEVEL: 0
STLB AVERAGE MISS LATENCY: 393.524 cycles
STLB RQ	ACCESS:    2477512	FORWARD:          0	MERGED:    1739299	TO_CACHE:     738213

STLB Hit, L1D data hit: 0
STLB Hit, L2C data hit: 0
STLB Hit, LLC data hit: 0
STLB Hit, LLC data miss: 0
STLB STLB hints to L2: 0
L1D TOTAL     ACCESS:   14169891  HIT:   13046070  MISS:    1123821  HIT %:     92.069  MISS %:    7.93105   MPKI: 22.4764
L1D LOAD      ACCESS:   11331756  HIT:   11278986  MISS:      52770  HIT %:    99.5343  MISS %:   0.465682   MPKI: 1.0554
L1D RFO       ACCESS:     478215  HIT:     133831  MISS:     344384  HIT %:    27.9855  MISS %:    72.0145   MPKI: 6.88768
L1D PREFETCH  ACCESS:    2359920  HIT:    1633253  MISS:     726667  HIT %:     69.208  MISS %:     30.792   MPKI: 14.5333
L1D PREFETCH  REQUESTED:    5182512  ISSUED:    4908476  USEFUL:     663015  USELESS:      63654
L1D USEFUL LOAD PREFETCHES:     663015 PREFETCH ISSUED TO LOWER LEVEL:     819492  ACCURACY: 80.9056
L1D TIMELY PREFETCHES:     663015 LATE PREFETCHES: 252156 DROPPED PREFETCHES: 0
L1D PREFETCHES SAME FILL-ORIGIN LEVEL: 819492 DIFFERENT FILL-ORIGIN LEVEL: 0
L1D AVERAGE MISS LATENCY: 530.059 cycles
L1D RQ	ACCESS:   18807447	FORWARD:          0	MERGED:    7191143	TO_CACHE:   11616304
L1D WQ	ACCESS:    2738726	FORWARD:          0	MERGED:          0	TO_CACHE:    2738726
L1D PQ	ACCESS:    2455051	FORWARD:          0	MERGED:       1626	TO_CACHE:    2453425

L1D UNIQUE REGIONS ACCESSED: 0
L1D REGIONS CONFLICTS: 0
L1D Cross Page Prefetch Requests: 0
L1D Same Page Prefetch Requests: 2751475
L1D ROI Sum of L1D PQ occupancy: 188674100
L1D PREFETCHES PUSHED FROM L2C: 0
L1I TOTAL     ACCESS:    8191158  HIT:    8191158  MISS:          0  HIT %:        100  MISS %:          0   MPKI: 0
L1I LOAD      ACCESS:    8191158  HIT:    8191158  MISS:          0  HIT %:        100  MISS %:          0   MPKI: 0
L1I PREFETCH  REQUESTED:          0  ISSUED:          0  USEFUL:          0  USELESS:          0
L1I USEFUL LOAD PREFETCHES:          0 PREFETCH ISSUED TO LOWER LEVEL:          0  ACCURACY: -nan
L1I TIMELY PREFETCHES:          0 LATE PREFETCHES: 0 DROPPED PREFETCHES: 0
L1I PREFETCHES SAME FILL-ORIGIN LEVEL: 0 DIFFERENT FILL-ORIGIN LEVEL: 0
L1I AVERAGE MISS LATENCY: -nan cycles
L1I RQ	ACCESS:   13251754	FORWARD:          0	MERGED:    5060597	TO_CACHE:    8191157

BTB TOTAL     ACCESS:    2779529  HIT:    2779520  MISS:          9  HIT %:    99.9997  MISS %: 0.000323796   MPKI: 0.00018
BTB BRANCH_DIRECT_JUMP	ACCESS:          0  HIT:          0  MISS:          0
BTB BRANCH_INDIRECT	ACCESS:          0  HIT:          0  MISS:          0
BTB BRANCH_CONDITIONAL	ACCESS:    2779529  HIT:    2779520  MISS:          9
BTB BRANCH_DIRECT_CALL	ACCESS:          0  HIT:          0  MISS:          0
BTB BRANCH_INDIRECT_CALL	ACCESS:          0  HIT:          0  MISS:          0
BTB BRANCH_RETURN	ACCESS:          0  HIT:          0  MISS:          0
BTB BRANCH_OTHER ACCESS:          0  HIT:          0  MISS:          0

L2C TOTAL     ACCESS:    3337176  HIT:    2181715  MISS:    1155461  HIT %:    65.3761  MISS %:    34.6239   MPKI: 23.1092
L2C LOAD      ACCESS:      52770  HIT:      19961  MISS:      32809  HIT %:    37.8264  MISS %:    62.1736   MPKI: 0.65618
L2C DATA LOAD MPKI: 0.65618
L2C INSTRUCTION LOAD MPKI: 0
L2C RFO       ACCESS:     344384  HIT:          0  MISS:     344384  HIT %:          0  MISS %:        100   MPKI: 6.88768
L2C PREFETCH  ACCESS:    2571406  HIT:    1798068  MISS:     773338  HIT %:    69.9255  MISS %:    30.0745   MPKI: 15.4668
L2C DATA PREFETCH MPKI: 15.4668
L2C INSTRUCTION PREFETCH MPKI: 0
L2C WRITEBACK ACCESS:     344519  HIT:     344493  MISS:         26  HIT %:    99.9925  MISS %: 0.00754675   MPKI: 0.00052
L2C LOAD TRANSLATION ACCESS:      24097  HIT:      19193  MISS:       4904  HIT %:    79.6489  MISS %:    20.3511   MPKI: 0.09808
L2C PREFETCH  REQUESTED:    3084736  ISSUED:    2962418  USEFUL:      19444  USELESS:     753837
L2C USEFUL LOAD PREFETCHES:      19444 PREFETCH ISSUED TO LOWER LEVEL:     785156  ACCURACY: 2.47645
L2C TIMELY PREFETCHES:      19444 LATE PREFETCHES: 11818 DROPPED PREFETCHES: 0
L2C PREFETCHES SAME FILL-ORIGIN LEVEL: 682400 DIFFERENT FILL-ORIGIN LEVEL: 0
L2C AVERAGE MISS LATENCY: 967.756 cycles
L2C RQ	ACCESS:     421253	FORWARD:          0	MERGED:          0	TO_CACHE:     421253
L2C WQ	ACCESS:     344519	FORWARD:          0	MERGED:          0	TO_CACHE:     344519
L2C PQ	ACCESS:    3689085	FORWARD:          0	MERGED:     280124	TO_CACHE:    3408961

L2C Instructions Evicting Data 0
L2C Translations Evicting Data 4859
L2C Data Evicting Data 1145669
L2C Instructions Evicting Instructions 0
L2C Translations Evicting Instructions 0
L2C Data Evicting Instructions 0
L2C Instructions Evicting Translations 0
L2C Translations Evicting Translations 45
L2C Data Evicting Translations 4862
L2C Dense regions hint from L2: 0
PSCL5 TOTAL     ACCESS:      24073  HIT:      24073  MISS:          0  HIT %:        100  MISS %:          0   MPKI: 0
PSCL5 LOAD TRANSLATION ACCESS:      24073  HIT:      24073  MISS:          0  HIT %:        100  MISS %:          0   MPKI: 0
PSCL5 PREFETCH  REQUESTED:          0  ISSUED:          0  USEFUL:          0  USELESS:          0
PSCL5 USEFUL LOAD PREFETCHES:          0 PREFETCH ISSUED TO LOWER LEVEL:          0  ACCURACY: -nan
PSCL5 TIMELY PREFETCHES:          0 LATE PREFETCHES: 0 DROPPED PREFETCHES: 0
PSCL5 PREFETCHES SAME FILL-ORIGIN LEVEL: 0 DIFFERENT FILL-ORIGIN LEVEL: 0

PSCL4 TOTAL     ACCESS:      24073  HIT:      24073  MISS:          0  HIT %:        100  MISS %:          0   MPKI: 0
PSCL4 LOAD TRANSLATION ACCESS:      24073  HIT:      24073  MISS:          0  HIT %:        100  MISS %:          0   MPKI: 0
PSCL4 PREFETCH  REQUESTED:          0  ISSUED:          0  USEFUL:          0  USELESS:          0
PSCL4 USEFUL LOAD PREFETCHES:          0 PREFETCH ISSUED TO LOWER LEVEL:          0  ACCURACY: -nan
PSCL4 TIMELY PREFETCHES:          0 LATE PREFETCHES: 0 DROPPED PREFETCHES: 0
PSCL4 PREFETCHES SAME FILL-ORIGIN LEVEL: 0 DIFFERENT FILL-ORIGIN LEVEL: 0

PSCL3 TOTAL     ACCESS:      24073  HIT:      24073  MISS:          0  HIT %:        100  MISS %:          0   MPKI: 0
PSCL3 LOAD TRANSLATION ACCESS:      24073  HIT:      24073  MISS:          0  HIT %:        100  MISS %:          0   MPKI: 0
PSCL3 PREFETCH  REQUESTED:          0  ISSUED:          0  USEFUL:          0  USELESS:          0
PSCL3 USEFUL LOAD PREFETCHES:          0 PREFETCH ISSUED TO LOWER LEVEL:          0  ACCURACY: -nan
PSCL3 TIMELY PREFETCHES:          0 LATE PREFETCHES: 0 DROPPED PREFETCHES: 0
PSCL3 PREFETCHES SAME FILL-ORIGIN LEVEL: 0 DIFFERENT FILL-ORIGIN LEVEL: 0

PSCL2 TOTAL     ACCESS:      24073  HIT:      24008  MISS:         65  HIT %:      99.73  MISS %:   0.270012   MPKI: 0.0013
PSCL2 LOAD TRANSLATION ACCESS:      24073  HIT:      24008  MISS:         65  HIT %:      99.73  MISS %:   0.270012   MPKI: 0.0013
PSCL2 PREFETCH  REQUESTED:          0  ISSUED:          0  USEFUL:          0  USELESS:          0
PSCL2 USEFUL LOAD PREFETCHES:          0 PREFETCH ISSUED TO LOWER LEVEL:          0  ACCURACY: -nan
PSCL2 TIMELY PREFETCHES:          0 LATE PREFETCHES: 0 DROPPED PREFETCHES: 0
PSCL2 PREFETCHES SAME FILL-ORIGIN LEVEL: 0 DIFFERENT FILL-ORIGIN LEVEL: 0

LLC TOTAL     ACCESS:    1499948  HIT:     344498  MISS:    1155450  HIT %:    22.9673  MISS %:    77.0327   MPKI: 23.109
LLC LOAD      ACCESS:      20991  HIT:          0  MISS:      20991  HIT %:          0  MISS %:        100   MPKI: 0.41982
LLC RFO       ACCESS:     344384  HIT:          0  MISS:     344384  HIT %:          0  MISS %:        100   MPKI: 6.88768
LLC PREFETCH  ACCESS:     785156  HIT:          0  MISS:     785156  HIT %:          0  MISS %:        100   MPKI: 15.7031
LLC WRITEBACK ACCESS:     344513  HIT:     344487  MISS:         26  HIT %:    99.9925  MISS %: 0.00754689   MPKI: 0.00052
LLC LOAD TRANSLATION ACCESS:       4904  HIT:         11  MISS:       4893  HIT %:   0.224307  MISS %:    99.7757   MPKI: 0.09786
LLC PREFETCH  REQUESTED:          0  ISSUED:          0  USEFUL:          0  USELESS:     785014
LLC USEFUL LOAD PREFETCHES:          0 PREFETCH ISSUED TO LOWER LEVEL:     785156  ACCURACY: 0
LLC TIMELY PREFETCHES:          0 LATE PREFETCHES: 0 DROPPED PREFETCHES: 0
LLC PREFETCHES SAME FILL-ORIGIN LEVEL: 0 DIFFERENT FILL-ORIGIN LEVEL: 0
LLC AVERAGE MISS LATENCY: 947.553 cycles
LLC RQ	ACCESS:     370281	FORWARD:          0	MERGED:          0	TO_CACHE:     370281
LLC WQ	ACCESS:     344513	FORWARD:          0	MERGED:          0	TO_CACHE:     344513
LLC PQ	ACCESS:     785156	FORWARD:          0	MERGED:          0	TO_CACHE:     785156

LLC Dense regions hint to LLC: 0

RAW hits: 2
Loads Generated: 18807450
Loads sent to L1D: 18807447
Stores Generated: 2738725
Stores sent to L1D: 2738726
Major fault: 0 Minor fault: 15227
Allocated PAGES: 15227

stream: 
stream:times selected: 1818747
stream:pref_filled: 879055
stream:pref_useful: 808526
stream:pref_late: 46535
stream:misses: 196
stream:misses_by_poll: 0

CS: 
CS:times selected: 1770527
CS:pref_filled: 1461
CS:pref_useful: 1304
CS:pref_late: 138
CS:misses: 331175
CS:misses_by_poll: 10

CPLX: 
CPLX:times selected: 48140
CPLX:pref_filled: 893
CPLX:pref_useful: 175
CPLX:pref_late: 13
CPLX:misses: 10264
CPLX:misses_by_poll: 2

NL_L1: 
NL:times selected: 75
NL:pref_filled: 3
NL:pref_useful: 3
NL:pref_late: 0
NL:misses: 7
NL:misses_by_poll: 0

total selections: 3637489
total_filled: 726667
total_useful: 663015
total_late: 46686
total_polluted: 12
total_misses_after_warmup: 337319
conflicts: 20
Degree Incremented Times: 94006
Degree Decremented Times: 35

L1 IP Table Write Accesses: 11614386
L1 IP Table Read Accesses: 11614366
L1 RST Write Accesses: 1520929
L1 RST Read Accesses: 3041858
L1 CSPT Write Accesses: 1520929
L1 CSPT Read Accesses: 1582573
L1 RR Filter Tag Write Accesses: 2729087
L1 RR Filter Tag Read Accesses: 330046427
L1 IP Table Tag Write Accesses: 11616305
L1 IP Table Tag Read Accesses: 11616305
L1 RST Tag Write Accesses: 0
L1 RST Tag Read Accesses: 13753478
L1 RR Filter Write Accesses: 0
L1 RR Filter Read Accesses: 12944498
test: 41461
L2 IP Table Read Accesses: 1098369
L2 IP Table Write Accesses: 1045613
L2 IP Table Tag Read Accesses: 549188
L2 IP Table Tag Write Accesses: 549188

DRAM Statistics
 CHANNEL 0
 RQ ROW_BUFFER_HIT:     343418  ROW_BUFFER_MISS:     812006
 DBUS_CONGESTED:    1368453
 WQ ROW_BUFFER_HIT:      40519  ROW_BUFFER_MISS:     303995  FULL:          0

 AVG_CONGESTED_CYCLE: 38
 All warmup complete: 2
Channel 0 Bank busy for read cycles: 0
Channel 0 Bank busy for write cycles: 0
Channel 0
Rank 0
0banks busy for read cycles: 23459
0banks busy for write cycles: 0
1banks busy for read cycles: 2560925
1banks busy for write cycles: 50870
2banks busy for read cycles: 3876260
2banks busy for write cycles: 50816
3banks busy for read cycles: 3718974
3banks busy for write cycles: 50772
4banks busy for read cycles: 3023597
4banks busy for write cycles: 50741
5banks busy for read cycles: 3204927
5banks busy for write cycles: 50762
6banks busy for read cycles: 4276688
6banks busy for write cycles: 51998
7banks busy for read cycles: 7621026
7banks busy for write cycles: 419805
8banks busy for read cycles: 26732608
8banks busy for write cycles: 17929901

CPU 0 Branch Prediction Accuracy: 99.8858% MPKI: 0.06352 Average ROB Occupancy at Mispredict: 218.47
Branch types
NOT_BRANCH: 47219347 94.4387%
BRANCH_DIRECT_JUMP: 0 0%
BRANCH_INDIRECT: 0 0%
BRANCH_CONDITIONAL: 2780656 5.56131%
BRANCH_DIRECT_CALL: 0 0%
BRANCH_INDIRECT_CALL: 0 0%
BRANCH_RETURN: 0 0%
BRANCH_OTHER: 0 0%

@sumon_overall_L1D    663015    252156     63654    726667   4908476   5182512
@Sumon_Early_by_class_L1D    661687      1153       175         0
@Sumon_Late_by_class_L1D     46309       138        13         0

@Sumon_Early_by_cycle_L1D     28267     20639     34749     22994     18958    433894     98506      5003         5         0         0         0
@Sumon_Late_by_cycle_L1D     14168      6732      7136      5434      4429      6708      1651       197         5         0         0         0
@Sumon_Early_stream_L1D     28209     20519     34675     22852     18764    433404     98372      4887         5         0         0         0
@Sumon_Early_CS_L1D        56       119        73       142       194       489        78         2         0         0         0         0
@Sumon_Early_CPLX_L1D         2         1         1         0         0         1        56       114         0         0         0         0
@Sumon_Late_stream_L1D     14137      6714      7098      5419      4416      6676      1648       196         5         0         0         0
@Sumon_Late_CS_L1D        29        17        35        13        12        28         3         1         0         0         0         0
@Sumon_Late_CPLX_L1D         2         1         3         2         1         4         0         0         0         0         0         0
@sumon_overall_L2C     19444     11818    753837    773338   2962418   3084736
@Sumon_Early_by_class_L2C     19440         4         0         0
@Sumon_Late_by_class_L2C     11790        23         0         0

@Sumon_Early_by_cycle_L2C       807      2033      3210      2074      2231      7079      1895       114         1         0         0         0
@Sumon_Late_by_cycle_L2C      1273      1562      1703      1807      1630      3604       238         1         0         0         0         0
@Sumon_Early_stream_L2C       806      2032      3209      2074      2230      7079      1895       114         1         0         0         0
@Sumon_Early_CS_L2C         1         1         1         0         1         0         0         0         0         0         0         0
@Sumon_Early_CPLX_L2C         0         0         0         0         0         0         0         0         0         0         0         0
@Sumon_Late_stream_L2C      1267      1554      1701      1802      1629      3599       237         1         0         0         0         0
@Sumon_Late_CS_L2C         1         8         2         5         1         5         1         0         0         0         0         0
@Sumon_Late_CPLX_L2C         0         0         0         0         0         0         0         0         0         0         0         0
DRAM PAGES: 1048576
Allocated PAGES: 15227
