Initialize SIGNATURE TABLE
ST_SET: 1
ST_WAY: 256
ST_TAG_BIT: 16
ST_TAG_MASK: ffff

Initialize PATTERN TABLE
PT_SET: 512
PT_WAY: 4
SIG_DELTA_BIT: 7
C_SIG_BIT: 4
C_DELTA_BIT: 4

Initialize PREFETCH FILTER
FILTER_SET: 1024

*** ChampSim Multicore Out-of-Order Simulator ***

Warmup Instructions: 10000000
Simulation Instructions: 50000000
Number of CPUs: 1
LLC sets: 2048
LLC ways: 16
Off-chip DRAM Size: 4096 MB Channels: 1 Width: 64-bit Data Rate: 6400 MT/s
CPU 0 runs traces/SPEC2017/605.mcf_s-1554B.champsimtrace.xz
.xz
CPU 0 Bimodal branch predictor
BTB has LRU replacement policy
ITLB has LRU replacement policy
DTLB has LRU replacement policy
STLB has LRU replacement policy
L1I has LRU replacement policy
L1D has LRU replacement policy
ST_WAYS: 256
PT_SETS: 512
L2C has LRU replacement policy
Initialize SRRIP state
Heartbeat CPU 0 instructions: 10000001 cycles: 3523358 heartbeat IPC: 2.8382 cumulative IPC: 2.8382 (Simulation time: 0 hr 11 min 56 sec) 

Warmup complete CPU 0 instructions: 10000001 cycles: 3523358 (Simulation time: 0 hr 11 min 56 sec) 

Heartbeat CPU 0 instructions: 20000000 cycles: 36887105 heartbeat IPC: 0.299726 cumulative IPC: 0.299726 (Simulation time: 0 hr 33 min 32 sec) 
Heartbeat CPU 0 instructions: 30000000 cycles: 69665921 heartbeat IPC: 0.305075 cumulative IPC: 0.302377 (Simulation time: 0 hr 54 min 1 sec) 
Heartbeat CPU 0 instructions: 40000001 cycles: 102804543 heartbeat IPC: 0.301763 cumulative IPC: 0.302172 (Simulation time: 1 hr 3 min 48 sec) 
Heartbeat CPU 0 instructions: 50000003 cycles: 136333823 heartbeat IPC: 0.298247 cumulative IPC: 0.301181 (Simulation time: 1 hr 8 min 17 sec) 
Heartbeat CPU 0 instructions: 60000002 cycles: 169545239 heartbeat IPC: 0.301101 cumulative IPC: 0.301165 (Simulation time: 1 hr 9 min 44 sec) 
Finished CPU 0 instructions: 50000001 cycles: 166021881 cumulative IPC: 0.301165 (Simulation time: 1 hr 9 min 44 sec) 

ChampSim completed all CPUs

Region of Interest Statistics

CPU 0 cumulative IPC: 0.301165 instructions: 50000001 cycles: 166021881
ITLB TOTAL     ACCESS:   10630769  HIT:   10630769  MISS:          0  HIT %:        100  MISS %:          0   MPKI: 0
ITLB LOAD TRANSLATION ACCESS:   10630769  HIT:   10630769  MISS:          0  HIT %:        100  MISS %:          0   MPKI: 0
ITLB PREFETCH  REQUESTED:          0  ISSUED:          0  USEFUL:          0  USELESS:          0
ITLB USEFUL LOAD PREFETCHES:          0 PREFETCH ISSUED TO LOWER LEVEL:          0  ACCURACY: -nan
ITLB TIMELY PREFETCHES:          0 LATE PREFETCHES: 0 DROPPED PREFETCHES: 0
ITLB PREFETCHES SAME FILL-ORIGIN LEVEL: 0 DIFFERENT FILL-ORIGIN LEVEL: 0
ITLB AVERAGE MISS LATENCY: -nan cycles
ITLB RQ	ACCESS:   12875493	FORWARD:          0	MERGED:    2244724	TO_CACHE:   10630769

ITLB_Dead_block_count 0 0
ITLB_inaccurate_prefetch_count 0 0
Interactions: positive negative neutral
ITLB_interactions 0 0 0
ITLB_positive 0 0 0
ITLB_negative 0 0 0
ITLB_neutral 0 0 0 0 0 0
DTLB TOTAL     ACCESS:   16231657  HIT:   16034491  MISS:     197166  HIT %:    98.7853  MISS %:     1.2147   MPKI: 3.94332
DTLB LOAD TRANSLATION ACCESS:   16231657  HIT:   16034491  MISS:     197166  HIT %:    98.7853  MISS %:     1.2147   MPKI: 3.94332
DTLB PREFETCH  REQUESTED:          0  ISSUED:          0  USEFUL:          0  USELESS:          0
DTLB USEFUL LOAD PREFETCHES:          0 PREFETCH ISSUED TO LOWER LEVEL:          0  ACCURACY: -nan
DTLB TIMELY PREFETCHES:          0 LATE PREFETCHES: 0 DROPPED PREFETCHES: 0
DTLB PREFETCHES SAME FILL-ORIGIN LEVEL: 0 DIFFERENT FILL-ORIGIN LEVEL: 0
DTLB AVERAGE MISS LATENCY: 13.0421 cycles
DTLB RQ	ACCESS:   19600099	FORWARD:          0	MERGED:    3364634	TO_CACHE:   16235465

DTLB_Dead_block_count 197162 4
DTLB_inaccurate_prefetch_count 0 0
Interactions: positive negative neutral
DTLB_interactions 0 0 0
DTLB_positive 0 0 0
DTLB_negative 0 0 0
DTLB_neutral 0 0 0 0 0 0
STLB TOTAL     ACCESS:     197166  HIT:     192755  MISS:       4411  HIT %:    97.7628  MISS %:     2.2372   MPKI: 0.08822
STLB LOAD TRANSLATION ACCESS:     197166  HIT:     192755  MISS:       4411  HIT %:    97.7628  MISS %:     2.2372   MPKI: 0.08822
STLB PREFETCH  REQUESTED:          0  ISSUED:          0  USEFUL:          0  USELESS:          0
STLB USEFUL LOAD PREFETCHES:          0 PREFETCH ISSUED TO LOWER LEVEL:          0  ACCURACY: -nan
STLB TIMELY PREFETCHES:          0 LATE PREFETCHES: 0 DROPPED PREFETCHES: 0
STLB PREFETCHES SAME FILL-ORIGIN LEVEL: 0 DIFFERENT FILL-ORIGIN LEVEL: 0
STLB AVERAGE MISS LATENCY: 180.112 cycles
STLB RQ	ACCESS:     197166	FORWARD:          0	MERGED:          0	TO_CACHE:     197166

STLB_Dead_block_count 4407 4
STLB_inaccurate_prefetch_count 0 0
Interactions: positive negative neutral
STLB_interactions 0 0 0
STLB_positive 0 0 0
STLB_negative 0 0 0
STLB_neutral 0 0 0 0 0 0
STLB Hit, L1D data hit: 0
STLB Hit, L2C data hit: 0
STLB Hit, LLC data hit: 0
STLB Hit, LLC data miss: 0
STLB STLB hints to L2: 0
L1D TOTAL     ACCESS:   18346524  HIT:   10654810  MISS:    7691714  HIT %:    58.0754  MISS %:    41.9246   MPKI: 153.834
L1D LOAD      ACCESS:   15768605  HIT:    8230315  MISS:    7538290  HIT %:    52.1943  MISS %:    47.8057   MPKI: 150.766
L1D RFO       ACCESS:    2577919  HIT:    2424495  MISS:     153424  HIT %:    94.0485  MISS %:    5.95147   MPKI: 3.06848
L1D PREFETCH  REQUESTED:          0  ISSUED:          0  USEFUL:          0  USELESS:          0
L1D USEFUL LOAD PREFETCHES:          0 PREFETCH ISSUED TO LOWER LEVEL:          0  ACCURACY: -nan
L1D TIMELY PREFETCHES:          0 LATE PREFETCHES: 0 DROPPED PREFETCHES: 0
L1D PREFETCHES SAME FILL-ORIGIN LEVEL: 0 DIFFERENT FILL-ORIGIN LEVEL: 0
L1D AVERAGE MISS LATENCY: 60.4074 cycles
L1D RQ	ACCESS:   20634112	FORWARD:          0	MERGED:    3979545	TO_CACHE:   16628410
L1D WQ	ACCESS:    3596625	FORWARD:      26157	MERGED:     624936	TO_CACHE:    2971689

L1D_Dead_block_count 777773 6760520
L1D_inaccurate_prefetch_count 0 0
Interactions: positive negative neutral
L1D_interactions 0 0 0
L1D_positive 0 0 0
L1D_negative 0 0 0
L1D_neutral 0 0 0 0 0 0
L1D UNIQUE REGIONS ACCESSED: 0
L1D REGIONS CONFLICTS: 0
L1D Cross Page Prefetch Requests: 0
L1D Same Page Prefetch Requests: 0
L1D ROI Sum of L1D PQ occupancy: 0
L1D PREFETCHES PUSHED FROM L2C: 0
L1I TOTAL     ACCESS:   12875490  HIT:   12875490  MISS:          0  HIT %:        100  MISS %:          0   MPKI: 0
L1I LOAD      ACCESS:   12875490  HIT:   12875490  MISS:          0  HIT %:        100  MISS %:          0   MPKI: 0
L1I PREFETCH  REQUESTED:          0  ISSUED:          0  USEFUL:          0  USELESS:          0
L1I USEFUL LOAD PREFETCHES:          0 PREFETCH ISSUED TO LOWER LEVEL:          0  ACCURACY: -nan
L1I TIMELY PREFETCHES:          0 LATE PREFETCHES: 0 DROPPED PREFETCHES: 0
L1I PREFETCHES SAME FILL-ORIGIN LEVEL: 0 DIFFERENT FILL-ORIGIN LEVEL: 0
L1I AVERAGE MISS LATENCY: -nan cycles
L1I RQ	ACCESS:   17937907	FORWARD:          0	MERGED:    5062414	TO_CACHE:   12875493

L1I_Dead_block_count 0 0
L1I_inaccurate_prefetch_count 0 0
Interactions: positive negative neutral
L1I_interactions 0 0 0
L1I_positive 0 0 0
L1I_negative 0 0 0
L1I_neutral 0 0 0 0 0 0
BTB TOTAL     ACCESS:    8799465  HIT:    8799433  MISS:         32  HIT %:    99.9996  MISS %: 0.000363658   MPKI: 0.00064
BTB BRANCH_DIRECT_JUMP	ACCESS:    2054755  HIT:    2054749  MISS:          6
BTB BRANCH_INDIRECT	ACCESS:          0  HIT:          0  MISS:          0
BTB BRANCH_CONDITIONAL	ACCESS:    6743906  HIT:    6743884  MISS:         22
BTB BRANCH_DIRECT_CALL	ACCESS:        402  HIT:        400  MISS:          2
BTB BRANCH_INDIRECT_CALL	ACCESS:          0  HIT:          0  MISS:          0
BTB BRANCH_RETURN	ACCESS:        402  HIT:        400  MISS:          2
BTB BRANCH_OTHER ACCESS:          0  HIT:          0  MISS:          0

L2C TOTAL     ACCESS:    9089177  HIT:    1376958  MISS:    7712219  HIT %:    15.1494  MISS %:    84.8506   MPKI: 154.244
L2C LOAD      ACCESS:    7538289  HIT:     832257  MISS:    6706032  HIT %:    11.0404  MISS %:    88.9596   MPKI: 134.121
L2C DATA LOAD MPKI: 134.121
L2C INSTRUCTION LOAD MPKI: 0
L2C RFO       ACCESS:     153424  HIT:        218  MISS:     153206  HIT %:    0.14209  MISS %:    99.8579   MPKI: 3.06412
L2C PREFETCH  ACCESS:    1208526  HIT:     357071  MISS:     851455  HIT %:     29.546  MISS %:     70.454   MPKI: 17.0291
L2C DATA PREFETCH MPKI: 17.0291
L2C INSTRUCTION PREFETCH MPKI: 0
L2C WRITEBACK ACCESS:     184527  HIT:     184092  MISS:        435  HIT %:    99.7643  MISS %:   0.235738   MPKI: 0.0087
L2C LOAD TRANSLATION ACCESS:       4411  HIT:       3320  MISS:       1091  HIT %:    75.2664  MISS %:    24.7336   MPKI: 0.02182
L2C PREFETCH  REQUESTED:   17030783  ISSUED:   17020356  USEFUL:     831852  USELESS:      19595
L2C USEFUL LOAD PREFETCHES:     831852 PREFETCH ISSUED TO LOWER LEVEL:   15567478  ACCURACY: 5.34352
L2C TIMELY PREFETCHES:     831852 LATE PREFETCHES: 23279 DROPPED PREFETCHES: 0
L2C PREFETCHES SAME FILL-ORIGIN LEVEL: 874734 DIFFERENT FILL-ORIGIN LEVEL: 14692744
L2C AVERAGE MISS LATENCY: 48.7827 cycles
L2C RQ	ACCESS:    7696128	FORWARD:          0	MERGED:          0	TO_CACHE:    7696127
L2C WQ	ACCESS:     184527	FORWARD:          1	MERGED:          0	TO_CACHE:     184527
L2C PQ	ACCESS:   17020356	FORWARD:          0	MERGED:     570279	TO_CACHE:   16450077

L2C_Dead_block_count 6004578 832473
L2C_inaccurate_prefetch_count 0 15567478
Interactions: positive negative neutral
L2C_interactions 754661 15255 99124
L2C_positive 754661 0 0
L2C_negative 0 15255 0
L2C_neutral 94785 2330 0 0 0 2009
L2C Instructions Evicting Data 0
L2C Translations Evicting Data 1090
L2C Data Evicting Data 7709603
L2C Instructions Evicting Instructions 0
L2C Translations Evicting Instructions 0
L2C Data Evicting Instructions 0
L2C Instructions Evicting Translations 0
L2C Translations Evicting Translations 1
L2C Data Evicting Translations 1090
L2C Dense regions hint from L2: 0
PSCL5 TOTAL     ACCESS:       4411  HIT:       4411  MISS:          0  HIT %:        100  MISS %:          0   MPKI: 0
PSCL5 LOAD TRANSLATION ACCESS:       4411  HIT:       4411  MISS:          0  HIT %:        100  MISS %:          0   MPKI: 0
PSCL5 PREFETCH  REQUESTED:          0  ISSUED:          0  USEFUL:          0  USELESS:          0
PSCL5 USEFUL LOAD PREFETCHES:          0 PREFETCH ISSUED TO LOWER LEVEL:          0  ACCURACY: -nan
PSCL5 TIMELY PREFETCHES:          0 LATE PREFETCHES: 0 DROPPED PREFETCHES: 0
PSCL5 PREFETCHES SAME FILL-ORIGIN LEVEL: 0 DIFFERENT FILL-ORIGIN LEVEL: 0

PSCL5_Dead_block_count 0 0
PSCL5_inaccurate_prefetch_count 0 0
Interactions: positive negative neutral
PSCL5_interactions 0 0 0
PSCL5_positive 0 0 0
PSCL5_negative 0 0 0
PSCL5_neutral 0 0 0 0 0 0
PSCL4 TOTAL     ACCESS:       4411  HIT:       4411  MISS:          0  HIT %:        100  MISS %:          0   MPKI: 0
PSCL4 LOAD TRANSLATION ACCESS:       4411  HIT:       4411  MISS:          0  HIT %:        100  MISS %:          0   MPKI: 0
PSCL4 PREFETCH  REQUESTED:          0  ISSUED:          0  USEFUL:          0  USELESS:          0
PSCL4 USEFUL LOAD PREFETCHES:          0 PREFETCH ISSUED TO LOWER LEVEL:          0  ACCURACY: -nan
PSCL4 TIMELY PREFETCHES:          0 LATE PREFETCHES: 0 DROPPED PREFETCHES: 0
PSCL4 PREFETCHES SAME FILL-ORIGIN LEVEL: 0 DIFFERENT FILL-ORIGIN LEVEL: 0

PSCL4_Dead_block_count 0 0
PSCL4_inaccurate_prefetch_count 0 0
Interactions: positive negative neutral
PSCL4_interactions 0 0 0
PSCL4_positive 0 0 0
PSCL4_negative 0 0 0
PSCL4_neutral 0 0 0 0 0 0
PSCL3 TOTAL     ACCESS:       4411  HIT:       4411  MISS:          0  HIT %:        100  MISS %:          0   MPKI: 0
PSCL3 LOAD TRANSLATION ACCESS:       4411  HIT:       4411  MISS:          0  HIT %:        100  MISS %:          0   MPKI: 0
PSCL3 PREFETCH  REQUESTED:          0  ISSUED:          0  USEFUL:          0  USELESS:          0
PSCL3 USEFUL LOAD PREFETCHES:          0 PREFETCH ISSUED TO LOWER LEVEL:          0  ACCURACY: -nan
PSCL3 TIMELY PREFETCHES:          0 LATE PREFETCHES: 0 DROPPED PREFETCHES: 0
PSCL3 PREFETCHES SAME FILL-ORIGIN LEVEL: 0 DIFFERENT FILL-ORIGIN LEVEL: 0

PSCL3_Dead_block_count 0 0
PSCL3_inaccurate_prefetch_count 0 0
Interactions: positive negative neutral
PSCL3_interactions 0 0 0
PSCL3_positive 0 0 0
PSCL3_negative 0 0 0
PSCL3_neutral 0 0 0 0 0 0
PSCL2 TOTAL     ACCESS:       4411  HIT:       4402  MISS:          9  HIT %:     99.796  MISS %:   0.204035   MPKI: 0.00018
PSCL2 LOAD TRANSLATION ACCESS:       4411  HIT:       4402  MISS:          9  HIT %:     99.796  MISS %:   0.204035   MPKI: 0.00018
PSCL2 PREFETCH  REQUESTED:          0  ISSUED:          0  USEFUL:          0  USELESS:          0
PSCL2 USEFUL LOAD PREFETCHES:          0 PREFETCH ISSUED TO LOWER LEVEL:          0  ACCURACY: -nan
PSCL2 TIMELY PREFETCHES:          0 LATE PREFETCHES: 0 DROPPED PREFETCHES: 0
PSCL2 PREFETCHES SAME FILL-ORIGIN LEVEL: 0 DIFFERENT FILL-ORIGIN LEVEL: 0

PSCL2_Dead_block_count 0 0
PSCL2_inaccurate_prefetch_count 0 0
Interactions: positive negative neutral
PSCL2_interactions 0 0 0
PSCL2_positive 0 0 0
PSCL2_negative 0 0 0
PSCL2_neutral 0 0 0 0 0 0
LLC TOTAL     ACCESS:   21096538  HIT:   17811940  MISS:    3284598  HIT %:    84.4306  MISS %:    15.5694   MPKI: 65.692
LLC LOAD      ACCESS:    6682753  HIT:    5342246  MISS:    1340507  HIT %:    79.9408  MISS %:    20.0592   MPKI: 26.8101
LLC RFO       ACCESS:     153206  HIT:       5542  MISS:     147664  HIT %:    3.61735  MISS %:    96.3826   MPKI: 2.95328
LLC PREFETCH  ACCESS:   14075191  HIT:   12418730  MISS:    1656461  HIT %:    88.2313  MISS %:    11.7687   MPKI: 33.1292
LLC WRITEBACK ACCESS:     184297  HIT:      45416  MISS:     138881  HIT %:    24.6428  MISS %:    75.3572   MPKI: 2.77762
LLC LOAD TRANSLATION ACCESS:       1091  HIT:          6  MISS:       1085  HIT %:   0.549954  MISS %:      99.45   MPKI: 0.0217
LLC PREFETCH  REQUESTED:          0  ISSUED:          0  USEFUL:     626089  USELESS:    1028171
LLC USEFUL LOAD PREFETCHES:     626089 PREFETCH ISSUED TO LOWER LEVEL:    2373179  ACCURACY: 26.3819
LLC TIMELY PREFETCHES:     626089 LATE PREFETCHES: 716718 DROPPED PREFETCHES: 0
LLC PREFETCHES SAME FILL-ORIGIN LEVEL: 2354261 DIFFERENT FILL-ORIGIN LEVEL: 0
LLC AVERAGE MISS LATENCY: 102.237 cycles
LLC RQ	ACCESS:    6837051	FORWARD:          0	MERGED:          0	TO_CACHE:    6837051
LLC WQ	ACCESS:     184297	FORWARD:          0	MERGED:          0	TO_CACHE:     184297
LLC PQ	ACCESS:   15567478	FORWARD:          0	MERGED:     383278	TO_CACHE:   15184200

LLC_Dead_block_count 2177 770361
LLC_inaccurate_prefetch_count 815692 1557487
Interactions: positive negative neutral
LLC_interactions 747597 434002 937389
LLC_positive 600869 21134 125594
LLC_negative 67227 251825 114950
LLC_neutral 150364 34321 315494 155247 75405 206558
LLC Dense regions hint to LLC: 0

RAW hits: 2034201
Loads Generated: 22668315
Loads sent to L1D: 20634112
Stores Generated: 3596621
Stores sent to L1D: 3596625
Major fault: 0 Minor fault: 6307
Allocated PAGES: 6307
 All Calls: 9001313
 Critical Calls: 9001313
------------------
Depth Distribution
------------------
depth 0: 0
depth 1: 8386419
depth 2: 3663364
depth 3: 2341859
depth 4: 1619839
depth 5: 1232973
depth 6: 1068239
depth 7: 903934
depth 8: 629932
depth 9: 348345
depth 10: 43700
depth 11: 2760
depth 12: 13
depth 13: 0
depth 14: 0
depth 15: 0
depth 16: 0
depth 17: 0
depth 18: 0
depth 19: 0
depth 20: 0
depth 21: 0
depth 22: 0
depth 23: 0
depth 24: 0
depth 25: 0
depth 26: 0
depth 27: 0
depth 28: 0
depth 29: 0
Total: 20241377
-----------------------------
-----------------------------
	Captured at Filter
-----------------------------
depth 0: 0
depth 1: 50736
depth 2: 26104
depth 3: 6896
depth 4: 4319
depth 5: 3009
depth 6: 2400
depth 7: 2069
depth 8: 1469
depth 9: 846
depth 10: 113
depth 11: 8
depth 12: 0
depth 13: 0
depth 14: 0
depth 15: 0
depth 16: 0
depth 17: 0
depth 18: 0
depth 19: 0
depth 20: 0
depth 21: 0
depth 22: 0
depth 23: 0
depth 24: 0
depth 25: 0
depth 26: 0
depth 27: 0
depth 28: 0
depth 29: 0
-----------------------------
-----------------------------
		Lost at Page
-----------------------------
depth 0: 0
depth 1: 478343
depth 2: 227009
depth 3: 171239
depth 4: 140443
depth 5: 113836
depth 6: 108568
depth 7: 100673
depth 8: 79711
depth 9: 50585
depth 10: 7243
depth 11: 537
depth 12: 5
depth 13: 0
depth 14: 0
depth 15: 0
depth 16: 0
depth 17: 0
depth 18: 0
depth 19: 0
depth 20: 0
depth 21: 0
depth 22: 0
depth 23: 0
depth 24: 0
depth 25: 0
depth 26: 0
depth 27: 0
depth 28: 0
depth 29: 0
-----------------------------
-----------------------------
	Lost due to PQ Size
-----------------------------
975558
-----------------------------
ST read accesses: 7343619
ST write accesses: 194671
PT read accesses: 139706316
PT write accesses: 11000968
FILTER read accesses: 32330371
FILTER write accesses: 9541557
GHR read accesses: 8060315
GHR write accesses: 1182509
GHR counter read accesses: 114371440
GHR counter write accesses: 9306661
ST tag read accesses: 2998491972
ST tag write accesses: 65832183

DRAM Statistics
 CHANNEL 0
 RQ ROW_BUFFER_HIT:    2203631  ROW_BUFFER_MISS:     942086
 DBUS_CONGESTED:       8861
 WQ ROW_BUFFER_HIT:      78945  ROW_BUFFER_MISS:     103773  FULL:          0

 AVG_CONGESTED_CYCLE: 4
 All warmup complete: 2
Channel 0 Bank busy for read cycles: 0
Channel 0 Bank busy for write cycles: 0
Channel 0
Rank 0
0banks busy for read cycles: 35583997
0banks busy for write cycles: 17053
1banks busy for read cycles: 47312523
1banks busy for write cycles: 3604176
2banks busy for read cycles: 33969002
2banks busy for write cycles: 1623894
3banks busy for read cycles: 19824016
3banks busy for write cycles: 1203918
4banks busy for read cycles: 9886543
4banks busy for write cycles: 1084247
5banks busy for read cycles: 4331459
5banks busy for write cycles: 1013321
6banks busy for read cycles: 1729690
6banks busy for write cycles: 1050581
7banks busy for read cycles: 597418
7banks busy for write cycles: 1264491
8banks busy for read cycles: 134138
8banks busy for write cycles: 1791415

CPU 0 Branch Prediction Accuracy: 97.7265% MPKI: 4.14186 Average ROB Occupancy at Mispredict: 51.2281
Branch types
NOT_BRANCH: 40890851 81.7817%
BRANCH_DIRECT_JUMP: 2054755 4.10951%
BRANCH_INDIRECT: 0 0%
BRANCH_CONDITIONAL: 7053556 14.1071%
BRANCH_DIRECT_CALL: 402 0.000804%
BRANCH_INDIRECT_CALL: 0 0%
BRANCH_RETURN: 402 0.000804%
BRANCH_OTHER: 0 0%

@sumon_overall_L1D         0         0         0         0         0         0         0
@Sumon_Early_by_class_L1D         0         0         0         0
@Sumon_Late_by_class_L1D         0         0         0         0

@Sumon_Early_by_cycle_L1D         0         0         0         0         0         0         0         0         0         0         0         0
@Sumon_Late_by_cycle_L1D         0         0         0         0         0         0
@Sumon_Early_stream_L1D         0         0         0         0         0         0         0         0         0         0         0         0
@Sumon_Early_CS_L1D         0         0         0         0         0         0         0         0         0         0         0         0
@Sumon_Early_CPLX_L1D         0         0         0         0         0         0         0         0         0         0         0         0
@Sumon_Late_stream_L1D         0         0         0         0         0         0
@Sumon_Late_CS_L1D         0         0         0         0         0         0
@Sumon_Late_CPLX_L1D         0         0         0         0         0         0
@sumon_overall_L2C    831852     23279         0     19595    851455  17020356  17030783
@Sumon_Early_by_class_L2C         0         0         0         0
@Sumon_Late_by_class_L2C         0         0         0         0

@Sumon_Early_by_cycle_L2C    544141    147844    115911     17120      3449      3085       210        65        20         4         2         1
@Sumon_Late_by_cycle_L2C      4021     11460      4280      1939      1579         0
@Sumon_Early_stream_L2C         0         0         0         0         0         0         0         0         0         0         0         0
@Sumon_Early_CS_L2C         0         0         0         0         0         0         0         0         0         0         0         0
@Sumon_Early_CPLX_L2C         0         0         0         0         0         0         0         0         0         0         0         0
@Sumon_Late_stream_L2C         0         0         0         0         0         0
@Sumon_Late_CS_L2C         0         0         0         0         0         0
@Sumon_Late_CPLX_L2C         0         0         0         0         0         0
DRAM PAGES: 1048576
Allocated PAGES: 6307
