Initialize SIGNATURE TABLE
ST_SET: 1
ST_WAY: 256
ST_TAG_BIT: 16
ST_TAG_MASK: ffff

Initialize PATTERN TABLE
PT_SET: 512
PT_WAY: 4
SIG_DELTA_BIT: 7
C_SIG_BIT: 4
C_DELTA_BIT: 4

Initialize PREFETCH FILTER
FILTER_SET: 1024

*** ChampSim Multicore Out-of-Order Simulator ***

Warmup Instructions: 10000000
Simulation Instructions: 50000000
Number of CPUs: 1
LLC sets: 2048
LLC ways: 16
Off-chip DRAM Size: 4096 MB Channels: 1 Width: 64-bit Data Rate: 6400 MT/s
CPU 0 runs traces/SPEC2017/605.mcf_s-1536B.champsimtrace.xz
.xz
CPU 0 Bimodal branch predictor
BTB has LRU replacement policy
ITLB has LRU replacement policy
DTLB has LRU replacement policy
STLB has LRU replacement policy
L1I has LRU replacement policy
L1D has LRU replacement policy
ST_WAYS: 256
PT_SETS: 512
L2C has LRU replacement policy
Initialize SRRIP state
Heartbeat CPU 0 instructions: 10000003 cycles: 2831525 heartbeat IPC: 3.53167 cumulative IPC: 3.53167 (Simulation time: 0 hr 7 min 38 sec) 

Warmup complete CPU 0 instructions: 10000003 cycles: 2831525 (Simulation time: 0 hr 7 min 38 sec) 

Heartbeat CPU 0 instructions: 20000002 cycles: 32282381 heartbeat IPC: 0.339549 cumulative IPC: 0.339549 (Simulation time: 0 hr 27 min 32 sec) 
Heartbeat CPU 0 instructions: 30000002 cycles: 66319464 heartbeat IPC: 0.293797 cumulative IPC: 0.31502 (Simulation time: 0 hr 47 min 32 sec) 
Heartbeat CPU 0 instructions: 40000001 cycles: 108906840 heartbeat IPC: 0.234811 cumulative IPC: 0.282818 (Simulation time: 1 hr 1 min 20 sec) 
Heartbeat CPU 0 instructions: 50000000 cycles: 153969455 heartbeat IPC: 0.221913 cumulative IPC: 0.264659 (Simulation time: 1 hr 7 min 11 sec) 
Heartbeat CPU 0 instructions: 60000003 cycles: 193208846 heartbeat IPC: 0.254846 cumulative IPC: 0.262636 (Simulation time: 1 hr 9 min 17 sec) 
Finished CPU 0 instructions: 50000000 cycles: 190377321 cumulative IPC: 0.262636 (Simulation time: 1 hr 9 min 17 sec) 

ChampSim completed all CPUs

Region of Interest Statistics

CPU 0 cumulative IPC: 0.262636 instructions: 50000000 cycles: 190377321
ITLB TOTAL     ACCESS:    9067662  HIT:    9067662  MISS:          0  HIT %:        100  MISS %:          0   MPKI: 0
ITLB LOAD TRANSLATION ACCESS:    9067662  HIT:    9067662  MISS:          0  HIT %:        100  MISS %:          0   MPKI: 0
ITLB PREFETCH  REQUESTED:          0  ISSUED:          0  USEFUL:          0  USELESS:          0
ITLB USEFUL LOAD PREFETCHES:          0 PREFETCH ISSUED TO LOWER LEVEL:          0  ACCURACY: -nan
ITLB TIMELY PREFETCHES:          0 LATE PREFETCHES: 0 DROPPED PREFETCHES: 0
ITLB PREFETCHES SAME FILL-ORIGIN LEVEL: 0 DIFFERENT FILL-ORIGIN LEVEL: 0
ITLB AVERAGE MISS LATENCY: -nan cycles
ITLB RQ	ACCESS:    9685210	FORWARD:          0	MERGED:     617549	TO_CACHE:    9067661

ITLB_Dead_block_count 0 0
ITLB_inaccurate_prefetch_count 0 0
Interactions: positive negative neutral
ITLB_interactions 0 0 0
ITLB_positive 0 0 0
ITLB_negative 0 0 0
ITLB_neutral 0 0 0 0 0 0
DTLB TOTAL     ACCESS:    7428290  HIT:    6117448  MISS:    1310842  HIT %:    82.3534  MISS %:    17.6466   MPKI: 26.2168
DTLB LOAD TRANSLATION ACCESS:    7428290  HIT:    6117448  MISS:    1310842  HIT %:    82.3534  MISS %:    17.6466   MPKI: 26.2168
DTLB PREFETCH  REQUESTED:          0  ISSUED:          0  USEFUL:          0  USELESS:          0
DTLB USEFUL LOAD PREFETCHES:          0 PREFETCH ISSUED TO LOWER LEVEL:          0  ACCURACY: -nan
DTLB TIMELY PREFETCHES:          0 LATE PREFETCHES: 0 DROPPED PREFETCHES: 0
DTLB PREFETCHES SAME FILL-ORIGIN LEVEL: 0 DIFFERENT FILL-ORIGIN LEVEL: 0
DTLB AVERAGE MISS LATENCY: 69.5494 cycles
DTLB RQ	ACCESS:    8630438	FORWARD:          0	MERGED:    1187410	TO_CACHE:    7443028

DTLB_Dead_block_count 1310838 4
DTLB_inaccurate_prefetch_count 0 0
Interactions: positive negative neutral
DTLB_interactions 0 0 0
DTLB_positive 0 0 0
DTLB_negative 0 0 0
DTLB_neutral 0 0 0 0 0 0
STLB TOTAL     ACCESS:    1310842  HIT:     189402  MISS:    1121440  HIT %:    14.4489  MISS %:    85.5511   MPKI: 22.4288
STLB LOAD TRANSLATION ACCESS:    1310842  HIT:     189402  MISS:    1121440  HIT %:    14.4489  MISS %:    85.5511   MPKI: 22.4288
STLB PREFETCH  REQUESTED:          0  ISSUED:          0  USEFUL:          0  USELESS:          0
STLB USEFUL LOAD PREFETCHES:          0 PREFETCH ISSUED TO LOWER LEVEL:          0  ACCURACY: -nan
STLB TIMELY PREFETCHES:          0 LATE PREFETCHES: 0 DROPPED PREFETCHES: 0
STLB PREFETCHES SAME FILL-ORIGIN LEVEL: 0 DIFFERENT FILL-ORIGIN LEVEL: 0
STLB AVERAGE MISS LATENCY: 70.657 cycles
STLB RQ	ACCESS:    1310842	FORWARD:          0	MERGED:          0	TO_CACHE:    1310842

STLB_Dead_block_count 1121436 4
STLB_inaccurate_prefetch_count 0 0
Interactions: positive negative neutral
STLB_interactions 0 0 0
STLB_positive 0 0 0
STLB_negative 0 0 0
STLB_neutral 0 0 0 0 0 0
STLB Hit, L1D data hit: 0
STLB Hit, L2C data hit: 0
STLB Hit, LLC data hit: 0
STLB Hit, LLC data miss: 0
STLB STLB hints to L2: 0
L1D TOTAL     ACCESS:    8600251  HIT:    6282481  MISS:    2317770  HIT %:      73.05  MISS %:      26.95   MPKI: 46.3554
L1D LOAD      ACCESS:    6383004  HIT:    4203886  MISS:    2179118  HIT %:    65.8606  MISS %:    34.1394   MPKI: 43.5824
L1D RFO       ACCESS:    2217247  HIT:    2078595  MISS:     138652  HIT %:    93.7467  MISS %:    6.25334   MPKI: 2.77304
L1D PREFETCH  REQUESTED:          0  ISSUED:          0  USEFUL:          0  USELESS:          0
L1D USEFUL LOAD PREFETCHES:          0 PREFETCH ISSUED TO LOWER LEVEL:          0  ACCURACY: -nan
L1D TIMELY PREFETCHES:          0 LATE PREFETCHES: 0 DROPPED PREFETCHES: 0
L1D PREFETCHES SAME FILL-ORIGIN LEVEL: 0 DIFFERENT FILL-ORIGIN LEVEL: 0
L1D AVERAGE MISS LATENCY: 123.119 cycles
L1D RQ	ACCESS:   12323483	FORWARD:          0	MERGED:    5781212	TO_CACHE:    6413189
L1D WQ	ACCESS:    2217254	FORWARD:     129082	MERGED:          5	TO_CACHE:    2217249

L1D_Dead_block_count 11959 2167159
L1D_inaccurate_prefetch_count 0 0
Interactions: positive negative neutral
L1D_interactions 0 0 0
L1D_positive 0 0 0
L1D_negative 0 0 0
L1D_neutral 0 0 0 0 0 0
L1D UNIQUE REGIONS ACCESSED: 0
L1D REGIONS CONFLICTS: 0
L1D Cross Page Prefetch Requests: 0
L1D Same Page Prefetch Requests: 0
L1D ROI Sum of L1D PQ occupancy: 0
L1D PREFETCHES PUSHED FROM L2C: 0
L1I TOTAL     ACCESS:    9685210  HIT:    9685210  MISS:          0  HIT %:        100  MISS %:          0   MPKI: 0
L1I LOAD      ACCESS:    9685210  HIT:    9685210  MISS:          0  HIT %:        100  MISS %:          0   MPKI: 0
L1I PREFETCH  REQUESTED:          0  ISSUED:          0  USEFUL:          0  USELESS:          0
L1I USEFUL LOAD PREFETCHES:          0 PREFETCH ISSUED TO LOWER LEVEL:          0  ACCURACY: -nan
L1I TIMELY PREFETCHES:          0 LATE PREFETCHES: 0 DROPPED PREFETCHES: 0
L1I PREFETCHES SAME FILL-ORIGIN LEVEL: 0 DIFFERENT FILL-ORIGIN LEVEL: 0
L1I AVERAGE MISS LATENCY: -nan cycles
L1I RQ	ACCESS:   14415389	FORWARD:          0	MERGED:    4730179	TO_CACHE:    9685210

L1I_Dead_block_count 0 0
L1I_inaccurate_prefetch_count 0 0
Interactions: positive negative neutral
L1I_interactions 0 0 0
L1I_positive 0 0 0
L1I_negative 0 0 0
L1I_neutral 0 0 0 0 0 0
BTB TOTAL     ACCESS:    6679586  HIT:    6679578  MISS:          8  HIT %:    99.9999  MISS %: 0.000119768   MPKI: 0.00016
BTB BRANCH_DIRECT_JUMP	ACCESS:    1136952  HIT:    1136950  MISS:          2
BTB BRANCH_INDIRECT	ACCESS:          0  HIT:          0  MISS:          0
BTB BRANCH_CONDITIONAL	ACCESS:    3325388  HIT:    3325384  MISS:          4
BTB BRANCH_DIRECT_CALL	ACCESS:    1108623  HIT:    1108622  MISS:          1
BTB BRANCH_INDIRECT_CALL	ACCESS:          0  HIT:          0  MISS:          0
BTB BRANCH_RETURN	ACCESS:    1108623  HIT:    1108622  MISS:          1
BTB BRANCH_OTHER ACCESS:          0  HIT:          0  MISS:          0

L2C TOTAL     ACCESS:    5002210  HIT:    3008815  MISS:    1993395  HIT %:    60.1497  MISS %:    39.8503   MPKI: 39.8679
L2C LOAD      ACCESS:    2179118  HIT:     768552  MISS:    1410566  HIT %:    35.2689  MISS %:    64.7311   MPKI: 28.2113
L2C DATA LOAD MPKI: 28.2113
L2C INSTRUCTION LOAD MPKI: 0
L2C RFO       ACCESS:     138652  HIT:      83609  MISS:      55043  HIT %:    60.3013  MISS %:    39.6987   MPKI: 1.10086
L2C PREFETCH  ACCESS:     300996  HIT:     287565  MISS:      13431  HIT %:    95.5378  MISS %:    4.46219   MPKI: 0.26862
L2C DATA PREFETCH MPKI: 0.26862
L2C INSTRUCTION PREFETCH MPKI: 0
L2C WRITEBACK ACCESS:    1108673  HIT:    1108673  MISS:          0  HIT %:        100  MISS %:          0   MPKI: 0
L2C LOAD TRANSLATION ACCESS:    1274771  HIT:     760416  MISS:     514355  HIT %:    59.6512  MISS %:    40.3488   MPKI: 10.2871
L2C PREFETCH  REQUESTED:    1180256  ISSUED:    1180256  USEFUL:       2163  USELESS:      11256
L2C USEFUL LOAD PREFETCHES:       2163 PREFETCH ISSUED TO LOWER LEVEL:     851045  ACCURACY: 0.254158
L2C TIMELY PREFETCHES:       2163 LATE PREFETCHES: 916 DROPPED PREFETCHES: 0
L2C PREFETCHES SAME FILL-ORIGIN LEVEL: 14347 DIFFERENT FILL-ORIGIN LEVEL: 836698
L2C AVERAGE MISS LATENCY: 140.979 cycles
L2C RQ	ACCESS:    3592541	FORWARD:          0	MERGED:          0	TO_CACHE:    3592541
L2C WQ	ACCESS:    1108673	FORWARD:          0	MERGED:          0	TO_CACHE:    1108673
L2C PQ	ACCESS:    1180256	FORWARD:          0	MERGED:       2294	TO_CACHE:    1177962

L2C_Dead_block_count 1126922 852126
L2C_inaccurate_prefetch_count 677382 173663
Interactions: positive negative neutral
L2C_interactions 4312 3463 15758
L2C_positive 2916 1267 129
L2C_negative 1306 2007 150
L2C_neutral 488 432 7567 6396 812 63
L2C Instructions Evicting Data 0
L2C Translations Evicting Data 302715
L2C Data Evicting Data 1176113
L2C Instructions Evicting Instructions 0
L2C Translations Evicting Instructions 0
L2C Data Evicting Instructions 0
L2C Instructions Evicting Translations 0
L2C Translations Evicting Translations 211640
L2C Data Evicting Translations 302927
L2C Dense regions hint from L2: 0
PSCL5 TOTAL     ACCESS:    1121440  HIT:    1121440  MISS:          0  HIT %:        100  MISS %:          0   MPKI: 0
PSCL5 LOAD TRANSLATION ACCESS:    1121440  HIT:    1121440  MISS:          0  HIT %:        100  MISS %:          0   MPKI: 0
PSCL5 PREFETCH  REQUESTED:          0  ISSUED:          0  USEFUL:          0  USELESS:          0
PSCL5 USEFUL LOAD PREFETCHES:          0 PREFETCH ISSUED TO LOWER LEVEL:          0  ACCURACY: -nan
PSCL5 TIMELY PREFETCHES:          0 LATE PREFETCHES: 0 DROPPED PREFETCHES: 0
PSCL5 PREFETCHES SAME FILL-ORIGIN LEVEL: 0 DIFFERENT FILL-ORIGIN LEVEL: 0

PSCL5_Dead_block_count 0 0
PSCL5_inaccurate_prefetch_count 0 0
Interactions: positive negative neutral
PSCL5_interactions 0 0 0
PSCL5_positive 0 0 0
PSCL5_negative 0 0 0
PSCL5_neutral 0 0 0 0 0 0
PSCL4 TOTAL     ACCESS:    1121440  HIT:    1121440  MISS:          0  HIT %:        100  MISS %:          0   MPKI: 0
PSCL4 LOAD TRANSLATION ACCESS:    1121440  HIT:    1121440  MISS:          0  HIT %:        100  MISS %:          0   MPKI: 0
PSCL4 PREFETCH  REQUESTED:          0  ISSUED:          0  USEFUL:          0  USELESS:          0
PSCL4 USEFUL LOAD PREFETCHES:          0 PREFETCH ISSUED TO LOWER LEVEL:          0  ACCURACY: -nan
PSCL4 TIMELY PREFETCHES:          0 LATE PREFETCHES: 0 DROPPED PREFETCHES: 0
PSCL4 PREFETCHES SAME FILL-ORIGIN LEVEL: 0 DIFFERENT FILL-ORIGIN LEVEL: 0

PSCL4_Dead_block_count 0 0
PSCL4_inaccurate_prefetch_count 0 0
Interactions: positive negative neutral
PSCL4_interactions 0 0 0
PSCL4_positive 0 0 0
PSCL4_negative 0 0 0
PSCL4_neutral 0 0 0 0 0 0
PSCL3 TOTAL     ACCESS:    1121440  HIT:    1121440  MISS:          0  HIT %:        100  MISS %:          0   MPKI: 0
PSCL3 LOAD TRANSLATION ACCESS:    1121440  HIT:    1121440  MISS:          0  HIT %:        100  MISS %:          0   MPKI: 0
PSCL3 PREFETCH  REQUESTED:          0  ISSUED:          0  USEFUL:          0  USELESS:          0
PSCL3 USEFUL LOAD PREFETCHES:          0 PREFETCH ISSUED TO LOWER LEVEL:          0  ACCURACY: -nan
PSCL3 TIMELY PREFETCHES:          0 LATE PREFETCHES: 0 DROPPED PREFETCHES: 0
PSCL3 PREFETCHES SAME FILL-ORIGIN LEVEL: 0 DIFFERENT FILL-ORIGIN LEVEL: 0

PSCL3_Dead_block_count 0 0
PSCL3_inaccurate_prefetch_count 0 0
Interactions: positive negative neutral
PSCL3_interactions 0 0 0
PSCL3_positive 0 0 0
PSCL3_negative 0 0 0
PSCL3_neutral 0 0 0 0 0 0
PSCL2 TOTAL     ACCESS:    1121440  HIT:     968109  MISS:     153331  HIT %:    86.3273  MISS %:    13.6727   MPKI: 3.06662
PSCL2 LOAD TRANSLATION ACCESS:    1121440  HIT:     968109  MISS:     153331  HIT %:    86.3273  MISS %:    13.6727   MPKI: 3.06662
PSCL2 PREFETCH  REQUESTED:          0  ISSUED:          0  USEFUL:          0  USELESS:          0
PSCL2 USEFUL LOAD PREFETCHES:          0 PREFETCH ISSUED TO LOWER LEVEL:          0  ACCURACY: -nan
PSCL2 TIMELY PREFETCHES:          0 LATE PREFETCHES: 0 DROPPED PREFETCHES: 0
PSCL2 PREFETCHES SAME FILL-ORIGIN LEVEL: 0 DIFFERENT FILL-ORIGIN LEVEL: 0

PSCL2_Dead_block_count 0 0
PSCL2_inaccurate_prefetch_count 0 0
Interactions: positive negative neutral
PSCL2_interactions 0 0 0
PSCL2_positive 0 0 0
PSCL2_negative 0 0 0
PSCL2_neutral 0 0 0 0 0 0
LLC TOTAL     ACCESS:    3935700  HIT:    1294415  MISS:    2641285  HIT %:    32.8891  MISS %:    67.1109   MPKI: 52.8257
LLC LOAD      ACCESS:    1410199  HIT:     277865  MISS:    1132334  HIT %:     19.704  MISS %:     80.296   MPKI: 22.6467
LLC RFO       ACCESS:      54494  HIT:      16394  MISS:      38100  HIT %:     30.084  MISS %:     69.916   MPKI: 0.762
LLC PREFETCH  ACCESS:     847528  HIT:     341940  MISS:     505588  HIT %:    40.3456  MISS %:    59.6544   MPKI: 10.1118
LLC WRITEBACK ACCESS:    1109124  HIT:     224146  MISS:     884978  HIT %:    20.2093  MISS %:    79.7907   MPKI: 17.6996
LLC LOAD TRANSLATION ACCESS:     514355  HIT:     434070  MISS:      80285  HIT %:    84.3911  MISS %:    15.6089   MPKI: 1.6057
LLC PREFETCH  REQUESTED:          0  ISSUED:          0  USEFUL:     233952  USELESS:     285216
LLC USEFUL LOAD PREFETCHES:     233952 PREFETCH ISSUED TO LOWER LEVEL:     507391  ACCURACY: 46.1088
LLC TIMELY PREFETCHES:     233952 LATE PREFETCHES: 1803 DROPPED PREFETCHES: 0
LLC PREFETCHES SAME FILL-ORIGIN LEVEL: 500647 DIFFERENT FILL-ORIGIN LEVEL: 0
LLC AVERAGE MISS LATENCY: 120.048 cycles
LLC RQ	ACCESS:    1979048	FORWARD:          0	MERGED:          0	TO_CACHE:    1979048
LLC WQ	ACCESS:    1109124	FORWARD:          0	MERGED:          0	TO_CACHE:    1109124
LLC PQ	ACCESS:     851045	FORWARD:          0	MERGED:       1150	TO_CACHE:     849895

LLC_Dead_block_count 739301 509615
LLC_inaccurate_prefetch_count 229216 278175
Interactions: positive negative neutral
LLC_interactions 35831 288096 359538
LLC_positive 12486 21017 2328
LLC_negative 276423 8516 3157
LLC_neutral 28849 947 146593 147397 35195 557
LLC Dense regions hint to LLC: 0

RAW hits: 977931
Loads Generated: 13301417
Loads sent to L1D: 12323483
Stores Generated: 2217254
Stores sent to L1D: 2217254
Major fault: 0 Minor fault: 27016
Allocated PAGES: 27016
 All Calls: 2518024
 Critical Calls: 2518024
------------------
Depth Distribution
------------------
depth 0: 0
depth 1: 1275223
depth 2: 0
depth 3: 0
depth 4: 0
depth 5: 0
depth 6: 0
depth 7: 0
depth 8: 0
depth 9: 0
depth 10: 0
depth 11: 0
depth 12: 0
depth 13: 0
depth 14: 0
depth 15: 0
depth 16: 0
depth 17: 0
depth 18: 0
depth 19: 0
depth 20: 0
depth 21: 0
depth 22: 0
depth 23: 0
depth 24: 0
depth 25: 0
depth 26: 0
depth 27: 0
depth 28: 0
depth 29: 0
Total: 1275223
-----------------------------
-----------------------------
	Captured at Filter
-----------------------------
depth 0: 0
depth 1: 2211
depth 2: 0
depth 3: 0
depth 4: 0
depth 5: 0
depth 6: 0
depth 7: 0
depth 8: 0
depth 9: 0
depth 10: 0
depth 11: 0
depth 12: 0
depth 13: 0
depth 14: 0
depth 15: 0
depth 16: 0
depth 17: 0
depth 18: 0
depth 19: 0
depth 20: 0
depth 21: 0
depth 22: 0
depth 23: 0
depth 24: 0
depth 25: 0
depth 26: 0
depth 27: 0
depth 28: 0
depth 29: 0
-----------------------------
-----------------------------
		Lost at Page
-----------------------------
depth 0: 0
depth 1: 131843
depth 2: 0
depth 3: 0
depth 4: 0
depth 5: 0
depth 6: 0
depth 7: 0
depth 8: 0
depth 9: 0
depth 10: 0
depth 11: 0
depth 12: 0
depth 13: 0
depth 14: 0
depth 15: 0
depth 16: 0
depth 17: 0
depth 18: 0
depth 19: 0
depth 20: 0
depth 21: 0
depth 22: 0
depth 23: 0
depth 24: 0
depth 25: 0
depth 26: 0
depth 27: 0
depth 28: 0
depth 29: 0
-----------------------------
-----------------------------
	Lost due to PQ Size
-----------------------------
0
-----------------------------
ST read accesses: 966535
ST write accesses: 1212583
PT read accesses: 16977580
PT write accesses: 826856
FILTER read accesses: 5354901
FILTER write accesses: 2071732
GHR read accesses: 10594060
GHR write accesses: 111241
GHR counter read accesses: 17809592
GHR counter write accesses: 2241161
ST tag read accesses: 1458629944
ST tag write accesses: 314806248

DRAM Statistics
 CHANNEL 0
 RQ ROW_BUFFER_HIT:      24485  ROW_BUFFER_MISS:    1731503
 DBUS_CONGESTED:         30
 WQ ROW_BUFFER_HIT:     383693  ROW_BUFFER_MISS:     713711  FULL:          0

 AVG_CONGESTED_CYCLE: 5
 All warmup complete: 2
Channel 0 Bank busy for read cycles: 0
Channel 0 Bank busy for write cycles: 0
Channel 0
Rank 0
0banks busy for read cycles: 3655571
0banks busy for write cycles: 49808
1banks busy for read cycles: 52629174
1banks busy for write cycles: 6988515
2banks busy for read cycles: 33179981
2banks busy for write cycles: 8782426
3banks busy for read cycles: 22021678
3banks busy for write cycles: 9729284
4banks busy for read cycles: 11414961
4banks busy for write cycles: 9446431
5banks busy for read cycles: 4363139
5banks busy for write cycles: 8019120
6banks busy for read cycles: 1166193
6banks busy for write cycles: 6203859
7banks busy for read cycles: 200294
7banks busy for write cycles: 5411568
8banks busy for read cycles: 11449
8banks busy for write cycles: 7103871

CPU 0 Branch Prediction Accuracy: 99.9717% MPKI: 0.04406 Average ROB Occupancy at Mispredict: 167.211
Branch types
NOT_BRANCH: 42211293 84.4226%
BRANCH_DIRECT_JUMP: 1136952 2.2739%
BRANCH_INDIRECT: 0 0%
BRANCH_CONDITIONAL: 4434492 8.86898%
BRANCH_DIRECT_CALL: 1108623 2.21725%
BRANCH_INDIRECT_CALL: 0 0%
BRANCH_RETURN: 1108623 2.21725%
BRANCH_OTHER: 0 0%

@sumon_overall_L1D         0         0         0         0         0         0         0
@Sumon_Early_by_class_L1D         0         0         0         0
@Sumon_Late_by_class_L1D         0         0         0         0

@Sumon_Early_by_cycle_L1D         0         0         0         0         0         0         0         0         0         0         0         0
@Sumon_Late_by_cycle_L1D         0         0         0         0         0         0
@Sumon_Early_stream_L1D         0         0         0         0         0         0         0         0         0         0         0         0
@Sumon_Early_CS_L1D         0         0         0         0         0         0         0         0         0         0         0         0
@Sumon_Early_CPLX_L1D         0         0         0         0         0         0         0         0         0         0         0         0
@Sumon_Late_stream_L1D         0         0         0         0         0         0
@Sumon_Late_CS_L1D         0         0         0         0         0         0
@Sumon_Late_CPLX_L1D         0         0         0         0         0         0
@sumon_overall_L2C      2163       916         0     11256     13431   1180256   1180256
@Sumon_Early_by_class_L2C         0         0         0         0
@Sumon_Late_by_class_L2C         0         0         0         0

@Sumon_Early_by_cycle_L2C      1200       331       197        44        19       118       143        76        22         1         1        11
@Sumon_Late_by_cycle_L2C        25        58        42       151       640         0
@Sumon_Early_stream_L2C         0         0         0         0         0         0         0         0         0         0         0         0
@Sumon_Early_CS_L2C         0         0         0         0         0         0         0         0         0         0         0         0
@Sumon_Early_CPLX_L2C         0         0         0         0         0         0         0         0         0         0         0         0
@Sumon_Late_stream_L2C         0         0         0         0         0         0
@Sumon_Late_CS_L2C         0         0         0         0         0         0
@Sumon_Late_CPLX_L2C         0         0         0         0         0         0
DRAM PAGES: 1048576
Allocated PAGES: 27016
