Initialize SIGNATURE TABLE
ST_SET: 1
ST_WAY: 256
ST_TAG_BIT: 16
ST_TAG_MASK: ffff

Initialize PATTERN TABLE
PT_SET: 512
PT_WAY: 4
SIG_DELTA_BIT: 7
C_SIG_BIT: 4
C_DELTA_BIT: 4

Initialize PREFETCH FILTER
FILTER_SET: 1024

*** ChampSim Multicore Out-of-Order Simulator ***

Warmup Instructions: 10000000
Simulation Instructions: 50000000
Number of CPUs: 1
LLC sets: 2048
LLC ways: 16
Off-chip DRAM Size: 4096 MB Channels: 1 Width: 64-bit Data Rate: 6400 MT/s
CPU 0 runs traces/SPEC2017/605.mcf_s-994B.champsimtrace.xz
.xz
CPU 0 Bimodal branch predictor
BTB has LRU replacement policy
ITLB has LRU replacement policy
DTLB has LRU replacement policy
STLB has LRU replacement policy
L1I has LRU replacement policy
L1D has LRU replacement policy
ST_WAYS: 256
PT_SETS: 512
L2C has LRU replacement policy
Initialize SRRIP state
Heartbeat CPU 0 instructions: 10000000 cycles: 3246625 heartbeat IPC: 3.08012 cumulative IPC: 3.08012 (Simulation time: 0 hr 9 min 21 sec) 

Warmup complete CPU 0 instructions: 10000004 cycles: 3246626 (Simulation time: 0 hr 9 min 21 sec) 

Heartbeat CPU 0 instructions: 20000000 cycles: 40549343 heartbeat IPC: 0.268077 cumulative IPC: 0.268077 (Simulation time: 0 hr 20 min 40 sec) 
Heartbeat CPU 0 instructions: 30000003 cycles: 80112647 heartbeat IPC: 0.25276 cumulative IPC: 0.260193 (Simulation time: 0 hr 31 min 59 sec) 
Heartbeat CPU 0 instructions: 40000001 cycles: 115919725 heartbeat IPC: 0.279274 cumulative IPC: 0.266257 (Simulation time: 0 hr 43 min 0 sec) 
Heartbeat CPU 0 instructions: 50000001 cycles: 209629478 heartbeat IPC: 0.106712 cumulative IPC: 0.193815 (Simulation time: 0 hr 55 min 42 sec) 
Heartbeat CPU 0 instructions: 60000000 cycles: 257534934 heartbeat IPC: 0.208744 cumulative IPC: 0.196627 (Simulation time: 1 hr 1 min 44 sec) 
Finished CPU 0 instructions: 50000000 cycles: 254288314 cumulative IPC: 0.196627 (Simulation time: 1 hr 1 min 44 sec) 

ChampSim completed all CPUs

Region of Interest Statistics

CPU 0 cumulative IPC: 0.196627 instructions: 50000000 cycles: 254288314
ITLB TOTAL     ACCESS:    8952575  HIT:    8952575  MISS:          0  HIT %:        100  MISS %:          0   MPKI: 0
ITLB LOAD TRANSLATION ACCESS:    8952575  HIT:    8952575  MISS:          0  HIT %:        100  MISS %:          0   MPKI: 0
ITLB PREFETCH  REQUESTED:          0  ISSUED:          0  USEFUL:          0  USELESS:          0
ITLB USEFUL LOAD PREFETCHES:          0 PREFETCH ISSUED TO LOWER LEVEL:          0  ACCURACY: -nan
ITLB TIMELY PREFETCHES:          0 LATE PREFETCHES: 0 DROPPED PREFETCHES: 0
ITLB PREFETCHES SAME FILL-ORIGIN LEVEL: 0 DIFFERENT FILL-ORIGIN LEVEL: 0
ITLB AVERAGE MISS LATENCY: -nan cycles
ITLB RQ	ACCESS:    9152208	FORWARD:          0	MERGED:     199635	TO_CACHE:    8952573

ITLB_Dead_block_count 0 0
ITLB_inaccurate_prefetch_count 0 0
Interactions: positive negative neutral
ITLB_interactions 0 0 0
ITLB_positive 0 0 0
ITLB_negative 0 0 0
ITLB_neutral 0 0 0 0 0 0
DTLB TOTAL     ACCESS:   16523120  HIT:   15789022  MISS:     734098  HIT %:    95.5571  MISS %:    4.44285   MPKI: 14.682
DTLB LOAD TRANSLATION ACCESS:   16523120  HIT:   15789022  MISS:     734098  HIT %:    95.5571  MISS %:    4.44285   MPKI: 14.682
DTLB PREFETCH  REQUESTED:          0  ISSUED:          0  USEFUL:          0  USELESS:          0
DTLB USEFUL LOAD PREFETCHES:          0 PREFETCH ISSUED TO LOWER LEVEL:          0  ACCURACY: -nan
DTLB TIMELY PREFETCHES:          0 LATE PREFETCHES: 0 DROPPED PREFETCHES: 0
DTLB PREFETCHES SAME FILL-ORIGIN LEVEL: 0 DIFFERENT FILL-ORIGIN LEVEL: 0
DTLB AVERAGE MISS LATENCY: 75.5974 cycles
DTLB RQ	ACCESS:   19375809	FORWARD:          0	MERGED:    2713400	TO_CACHE:   16662409

DTLB_Dead_block_count 734094 4
DTLB_inaccurate_prefetch_count 0 0
Interactions: positive negative neutral
DTLB_interactions 0 0 0
DTLB_positive 0 0 0
DTLB_negative 0 0 0
DTLB_neutral 0 0 0 0 0 0
STLB TOTAL     ACCESS:     734098  HIT:     361788  MISS:     372310  HIT %:    49.2833  MISS %:    50.7167   MPKI: 7.4462
STLB LOAD TRANSLATION ACCESS:     734098  HIT:     361788  MISS:     372310  HIT %:    49.2833  MISS %:    50.7167   MPKI: 7.4462
STLB PREFETCH  REQUESTED:          0  ISSUED:          0  USEFUL:          0  USELESS:          0
STLB USEFUL LOAD PREFETCHES:          0 PREFETCH ISSUED TO LOWER LEVEL:          0  ACCURACY: -nan
STLB TIMELY PREFETCHES:          0 LATE PREFETCHES: 0 DROPPED PREFETCHES: 0
STLB PREFETCHES SAME FILL-ORIGIN LEVEL: 0 DIFFERENT FILL-ORIGIN LEVEL: 0
STLB AVERAGE MISS LATENCY: 130.701 cycles
STLB RQ	ACCESS:     734098	FORWARD:          0	MERGED:          0	TO_CACHE:     734098

STLB_Dead_block_count 372306 4
STLB_inaccurate_prefetch_count 0 0
Interactions: positive negative neutral
STLB_interactions 0 0 0
STLB_positive 0 0 0
STLB_negative 0 0 0
STLB_neutral 0 0 0 0 0 0
STLB Hit, L1D data hit: 0
STLB Hit, L2C data hit: 0
STLB Hit, LLC data hit: 0
STLB Hit, LLC data miss: 0
STLB STLB hints to L2: 0
L1D TOTAL     ACCESS:   19314277  HIT:   17587645  MISS:    1726632  HIT %:    91.0603  MISS %:    8.93967   MPKI: 34.5326
L1D LOAD      ACCESS:   14239281  HIT:   12524464  MISS:    1714817  HIT %:    87.9571  MISS %:    12.0429   MPKI: 34.2963
L1D RFO       ACCESS:    5074996  HIT:    5063181  MISS:      11815  HIT %:    99.7672  MISS %:   0.232808   MPKI: 0.2363
L1D PREFETCH  REQUESTED:          0  ISSUED:          0  USEFUL:          0  USELESS:          0
L1D USEFUL LOAD PREFETCHES:          0 PREFETCH ISSUED TO LOWER LEVEL:          0  ACCURACY: -nan
L1D TIMELY PREFETCHES:          0 LATE PREFETCHES: 0 DROPPED PREFETCHES: 0
L1D PREFETCHES SAME FILL-ORIGIN LEVEL: 0 DIFFERENT FILL-ORIGIN LEVEL: 0
L1D AVERAGE MISS LATENCY: 116.225 cycles
L1D RQ	ACCESS:   17013992	FORWARD:          0	MERGED:    1601557	TO_CACHE:   14280679
L1D WQ	ACCESS:    5114926	FORWARD:    1131756	MERGED:      19796	TO_CACHE:    5095130

L1D_Dead_block_count 870 1713947
L1D_inaccurate_prefetch_count 0 0
Interactions: positive negative neutral
L1D_interactions 0 0 0
L1D_positive 0 0 0
L1D_negative 0 0 0
L1D_neutral 0 0 0 0 0 0
L1D UNIQUE REGIONS ACCESSED: 0
L1D REGIONS CONFLICTS: 0
L1D Cross Page Prefetch Requests: 0
L1D Same Page Prefetch Requests: 0
L1D ROI Sum of L1D PQ occupancy: 0
L1D PREFETCHES PUSHED FROM L2C: 0
L1I TOTAL     ACCESS:    9152210  HIT:    9152210  MISS:          0  HIT %:        100  MISS %:          0   MPKI: 0
L1I LOAD      ACCESS:    9152210  HIT:    9152210  MISS:          0  HIT %:        100  MISS %:          0   MPKI: 0
L1I PREFETCH  REQUESTED:          0  ISSUED:          0  USEFUL:          0  USELESS:          0
L1I USEFUL LOAD PREFETCHES:          0 PREFETCH ISSUED TO LOWER LEVEL:          0  ACCURACY: -nan
L1I TIMELY PREFETCHES:          0 LATE PREFETCHES: 0 DROPPED PREFETCHES: 0
L1I PREFETCHES SAME FILL-ORIGIN LEVEL: 0 DIFFERENT FILL-ORIGIN LEVEL: 0
L1I AVERAGE MISS LATENCY: -nan cycles
L1I RQ	ACCESS:   14774314	FORWARD:          0	MERGED:    5622106	TO_CACHE:    9152208

L1I_Dead_block_count 0 0
L1I_inaccurate_prefetch_count 0 0
Interactions: positive negative neutral
L1I_interactions 0 0 0
L1I_positive 0 0 0
L1I_negative 0 0 0
L1I_neutral 0 0 0 0 0 0
BTB TOTAL     ACCESS:   11195514  HIT:   10468271  MISS:     727243  HIT %:    93.5042  MISS %:    6.49584   MPKI: 14.5449
BTB BRANCH_DIRECT_JUMP	ACCESS:    1118881  HIT:    1118860  MISS:         21
BTB BRANCH_INDIRECT	ACCESS:          0  HIT:          0  MISS:          0
BTB BRANCH_CONDITIONAL	ACCESS:    6895963  HIT:    6895921  MISS:         42
BTB BRANCH_DIRECT_CALL	ACCESS:    1540838  HIT:    1540825  MISS:         13
BTB BRANCH_INDIRECT_CALL	ACCESS:      49500  HIT:      49492  MISS:          8
BTB BRANCH_RETURN	ACCESS:    1590332  HIT:     863173  MISS:     727159
BTB BRANCH_OTHER ACCESS:          0  HIT:          0  MISS:          0

L2C TOTAL     ACCESS:    2745920  HIT:    1500351  MISS:    1245569  HIT %:    54.6393  MISS %:    45.3607   MPKI: 24.9114
L2C LOAD      ACCESS:    1714814  HIT:     605625  MISS:    1109189  HIT %:    35.3172  MISS %:    64.6828   MPKI: 22.1838
L2C DATA LOAD MPKI: 22.1838
L2C INSTRUCTION LOAD MPKI: 0
L2C RFO       ACCESS:      11815  HIT:       9903  MISS:       1912  HIT %:    83.8172  MISS %:    16.1828   MPKI: 0.03824
L2C PREFETCH  ACCESS:     283396  HIT:     267082  MISS:      16314  HIT %:    94.2434  MISS %:    5.75661   MPKI: 0.32628
L2C DATA PREFETCH MPKI: 0.32628
L2C INSTRUCTION PREFETCH MPKI: 0
L2C WRITEBACK ACCESS:     127132  HIT:     126977  MISS:        155  HIT %:    99.8781  MISS %:   0.121921   MPKI: 0.0031
L2C LOAD TRANSLATION ACCESS:     608763  HIT:     490764  MISS:     117999  HIT %:    80.6166  MISS %:    19.3834   MPKI: 2.35998
L2C PREFETCH  REQUESTED:    1047248  ISSUED:    1047248  USEFUL:      11198  USELESS:       5087
L2C USEFUL LOAD PREFETCHES:      11198 PREFETCH ISSUED TO LOWER LEVEL:     719556  ACCURACY: 1.55624
L2C TIMELY PREFETCHES:      11198 LATE PREFETCHES: 5710 DROPPED PREFETCHES: 0
L2C PREFETCHES SAME FILL-ORIGIN LEVEL: 22024 DIFFERENT FILL-ORIGIN LEVEL: 697532
L2C AVERAGE MISS LATENCY: 158.379 cycles
L2C RQ	ACCESS:    2335395	FORWARD:          0	MERGED:          0	TO_CACHE:    2335392
L2C WQ	ACCESS:     127132	FORWARD:          3	MERGED:          0	TO_CACHE:     127132
L2C PQ	ACCESS:    1047248	FORWARD:          0	MERGED:       6745	TO_CACHE:    1040503

L2C_Dead_block_count 1100760 122630
L2C_inaccurate_prefetch_count 95074 624482
Interactions: positive negative neutral
L2C_interactions 13968 4019 3244
L2C_positive 13899 64 5
L2C_negative 191 3822 6
L2C_neutral 1525 674 529 357 1 158
L2C Instructions Evicting Data 0
L2C Translations Evicting Data 105800
L2C Data Evicting Data 1022370
L2C Instructions Evicting Instructions 0
L2C Translations Evicting Instructions 0
L2C Data Evicting Instructions 0
L2C Instructions Evicting Translations 0
L2C Translations Evicting Translations 12199
L2C Data Evicting Translations 105045
L2C Dense regions hint from L2: 0
PSCL5 TOTAL     ACCESS:     372310  HIT:     372310  MISS:          0  HIT %:        100  MISS %:          0   MPKI: 0
PSCL5 LOAD TRANSLATION ACCESS:     372310  HIT:     372310  MISS:          0  HIT %:        100  MISS %:          0   MPKI: 0
PSCL5 PREFETCH  REQUESTED:          0  ISSUED:          0  USEFUL:          0  USELESS:          0
PSCL5 USEFUL LOAD PREFETCHES:          0 PREFETCH ISSUED TO LOWER LEVEL:          0  ACCURACY: -nan
PSCL5 TIMELY PREFETCHES:          0 LATE PREFETCHES: 0 DROPPED PREFETCHES: 0
PSCL5 PREFETCHES SAME FILL-ORIGIN LEVEL: 0 DIFFERENT FILL-ORIGIN LEVEL: 0

PSCL5_Dead_block_count 0 0
PSCL5_inaccurate_prefetch_count 0 0
Interactions: positive negative neutral
PSCL5_interactions 0 0 0
PSCL5_positive 0 0 0
PSCL5_negative 0 0 0
PSCL5_neutral 0 0 0 0 0 0
PSCL4 TOTAL     ACCESS:     372310  HIT:     372310  MISS:          0  HIT %:        100  MISS %:          0   MPKI: 0
PSCL4 LOAD TRANSLATION ACCESS:     372310  HIT:     372310  MISS:          0  HIT %:        100  MISS %:          0   MPKI: 0
PSCL4 PREFETCH  REQUESTED:          0  ISSUED:          0  USEFUL:          0  USELESS:          0
PSCL4 USEFUL LOAD PREFETCHES:          0 PREFETCH ISSUED TO LOWER LEVEL:          0  ACCURACY: -nan
PSCL4 TIMELY PREFETCHES:          0 LATE PREFETCHES: 0 DROPPED PREFETCHES: 0
PSCL4 PREFETCHES SAME FILL-ORIGIN LEVEL: 0 DIFFERENT FILL-ORIGIN LEVEL: 0

PSCL4_Dead_block_count 0 0
PSCL4_inaccurate_prefetch_count 0 0
Interactions: positive negative neutral
PSCL4_interactions 0 0 0
PSCL4_positive 0 0 0
PSCL4_negative 0 0 0
PSCL4_neutral 0 0 0 0 0 0
PSCL3 TOTAL     ACCESS:     372310  HIT:     372310  MISS:          0  HIT %:        100  MISS %:          0   MPKI: 0
PSCL3 LOAD TRANSLATION ACCESS:     372310  HIT:     372310  MISS:          0  HIT %:        100  MISS %:          0   MPKI: 0
PSCL3 PREFETCH  REQUESTED:          0  ISSUED:          0  USEFUL:          0  USELESS:          0
PSCL3 USEFUL LOAD PREFETCHES:          0 PREFETCH ISSUED TO LOWER LEVEL:          0  ACCURACY: -nan
PSCL3 TIMELY PREFETCHES:          0 LATE PREFETCHES: 0 DROPPED PREFETCHES: 0
PSCL3 PREFETCHES SAME FILL-ORIGIN LEVEL: 0 DIFFERENT FILL-ORIGIN LEVEL: 0

PSCL3_Dead_block_count 0 0
PSCL3_inaccurate_prefetch_count 0 0
Interactions: positive negative neutral
PSCL3_interactions 0 0 0
PSCL3_positive 0 0 0
PSCL3_negative 0 0 0
PSCL3_neutral 0 0 0 0 0 0
PSCL2 TOTAL     ACCESS:     372310  HIT:     135347  MISS:     236963  HIT %:    36.3533  MISS %:    63.6467   MPKI: 4.73926
PSCL2 LOAD TRANSLATION ACCESS:     372310  HIT:     135347  MISS:     236963  HIT %:    36.3533  MISS %:    63.6467   MPKI: 4.73926
PSCL2 PREFETCH  REQUESTED:          0  ISSUED:          0  USEFUL:          0  USELESS:          0
PSCL2 USEFUL LOAD PREFETCHES:          0 PREFETCH ISSUED TO LOWER LEVEL:          0  ACCURACY: -nan
PSCL2 TIMELY PREFETCHES:          0 LATE PREFETCHES: 0 DROPPED PREFETCHES: 0
PSCL2 PREFETCHES SAME FILL-ORIGIN LEVEL: 0 DIFFERENT FILL-ORIGIN LEVEL: 0

PSCL2_Dead_block_count 0 0
PSCL2_inaccurate_prefetch_count 0 0
Interactions: positive negative neutral
PSCL2_interactions 0 0 0
PSCL2_positive 0 0 0
PSCL2_negative 0 0 0
PSCL2_neutral 0 0 0 0 0 0
LLC TOTAL     ACCESS:    1945234  HIT:     508725  MISS:    1436509  HIT %:    26.1524  MISS %:    73.8476   MPKI: 28.7302
LLC LOAD      ACCESS:    1103479  HIT:     248441  MISS:     855038  HIT %:    22.5143  MISS %:    77.4857   MPKI: 17.1008
LLC RFO       ACCESS:       1912  HIT:       1614  MISS:        298  HIT %:    84.4142  MISS %:    15.5858   MPKI: 0.00596
LLC PREFETCH  ACCESS:     639977  HIT:     225362  MISS:     414615  HIT %:    35.2141  MISS %:    64.7859   MPKI: 8.2923
LLC WRITEBACK ACCESS:      81867  HIT:      18483  MISS:      63384  HIT %:    22.5769  MISS %:    77.4231   MPKI: 1.26768
LLC LOAD TRANSLATION ACCESS:     117999  HIT:      14825  MISS:     103174  HIT %:    12.5637  MISS %:    87.4363   MPKI: 2.06348
LLC PREFETCH  REQUESTED:          0  ISSUED:          0  USEFUL:     102699  USELESS:     298493
LLC USEFUL LOAD PREFETCHES:     102699 PREFETCH ISSUED TO LOWER LEVEL:     481817  ACCURACY: 21.3149
LLC TIMELY PREFETCHES:     102699 LATE PREFETCHES: 67202 DROPPED PREFETCHES: 0
LLC PREFETCHES SAME FILL-ORIGIN LEVEL: 474731 DIFFERENT FILL-ORIGIN LEVEL: 0
LLC AVERAGE MISS LATENCY: 159.322 cycles
LLC RQ	ACCESS:    1223390	FORWARD:          0	MERGED:          0	TO_CACHE:    1223390
LLC WQ	ACCESS:      81867	FORWARD:          0	MERGED:          0	TO_CACHE:      81867
LLC PQ	ACCESS:     719556	FORWARD:          0	MERGED:       4348	TO_CACHE:     715208

LLC_Dead_block_count 682057 209251
LLC_inaccurate_prefetch_count 249970 231847
Interactions: positive negative neutral
LLC_interactions 162097 103020 320865
LLC_positive 136803 6985 18309
LLC_negative 19800 64815 18405
LLC_neutral 12525 2059 126354 97508 65703 16716
LLC Dense regions hint to LLC: 0

RAW hits: 401993
Loads Generated: 17415986
Loads sent to L1D: 17013992
Stores Generated: 5114922
Stores sent to L1D: 5114926
Major fault: 0 Minor fault: 119985
Allocated PAGES: 119985
 All Calls: 1991393
 Critical Calls: 1991393
------------------
Depth Distribution
------------------
depth 0: 0
depth 1: 1041807
depth 2: 163226
depth 3: 15446
depth 4: 1822
depth 5: 541
depth 6: 58
depth 7: 12
depth 8: 7
depth 9: 3
depth 10: 2
depth 11: 1
depth 12: 1
depth 13: 0
depth 14: 0
depth 15: 0
depth 16: 0
depth 17: 0
depth 18: 0
depth 19: 0
depth 20: 0
depth 21: 0
depth 22: 0
depth 23: 0
depth 24: 0
depth 25: 0
depth 26: 0
depth 27: 0
depth 28: 0
depth 29: 0
Total: 1222926
-----------------------------
-----------------------------
	Captured at Filter
-----------------------------
depth 0: 0
depth 1: 14485
depth 2: 1553
depth 3: 244
depth 4: 59
depth 5: 15
depth 6: 0
depth 7: 0
depth 8: 0
depth 9: 0
depth 10: 0
depth 11: 0
depth 12: 0
depth 13: 0
depth 14: 0
depth 15: 0
depth 16: 0
depth 17: 0
depth 18: 0
depth 19: 0
depth 20: 0
depth 21: 0
depth 22: 0
depth 23: 0
depth 24: 0
depth 25: 0
depth 26: 0
depth 27: 0
depth 28: 0
depth 29: 0
-----------------------------
-----------------------------
		Lost at Page
-----------------------------
depth 0: 0
depth 1: 18231
depth 2: 4862
depth 3: 766
depth 4: 114
depth 5: 58
depth 6: 9
depth 7: 2
depth 8: 0
depth 9: 0
depth 10: 0
depth 11: 0
depth 12: 0
depth 13: 0
depth 14: 0
depth 15: 0
depth 16: 0
depth 17: 0
depth 18: 0
depth 19: 0
depth 20: 0
depth 21: 0
depth 22: 0
depth 23: 0
depth 24: 0
depth 25: 0
depth 26: 0
depth 27: 0
depth 28: 0
depth 29: 0
-----------------------------
-----------------------------
	Lost due to PQ Size
-----------------------------
0
-----------------------------
ST read accesses: 1206057
ST write accesses: 508757
PT read accesses: 15997956
PT write accesses: 1283602
FILTER read accesses: 4022472
FILTER write accesses: 1326145
GHR read accesses: 4267034
GHR write accesses: 20796
GHR counter read accesses: 14531344
GHR counter write accesses: 1781261
ST tag read accesses: 919721592
ST tag write accesses: 156707951

DRAM Statistics
 CHANNEL 0
 RQ ROW_BUFFER_HIT:     163373  ROW_BUFFER_MISS:    1209752
 DBUS_CONGESTED:        134
 WQ ROW_BUFFER_HIT:      20085  ROW_BUFFER_MISS:      51828  FULL:          0

 AVG_CONGESTED_CYCLE: 4
 All warmup complete: 2
Channel 0 Bank busy for read cycles: 0
Channel 0 Bank busy for write cycles: 0
Channel 0
Rank 0
0banks busy for read cycles: 131981978
0banks busy for write cycles: 55936
1banks busy for read cycles: 59093378
1banks busy for write cycles: 10247657
2banks busy for read cycles: 31233067
2banks busy for write cycles: 1850250
3banks busy for read cycles: 12749969
3banks busy for write cycles: 307574
4banks busy for read cycles: 4485018
4banks busy for write cycles: 55672
5banks busy for read cycles: 1572059
5banks busy for write cycles: 12362
6banks busy for read cycles: 491461
6banks busy for write cycles: 1263
7banks busy for read cycles: 128657
7banks busy for write cycles: 346
8banks busy for read cycles: 21668
8banks busy for write cycles: 0

CPU 0 Branch Prediction Accuracy: 92.7543% MPKI: 18.162 Average ROB Occupancy at Mispredict: 16.5941
Branch types
NOT_BRANCH: 37466601 74.9332%
BRANCH_DIRECT_JUMP: 1118881 2.23776%
BRANCH_INDIRECT: 0 0%
BRANCH_CONDITIONAL: 8233493 16.467%
BRANCH_DIRECT_CALL: 1540838 3.08168%
BRANCH_INDIRECT_CALL: 49500 0.099%
BRANCH_RETURN: 1590332 3.18066%
BRANCH_OTHER: 0 0%

@sumon_overall_L1D         0         0         0         0         0         0         0
@Sumon_Early_by_class_L1D         0         0         0         0
@Sumon_Late_by_class_L1D         0         0         0         0

@Sumon_Early_by_cycle_L1D         0         0         0         0         0         0         0         0         0         0         0         0
@Sumon_Late_by_cycle_L1D         0         0         0         0         0         0
@Sumon_Early_stream_L1D         0         0         0         0         0         0         0         0         0         0         0         0
@Sumon_Early_CS_L1D         0         0         0         0         0         0         0         0         0         0         0         0
@Sumon_Early_CPLX_L1D         0         0         0         0         0         0         0         0         0         0         0         0
@Sumon_Late_stream_L1D         0         0         0         0         0         0
@Sumon_Late_CS_L1D         0         0         0         0         0         0
@Sumon_Late_CPLX_L1D         0         0         0         0         0         0
@sumon_overall_L2C     11198      5710         0      5087     16314   1047248   1047248
@Sumon_Early_by_class_L2C         0         0         0         0
@Sumon_Late_by_class_L2C         0         0         0         0

@Sumon_Early_by_cycle_L2C       492       314       378       179       198      2403      5006      2179        28         7         3        11
@Sumon_Late_by_cycle_L2C       153      2250       181       256      2868         2
@Sumon_Early_stream_L2C         0         0         0         0         0         0         0         0         0         0         0         0
@Sumon_Early_CS_L2C         0         0         0         0         0         0         0         0         0         0         0         0
@Sumon_Early_CPLX_L2C         0         0         0         0         0         0         0         0         0         0         0         0
@Sumon_Late_stream_L2C         0         0         0         0         0         0
@Sumon_Late_CS_L2C         0         0         0         0         0         0
@Sumon_Late_CPLX_L2C         0         0         0         0         0         0
DRAM PAGES: 1048576
Allocated PAGES: 119985
