Initialize SIGNATURE TABLE
ST_SET: 1
ST_WAY: 256
ST_TAG_BIT: 16
ST_TAG_MASK: ffff

Initialize PATTERN TABLE
PT_SET: 512
PT_WAY: 4
SIG_DELTA_BIT: 7
C_SIG_BIT: 4
C_DELTA_BIT: 4

Initialize PREFETCH FILTER
FILTER_SET: 1024

*** ChampSim Multicore Out-of-Order Simulator ***

Warmup Instructions: 10000000
Simulation Instructions: 50000000
Number of CPUs: 1
LLC sets: 2048
LLC ways: 16
Off-chip DRAM Size: 4096 MB Channels: 1 Width: 64-bit Data Rate: 6400 MT/s
CPU 0 runs traces/SPEC2017/619.lbm_s-2677B.champsimtrace.xz
.xz
CPU 0 Bimodal branch predictor
BTB has LRU replacement policy
ITLB has LRU replacement policy
DTLB has LRU replacement policy
STLB has LRU replacement policy
L1I has LRU replacement policy
L1D has LRU replacement policy
ST_WAYS: 256
PT_SETS: 512
L2C has LRU replacement policy
Initialize SRRIP state
Heartbeat CPU 0 instructions: 10000001 cycles: 2919919 heartbeat IPC: 3.42475 cumulative IPC: 3.42475 (Simulation time: 0 hr 8 min 13 sec) 

Warmup complete CPU 0 instructions: 10000001 cycles: 2919919 (Simulation time: 0 hr 8 min 13 sec) 

Heartbeat CPU 0 instructions: 20000002 cycles: 22528236 heartbeat IPC: 0.509988 cumulative IPC: 0.509988 (Simulation time: 0 hr 26 min 28 sec) 
Heartbeat CPU 0 instructions: 30000000 cycles: 42419484 heartbeat IPC: 0.502734 cumulative IPC: 0.506335 (Simulation time: 0 hr 44 min 54 sec) 
Heartbeat CPU 0 instructions: 40000002 cycles: 62115546 heartbeat IPC: 0.507716 cumulative IPC: 0.506794 (Simulation time: 0 hr 58 min 41 sec) 
Heartbeat CPU 0 instructions: 50000002 cycles: 82046921 heartbeat IPC: 0.501722 cumulative IPC: 0.505516 (Simulation time: 1 hr 4 min 44 sec) 
Heartbeat CPU 0 instructions: 60000001 cycles: 101766987 heartbeat IPC: 0.507098 cumulative IPC: 0.505832 (Simulation time: 1 hr 8 min 19 sec) 
Finished CPU 0 instructions: 50000000 cycles: 98847068 cumulative IPC: 0.505832 (Simulation time: 1 hr 8 min 19 sec) 

ChampSim completed all CPUs

Region of Interest Statistics

CPU 0 cumulative IPC: 0.505832 instructions: 50000000 cycles: 98847068
ITLB TOTAL     ACCESS:    6711243  HIT:    6711243  MISS:          0  HIT %:        100  MISS %:          0   MPKI: 0
ITLB LOAD TRANSLATION ACCESS:    6711243  HIT:    6711243  MISS:          0  HIT %:        100  MISS %:          0   MPKI: 0
ITLB PREFETCH  REQUESTED:          0  ISSUED:          0  USEFUL:          0  USELESS:          0
ITLB USEFUL LOAD PREFETCHES:          0 PREFETCH ISSUED TO LOWER LEVEL:          0  ACCURACY: -nan
ITLB TIMELY PREFETCHES:          0 LATE PREFETCHES: 0 DROPPED PREFETCHES: 0
ITLB PREFETCHES SAME FILL-ORIGIN LEVEL: 0 DIFFERENT FILL-ORIGIN LEVEL: 0
ITLB AVERAGE MISS LATENCY: -nan cycles
ITLB RQ	ACCESS:    8669630	FORWARD:          0	MERGED:    1958388	TO_CACHE:    6711242

ITLB_Dead_block_count 0 0
ITLB_inaccurate_prefetch_count 0 0
Interactions: positive negative neutral
ITLB_interactions 0 0 0
ITLB_positive 0 0 0
ITLB_negative 0 0 0
ITLB_neutral 0 0 0 0 0 0
DTLB TOTAL     ACCESS:    9640911  HIT:    9572895  MISS:      68016  HIT %:    99.2945  MISS %:   0.705493   MPKI: 1.36032
DTLB LOAD TRANSLATION ACCESS:    9640911  HIT:    9572895  MISS:      68016  HIT %:    99.2945  MISS %:   0.705493   MPKI: 1.36032
DTLB PREFETCH  REQUESTED:          0  ISSUED:          0  USEFUL:          0  USELESS:          0
DTLB USEFUL LOAD PREFETCHES:          0 PREFETCH ISSUED TO LOWER LEVEL:          0  ACCURACY: -nan
DTLB TIMELY PREFETCHES:          0 LATE PREFETCHES: 0 DROPPED PREFETCHES: 0
DTLB PREFETCHES SAME FILL-ORIGIN LEVEL: 0 DIFFERENT FILL-ORIGIN LEVEL: 0
DTLB AVERAGE MISS LATENCY: 113.353 cycles
DTLB RQ	ACCESS:   14164536	FORWARD:          0	MERGED:    4497191	TO_CACHE:    9667345

DTLB_Dead_block_count 68012 4
DTLB_inaccurate_prefetch_count 0 0
Interactions: positive negative neutral
DTLB_interactions 0 0 0
DTLB_positive 0 0 0
DTLB_negative 0 0 0
DTLB_neutral 0 0 0 0 0 0
STLB TOTAL     ACCESS:      68016  HIT:      31108  MISS:      36908  HIT %:    45.7363  MISS %:    54.2637   MPKI: 0.73816
STLB LOAD TRANSLATION ACCESS:      68016  HIT:      31108  MISS:      36908  HIT %:    45.7363  MISS %:    54.2637   MPKI: 0.73816
STLB PREFETCH  REQUESTED:          0  ISSUED:          0  USEFUL:          0  USELESS:          0
STLB USEFUL LOAD PREFETCHES:          0 PREFETCH ISSUED TO LOWER LEVEL:          0  ACCURACY: -nan
STLB TIMELY PREFETCHES:          0 LATE PREFETCHES: 0 DROPPED PREFETCHES: 0
STLB PREFETCHES SAME FILL-ORIGIN LEVEL: 0 DIFFERENT FILL-ORIGIN LEVEL: 0
STLB AVERAGE MISS LATENCY: 191.867 cycles
STLB RQ	ACCESS:      68016	FORWARD:          0	MERGED:          0	TO_CACHE:      68016

STLB_Dead_block_count 36904 4
STLB_inaccurate_prefetch_count 0 0
Interactions: positive negative neutral
STLB_interactions 0 0 0
STLB_positive 0 0 0
STLB_negative 0 0 0
STLB_neutral 0 0 0 0 0 0
STLB Hit, L1D data hit: 0
STLB Hit, L2C data hit: 0
STLB Hit, LLC data hit: 0
STLB Hit, LLC data miss: 0
STLB STLB hints to L2: 0
L1D TOTAL     ACCESS:   13956663  HIT:   10060330  MISS:    3896333  HIT %:    72.0826  MISS %:    27.9174   MPKI: 77.9267
L1D LOAD      ACCESS:    4931209  HIT:    4340823  MISS:     590386  HIT %:    88.0276  MISS %:    11.9724   MPKI: 11.8077
L1D RFO       ACCESS:    9025454  HIT:    5719507  MISS:    3305947  HIT %:    63.3709  MISS %:    36.6291   MPKI: 66.1189
L1D PREFETCH  REQUESTED:          0  ISSUED:          0  USEFUL:          0  USELESS:          0
L1D USEFUL LOAD PREFETCHES:          0 PREFETCH ISSUED TO LOWER LEVEL:          0  ACCURACY: -nan
L1D TIMELY PREFETCHES:          0 LATE PREFETCHES: 0 DROPPED PREFETCHES: 0
L1D PREFETCHES SAME FILL-ORIGIN LEVEL: 0 DIFFERENT FILL-ORIGIN LEVEL: 0
L1D AVERAGE MISS LATENCY: 322.053 cycles
L1D RQ	ACCESS:   12167416	FORWARD:          0	MERGED:    6526492	TO_CACHE:    5088479
L1D WQ	ACCESS:    9189247	FORWARD:     552445	MERGED:     113190	TO_CACHE:    9076057

L1D_Dead_block_count 213316 377068
L1D_inaccurate_prefetch_count 0 0
Interactions: positive negative neutral
L1D_interactions 0 0 0
L1D_positive 0 0 0
L1D_negative 0 0 0
L1D_neutral 0 0 0 0 0 0
L1D UNIQUE REGIONS ACCESSED: 0
L1D REGIONS CONFLICTS: 0
L1D Cross Page Prefetch Requests: 0
L1D Same Page Prefetch Requests: 0
L1D ROI Sum of L1D PQ occupancy: 0
L1D PREFETCHES PUSHED FROM L2C: 0
L1I TOTAL     ACCESS:    8669631  HIT:    8669631  MISS:          0  HIT %:        100  MISS %:          0   MPKI: 0
L1I LOAD      ACCESS:    8669631  HIT:    8669631  MISS:          0  HIT %:        100  MISS %:          0   MPKI: 0
L1I PREFETCH  REQUESTED:          0  ISSUED:          0  USEFUL:          0  USELESS:          0
L1I USEFUL LOAD PREFETCHES:          0 PREFETCH ISSUED TO LOWER LEVEL:          0  ACCURACY: -nan
L1I TIMELY PREFETCHES:          0 LATE PREFETCHES: 0 DROPPED PREFETCHES: 0
L1I PREFETCHES SAME FILL-ORIGIN LEVEL: 0 DIFFERENT FILL-ORIGIN LEVEL: 0
L1I AVERAGE MISS LATENCY: -nan cycles
L1I RQ	ACCESS:   12459915	FORWARD:          0	MERGED:    3790285	TO_CACHE:    8669630

L1I_Dead_block_count 0 0
L1I_inaccurate_prefetch_count 0 0
Interactions: positive negative neutral
L1I_interactions 0 0 0
L1I_positive 0 0 0
L1I_negative 0 0 0
L1I_neutral 0 0 0 0 0 0
BTB TOTAL     ACCESS:     892810  HIT:     892804  MISS:          6  HIT %:    99.9993  MISS %: 0.000672035   MPKI: 0.00012
BTB BRANCH_DIRECT_JUMP	ACCESS:     143919  HIT:     143918  MISS:          1
BTB BRANCH_INDIRECT	ACCESS:          0  HIT:          0  MISS:          0
BTB BRANCH_CONDITIONAL	ACCESS:     748891  HIT:     748886  MISS:          5
BTB BRANCH_DIRECT_CALL	ACCESS:          0  HIT:          0  MISS:          0
BTB BRANCH_INDIRECT_CALL	ACCESS:          0  HIT:          0  MISS:          0
BTB BRANCH_RETURN	ACCESS:          0  HIT:          0  MISS:          0
BTB BRANCH_OTHER ACCESS:          0  HIT:          0  MISS:          0

L2C TOTAL     ACCESS:    7341353  HIT:    4944628  MISS:    2396725  HIT %:    67.3531  MISS %:    32.6469   MPKI: 47.9345
L2C LOAD      ACCESS:     590384  HIT:     100390  MISS:     489994  HIT %:    17.0042  MISS %:    82.9958   MPKI: 9.79988
L2C DATA LOAD MPKI: 9.79988
L2C INSTRUCTION LOAD MPKI: 0
L2C RFO       ACCESS:    3305946  HIT:    1504373  MISS:    1801573  HIT %:    45.5051  MISS %:    54.4949   MPKI: 36.0315
L2C PREFETCH  ACCESS:     102166  HIT:       1779  MISS:     100387  HIT %:    1.74128  MISS %:    98.2587   MPKI: 2.00774
L2C DATA PREFETCH MPKI: 2.00774
L2C INSTRUCTION PREFETCH MPKI: 0
L2C WRITEBACK ACCESS:    3305947  HIT:    3305838  MISS:        109  HIT %:    99.9967  MISS %: 0.00329709   MPKI: 0.00218
L2C LOAD TRANSLATION ACCESS:      36910  HIT:      32248  MISS:       4662  HIT %:    87.3693  MISS %:    12.6307   MPKI: 0.09324
L2C PREFETCH  REQUESTED:    3669689  ISSUED:    3669689  USEFUL:     100386  USELESS:          0
L2C USEFUL LOAD PREFETCHES:     100386 PREFETCH ISSUED TO LOWER LEVEL:    2017121  ACCURACY: 4.9767
L2C TIMELY PREFETCHES:     100386 LATE PREFETCHES: 78579 DROPPED PREFETCHES: 0
L2C PREFETCHES SAME FILL-ORIGIN LEVEL: 178966 DIFFERENT FILL-ORIGIN LEVEL: 1838155
L2C AVERAGE MISS LATENCY: 502.89 cycles
L2C RQ	ACCESS:    3933248	FORWARD:          0	MERGED:          0	TO_CACHE:    3933247
L2C WQ	ACCESS:    3305949	FORWARD:          1	MERGED:          0	TO_CACHE:    3305949
L2C PQ	ACCESS:    3669689	FORWARD:          0	MERGED:    1437434	TO_CACHE:    2232255

L2C_Dead_block_count 612970 1604690
L2C_inaccurate_prefetch_count 0 2017121
Interactions: positive negative neutral
L2C_interactions 35293 0 65094
L2C_positive 35293 0 0
L2C_negative 0 0 0
L2C_neutral 65094 0 0 0 0 0
L2C Instructions Evicting Data 0
L2C Translations Evicting Data 4643
L2C Data Evicting Data 2387327
L2C Instructions Evicting Instructions 0
L2C Translations Evicting Instructions 0
L2C Data Evicting Instructions 0
L2C Instructions Evicting Translations 0
L2C Translations Evicting Translations 19
L2C Data Evicting Translations 4627
L2C Dense regions hint from L2: 0
PSCL5 TOTAL     ACCESS:      36908  HIT:      36908  MISS:          0  HIT %:        100  MISS %:          0   MPKI: 0
PSCL5 LOAD TRANSLATION ACCESS:      36908  HIT:      36908  MISS:          0  HIT %:        100  MISS %:          0   MPKI: 0
PSCL5 PREFETCH  REQUESTED:          0  ISSUED:          0  USEFUL:          0  USELESS:          0
PSCL5 USEFUL LOAD PREFETCHES:          0 PREFETCH ISSUED TO LOWER LEVEL:          0  ACCURACY: -nan
PSCL5 TIMELY PREFETCHES:          0 LATE PREFETCHES: 0 DROPPED PREFETCHES: 0
PSCL5 PREFETCHES SAME FILL-ORIGIN LEVEL: 0 DIFFERENT FILL-ORIGIN LEVEL: 0

PSCL5_Dead_block_count 0 0
PSCL5_inaccurate_prefetch_count 0 0
Interactions: positive negative neutral
PSCL5_interactions 0 0 0
PSCL5_positive 0 0 0
PSCL5_negative 0 0 0
PSCL5_neutral 0 0 0 0 0 0
PSCL4 TOTAL     ACCESS:      36908  HIT:      36908  MISS:          0  HIT %:        100  MISS %:          0   MPKI: 0
PSCL4 LOAD TRANSLATION ACCESS:      36908  HIT:      36908  MISS:          0  HIT %:        100  MISS %:          0   MPKI: 0
PSCL4 PREFETCH  REQUESTED:          0  ISSUED:          0  USEFUL:          0  USELESS:          0
PSCL4 USEFUL LOAD PREFETCHES:          0 PREFETCH ISSUED TO LOWER LEVEL:          0  ACCURACY: -nan
PSCL4 TIMELY PREFETCHES:          0 LATE PREFETCHES: 0 DROPPED PREFETCHES: 0
PSCL4 PREFETCHES SAME FILL-ORIGIN LEVEL: 0 DIFFERENT FILL-ORIGIN LEVEL: 0

PSCL4_Dead_block_count 0 0
PSCL4_inaccurate_prefetch_count 0 0
Interactions: positive negative neutral
PSCL4_interactions 0 0 0
PSCL4_positive 0 0 0
PSCL4_negative 0 0 0
PSCL4_neutral 0 0 0 0 0 0
PSCL3 TOTAL     ACCESS:      36908  HIT:      36908  MISS:          0  HIT %:        100  MISS %:          0   MPKI: 0
PSCL3 LOAD TRANSLATION ACCESS:      36908  HIT:      36908  MISS:          0  HIT %:        100  MISS %:          0   MPKI: 0
PSCL3 PREFETCH  REQUESTED:          0  ISSUED:          0  USEFUL:          0  USELESS:          0
PSCL3 USEFUL LOAD PREFETCHES:          0 PREFETCH ISSUED TO LOWER LEVEL:          0  ACCURACY: -nan
PSCL3 TIMELY PREFETCHES:          0 LATE PREFETCHES: 0 DROPPED PREFETCHES: 0
PSCL3 PREFETCHES SAME FILL-ORIGIN LEVEL: 0 DIFFERENT FILL-ORIGIN LEVEL: 0

PSCL3_Dead_block_count 0 0
PSCL3_inaccurate_prefetch_count 0 0
Interactions: positive negative neutral
PSCL3_interactions 0 0 0
PSCL3_positive 0 0 0
PSCL3_negative 0 0 0
PSCL3_neutral 0 0 0 0 0 0
PSCL2 TOTAL     ACCESS:      36908  HIT:      36870  MISS:         38  HIT %:     99.897  MISS %:   0.102959   MPKI: 0.00076
PSCL2 LOAD TRANSLATION ACCESS:      36908  HIT:      36870  MISS:         38  HIT %:     99.897  MISS %:   0.102959   MPKI: 0.00076
PSCL2 PREFETCH  REQUESTED:          0  ISSUED:          0  USEFUL:          0  USELESS:          0
PSCL2 USEFUL LOAD PREFETCHES:          0 PREFETCH ISSUED TO LOWER LEVEL:          0  ACCURACY: -nan
PSCL2 TIMELY PREFETCHES:          0 LATE PREFETCHES: 0 DROPPED PREFETCHES: 0
PSCL2 PREFETCHES SAME FILL-ORIGIN LEVEL: 0 DIFFERENT FILL-ORIGIN LEVEL: 0

PSCL2_Dead_block_count 0 0
PSCL2_inaccurate_prefetch_count 0 0
Interactions: positive negative neutral
PSCL2_interactions 0 0 0
PSCL2_positive 0 0 0
PSCL2_negative 0 0 0
PSCL2_neutral 0 0 0 0 0 0
LLC TOTAL     ACCESS:    5175921  HIT:    1167199  MISS:    4008722  HIT %:    22.5506  MISS %:    77.4494   MPKI: 80.1744
LLC LOAD      ACCESS:     411415  HIT:     307719  MISS:     103696  HIT %:    74.7953  MISS %:    25.2047   MPKI: 2.07392
LLC RFO       ACCESS:    1801572  HIT:      41514  MISS:    1760058  HIT %:    2.30432  MISS %:    97.6957   MPKI: 35.2012
LLC PREFETCH  ACCESS:    1157371  HIT:     670718  MISS:     486653  HIT %:    57.9519  MISS %:    42.0481   MPKI: 9.73306
LLC WRITEBACK ACCESS:    1800901  HIT:     147233  MISS:    1653668  HIT %:    8.17552  MISS %:    91.8245   MPKI: 33.0734
LLC LOAD TRANSLATION ACCESS:       4662  HIT:         15  MISS:       4647  HIT %:    0.32175  MISS %:    99.6782   MPKI: 0.09294
LLC PREFETCH  REQUESTED:          0  ISSUED:          0  USEFUL:     307667  USELESS:     177512
LLC USEFUL LOAD PREFETCHES:     307667 PREFETCH ISSUED TO LOWER LEVEL:     566559  ACCURACY: 54.3045
LLC TIMELY PREFETCHES:     307667 LATE PREFETCHES: 79901 DROPPED PREFETCHES: 0
LLC PREFETCHES SAME FILL-ORIGIN LEVEL: 559555 DIFFERENT FILL-ORIGIN LEVEL: 0
LLC AVERAGE MISS LATENCY: 340.221 cycles
LLC RQ	ACCESS:    2217660	FORWARD:          0	MERGED:          0	TO_CACHE:    2217659
LLC WQ	ACCESS:    1800903	FORWARD:          1	MERGED:          0	TO_CACHE:    1800903
LLC PQ	ACCESS:    2017121	FORWARD:          0	MERGED:     219127	TO_CACHE:    1797994

LLC_Dead_block_count 1439272 349239
LLC_inaccurate_prefetch_count 5407 561152
Interactions: positive negative neutral
LLC_interactions 161211 58990 333651
LLC_positive 160875 128 208
LLC_negative 2523 56045 422
LLC_neutral 302562 10341 1645 685 2 18416
LLC Dense regions hint to LLC: 0

RAW hits: 854176
Loads Generated: 13021592
Loads sent to L1D: 12167416
Stores Generated: 9189245
Stores sent to L1D: 9189247
Major fault: 0 Minor fault: 25372
Allocated PAGES: 25372
 All Calls: 709307
 Critical Calls: 709307
------------------
Depth Distribution
------------------
depth 0: 0
depth 1: 777976
depth 2: 755232
depth 3: 722743
depth 4: 685174
depth 5: 635071
depth 6: 456673
depth 7: 278220
depth 8: 156980
depth 9: 71768
depth 10: 16966
depth 11: 3127
depth 12: 723
depth 13: 128
depth 14: 5
depth 15: 0
depth 16: 0
depth 17: 0
depth 18: 0
depth 19: 0
depth 20: 0
depth 21: 0
depth 22: 0
depth 23: 0
depth 24: 0
depth 25: 0
depth 26: 0
depth 27: 0
depth 28: 0
depth 29: 0
Total: 4560786
-----------------------------
-----------------------------
	Captured at Filter
-----------------------------
depth 0: 0
depth 1: 4557
depth 2: 2713
depth 3: 1634
depth 4: 1378
depth 5: 1224
depth 6: 907
depth 7: 539
depth 8: 316
depth 9: 147
depth 10: 45
depth 11: 10
depth 12: 1
depth 13: 1
depth 14: 0
depth 15: 0
depth 16: 0
depth 17: 0
depth 18: 0
depth 19: 0
depth 20: 0
depth 21: 0
depth 22: 0
depth 23: 0
depth 24: 0
depth 25: 0
depth 26: 0
depth 27: 0
depth 28: 0
depth 29: 0
-----------------------------
-----------------------------
		Lost at Page
-----------------------------
depth 0: 0
depth 1: 22521
depth 2: 24055
depth 3: 34874
depth 4: 43838
depth 5: 52049
depth 6: 46349
depth 7: 35446
depth 8: 25564
depth 9: 15090
depth 10: 4469
depth 11: 958
depth 12: 260
depth 13: 49
depth 14: 0
depth 15: 0
depth 16: 0
depth 17: 0
depth 18: 0
depth 19: 0
depth 20: 0
depth 21: 0
depth 22: 0
depth 23: 0
depth 24: 0
depth 25: 0
depth 26: 0
depth 27: 0
depth 28: 0
depth 29: 0
-----------------------------
-----------------------------
	Lost due to PQ Size
-----------------------------
29028
-----------------------------
ST read accesses: 581147
ST write accesses: 9237
PT read accesses: 21184978
PT write accesses: 870620
FILTER read accesses: 6667247
FILTER write accesses: 3004807
GHR read accesses: 1273229
GHR write accesses: 234104
GHR counter read accesses: 17995128
GHR counter write accesses: 1196563
ST tag read accesses: 231664446
ST tag write accesses: 2949780

DRAM Statistics
 CHANNEL 0
 RQ ROW_BUFFER_HIT:     184083  ROW_BUFFER_MISS:    2170656
 DBUS_CONGESTED:          0
 WQ ROW_BUFFER_HIT:     382131  ROW_BUFFER_MISS:    1378091  FULL:       4465

 AVG_CONGESTED_CYCLE: -
 All warmup complete: 2
Channel 0 Bank busy for read cycles: 0
Channel 0 Bank busy for write cycles: 0
Channel 0
Rank 0
0banks busy for read cycles: 10106
0banks busy for write cycles: 0
1banks busy for read cycles: 1032748
1banks busy for write cycles: 170719
2banks busy for read cycles: 1465259
2banks busy for write cycles: 170717
3banks busy for read cycles: 2986915
3banks busy for write cycles: 170716
4banks busy for read cycles: 4250267
4banks busy for write cycles: 170709
5banks busy for read cycles: 7599184
5banks busy for write cycles: 170712
6banks busy for read cycles: 11229924
6banks busy for write cycles: 172746
7banks busy for read cycles: 15142550
7banks busy for write cycles: 1975287
8banks busy for read cycles: 18078379
8banks busy for write cycles: 34050131

CPU 0 Branch Prediction Accuracy: 94.966% MPKI: 0.89888 Average ROB Occupancy at Mispredict: 165.091
Branch types
NOT_BRANCH: 49106898 98.2138%
BRANCH_DIRECT_JUMP: 143919 0.287838%
BRANCH_INDIRECT: 0 0%
BRANCH_CONDITIONAL: 748893 1.49779%
BRANCH_DIRECT_CALL: 0 0%
BRANCH_INDIRECT_CALL: 0 0%
BRANCH_RETURN: 0 0%
BRANCH_OTHER: 0 0%

@sumon_overall_L1D         0         0         0         0         0         0         0
@Sumon_Early_by_class_L1D         0         0         0         0
@Sumon_Late_by_class_L1D         0         0         0         0

@Sumon_Early_by_cycle_L1D         0         0         0         0         0         0         0         0         0         0         0         0
@Sumon_Late_by_cycle_L1D         0         0         0         0         0         0
@Sumon_Early_stream_L1D         0         0         0         0         0         0         0         0         0         0         0         0
@Sumon_Early_CS_L1D         0         0         0         0         0         0         0         0         0         0         0         0
@Sumon_Early_CPLX_L1D         0         0         0         0         0         0         0         0         0         0         0         0
@Sumon_Late_stream_L1D         0         0         0         0         0         0
@Sumon_Late_CS_L1D         0         0         0         0         0         0
@Sumon_Late_CPLX_L1D         0         0         0         0         0         0
@sumon_overall_L2C    100386     78579         0         0    100387   3669689   3669689
@Sumon_Early_by_class_L2C         0         0         0         0
@Sumon_Late_by_class_L2C         0         0         0         0

@Sumon_Early_by_cycle_L2C     31258     17414     41584      7570      1614       946         0         0         0         0         0         0
@Sumon_Late_by_cycle_L2C      7629     26352     17408      1963     15127     10100
@Sumon_Early_stream_L2C         0         0         0         0         0         0         0         0         0         0         0         0
@Sumon_Early_CS_L2C         0         0         0         0         0         0         0         0         0         0         0         0
@Sumon_Early_CPLX_L2C         0         0         0         0         0         0         0         0         0         0         0         0
@Sumon_Late_stream_L2C         0         0         0         0         0         0
@Sumon_Late_CS_L2C         0         0         0         0         0         0
@Sumon_Late_CPLX_L2C         0         0         0         0         0         0
DRAM PAGES: 1048576
Allocated PAGES: 25372
