Initialize SIGNATURE TABLE
ST_SET: 1
ST_WAY: 256
ST_TAG_BIT: 16
ST_TAG_MASK: ffff

Initialize PATTERN TABLE
PT_SET: 512
PT_WAY: 4
SIG_DELTA_BIT: 7
C_SIG_BIT: 4
C_DELTA_BIT: 4

Initialize PREFETCH FILTER
FILTER_SET: 1024

*** ChampSim Multicore Out-of-Order Simulator ***

Warmup Instructions: 10000000
Simulation Instructions: 50000000
Number of CPUs: 1
LLC sets: 2048
LLC ways: 16
Off-chip DRAM Size: 4096 MB Channels: 1 Width: 64-bit Data Rate: 6400 MT/s
CPU 0 runs traces/SPEC2017/623.xalancbmk_s-165B.champsimtrace.xz
.xz
CPU 0 Bimodal branch predictor
BTB has LRU replacement policy
ITLB has LRU replacement policy
DTLB has LRU replacement policy
STLB has LRU replacement policy
L1I has LRU replacement policy
L1D has LRU replacement policy
ST_WAYS: 256
PT_SETS: 512
L2C has LRU replacement policy
Initialize SRRIP state
Heartbeat CPU 0 instructions: 10000000 cycles: 2866265 heartbeat IPC: 3.48886 cumulative IPC: 3.48886 (Simulation time: 0 hr 6 min 58 sec) 

Warmup complete CPU 0 instructions: 10000002 cycles: 2866267 (Simulation time: 0 hr 6 min 58 sec) 

Heartbeat CPU 0 instructions: 20000001 cycles: 21390134 heartbeat IPC: 0.539844 cumulative IPC: 0.539844 (Simulation time: 0 hr 15 min 34 sec) 
Heartbeat CPU 0 instructions: 30000000 cycles: 39795796 heartbeat IPC: 0.543311 cumulative IPC: 0.541572 (Simulation time: 0 hr 24 min 0 sec) 
Heartbeat CPU 0 instructions: 40000000 cycles: 58073887 heartbeat IPC: 0.547103 cumulative IPC: 0.543403 (Simulation time: 0 hr 32 min 32 sec) 
Heartbeat CPU 0 instructions: 50000001 cycles: 76530274 heartbeat IPC: 0.541818 cumulative IPC: 0.543006 (Simulation time: 0 hr 40 min 53 sec) 
Heartbeat CPU 0 instructions: 60000000 cycles: 94944992 heartbeat IPC: 0.543044 cumulative IPC: 0.543014 (Simulation time: 0 hr 49 min 11 sec) 
Finished CPU 0 instructions: 50000002 cycles: 92078754 cumulative IPC: 0.543013 (Simulation time: 0 hr 49 min 11 sec) 

ChampSim completed all CPUs

Region of Interest Statistics

CPU 0 cumulative IPC: 0.543013 instructions: 50000002 cycles: 92078754
ITLB TOTAL     ACCESS:    7286751  HIT:    7286751  MISS:          0  HIT %:        100  MISS %:          0   MPKI: 0
ITLB LOAD TRANSLATION ACCESS:    7286751  HIT:    7286751  MISS:          0  HIT %:        100  MISS %:          0   MPKI: 0
ITLB PREFETCH  REQUESTED:          0  ISSUED:          0  USEFUL:          0  USELESS:          0
ITLB USEFUL LOAD PREFETCHES:          0 PREFETCH ISSUED TO LOWER LEVEL:          0  ACCURACY: -nan
ITLB TIMELY PREFETCHES:          0 LATE PREFETCHES: 0 DROPPED PREFETCHES: 0
ITLB PREFETCHES SAME FILL-ORIGIN LEVEL: 0 DIFFERENT FILL-ORIGIN LEVEL: 0
ITLB AVERAGE MISS LATENCY: -nan cycles
ITLB RQ	ACCESS:    9258105	FORWARD:          0	MERGED:    1971355	TO_CACHE:    7286750

ITLB_Dead_block_count 0 0
ITLB_inaccurate_prefetch_count 0 0
Interactions: positive negative neutral
ITLB_interactions 0 0 0
ITLB_positive 0 0 0
ITLB_negative 0 0 0
ITLB_neutral 0 0 0 0 0 0
DTLB TOTAL     ACCESS:    7418260  HIT:    7400346  MISS:      17914  HIT %:    99.7585  MISS %:   0.241485   MPKI: 0.35828
DTLB LOAD TRANSLATION ACCESS:    7418260  HIT:    7400346  MISS:      17914  HIT %:    99.7585  MISS %:   0.241485   MPKI: 0.35828
DTLB PREFETCH  REQUESTED:          0  ISSUED:          0  USEFUL:          0  USELESS:          0
DTLB USEFUL LOAD PREFETCHES:          0 PREFETCH ISSUED TO LOWER LEVEL:          0  ACCURACY: -nan
DTLB TIMELY PREFETCHES:          0 LATE PREFETCHES: 0 DROPPED PREFETCHES: 0
DTLB PREFETCHES SAME FILL-ORIGIN LEVEL: 0 DIFFERENT FILL-ORIGIN LEVEL: 0
DTLB AVERAGE MISS LATENCY: 9.80903 cycles
DTLB RQ	ACCESS:    8131660	FORWARD:          0	MERGED:     713363	TO_CACHE:    7418297

DTLB_Dead_block_count 17910 4
DTLB_inaccurate_prefetch_count 0 0
Interactions: positive negative neutral
DTLB_interactions 0 0 0
DTLB_positive 0 0 0
DTLB_negative 0 0 0
DTLB_neutral 0 0 0 0 0 0
STLB TOTAL     ACCESS:      17914  HIT:      17854  MISS:         60  HIT %:    99.6651  MISS %:   0.334934   MPKI: 0.0012
STLB LOAD TRANSLATION ACCESS:      17914  HIT:      17854  MISS:         60  HIT %:    99.6651  MISS %:   0.334934   MPKI: 0.0012
STLB PREFETCH  REQUESTED:          0  ISSUED:          0  USEFUL:          0  USELESS:          0
STLB USEFUL LOAD PREFETCHES:          0 PREFETCH ISSUED TO LOWER LEVEL:          0  ACCURACY: -nan
STLB TIMELY PREFETCHES:          0 LATE PREFETCHES: 0 DROPPED PREFETCHES: 0
STLB PREFETCHES SAME FILL-ORIGIN LEVEL: 0 DIFFERENT FILL-ORIGIN LEVEL: 0
STLB AVERAGE MISS LATENCY: 241.4 cycles
STLB RQ	ACCESS:      17914	FORWARD:          0	MERGED:          0	TO_CACHE:      17914

STLB_Dead_block_count 56 4
STLB_inaccurate_prefetch_count 0 0
Interactions: positive negative neutral
STLB_interactions 0 0 0
STLB_positive 0 0 0
STLB_negative 0 0 0
STLB_neutral 0 0 0 0 0 0
STLB Hit, L1D data hit: 0
STLB Hit, L2C data hit: 0
STLB Hit, LLC data hit: 0
STLB Hit, LLC data miss: 0
STLB STLB hints to L2: 0
L1D TOTAL     ACCESS:    8003908  HIT:    7052715  MISS:     951193  HIT %:    88.1159  MISS %:    11.8841   MPKI: 19.0239
L1D LOAD      ACCESS:    7348218  HIT:    6397305  MISS:     950913  HIT %:    87.0593  MISS %:    12.9407   MPKI: 19.0183
L1D RFO       ACCESS:     655690  HIT:     655410  MISS:        280  HIT %:    99.9573  MISS %:  0.0427031   MPKI: 0.0056
L1D PREFETCH  REQUESTED:          0  ISSUED:          0  USEFUL:          0  USELESS:          0
L1D USEFUL LOAD PREFETCHES:          0 PREFETCH ISSUED TO LOWER LEVEL:          0  ACCURACY: -nan
L1D TIMELY PREFETCHES:          0 LATE PREFETCHES: 0 DROPPED PREFETCHES: 0
L1D PREFETCHES SAME FILL-ORIGIN LEVEL: 0 DIFFERENT FILL-ORIGIN LEVEL: 0
L1D AVERAGE MISS LATENCY: 38.8027 cycles
L1D RQ	ACCESS:   14751940	FORWARD:          0	MERGED:    7276339	TO_CACHE:    7475597
L1D WQ	ACCESS:     656260	FORWARD:          4	MERGED:        197	TO_CACHE:     656063

L1D_Dead_block_count 139 950774
L1D_inaccurate_prefetch_count 0 0
Interactions: positive negative neutral
L1D_interactions 0 0 0
L1D_positive 0 0 0
L1D_negative 0 0 0
L1D_neutral 0 0 0 0 0 0
L1D UNIQUE REGIONS ACCESSED: 0
L1D REGIONS CONFLICTS: 0
L1D Cross Page Prefetch Requests: 0
L1D Same Page Prefetch Requests: 0
L1D ROI Sum of L1D PQ occupancy: 0
L1D PREFETCHES PUSHED FROM L2C: 0
L1I TOTAL     ACCESS:    9258105  HIT:    9258105  MISS:          0  HIT %:        100  MISS %:          0   MPKI: 0
L1I LOAD      ACCESS:    9258105  HIT:    9258105  MISS:          0  HIT %:        100  MISS %:          0   MPKI: 0
L1I PREFETCH  REQUESTED:          0  ISSUED:          0  USEFUL:          0  USELESS:          0
L1I USEFUL LOAD PREFETCHES:          0 PREFETCH ISSUED TO LOWER LEVEL:          0  ACCURACY: -nan
L1I TIMELY PREFETCHES:          0 LATE PREFETCHES: 0 DROPPED PREFETCHES: 0
L1I PREFETCHES SAME FILL-ORIGIN LEVEL: 0 DIFFERENT FILL-ORIGIN LEVEL: 0
L1I AVERAGE MISS LATENCY: -nan cycles
L1I RQ	ACCESS:   18345961	FORWARD:          0	MERGED:    9087856	TO_CACHE:    9258105

L1I_Dead_block_count 0 0
L1I_inaccurate_prefetch_count 0 0
Interactions: positive negative neutral
L1I_interactions 0 0 0
L1I_positive 0 0 0
L1I_negative 0 0 0
L1I_neutral 0 0 0 0 0 0
BTB TOTAL     ACCESS:    8408285  HIT:    8407872  MISS:        413  HIT %:    99.9951  MISS %: 0.00491182   MPKI: 0.00826
BTB BRANCH_DIRECT_JUMP	ACCESS:        432  HIT:        430  MISS:          2
BTB BRANCH_INDIRECT	ACCESS:          0  HIT:          0  MISS:          0
BTB BRANCH_CONDITIONAL	ACCESS:    7758887  HIT:    7758854  MISS:         33
BTB BRANCH_DIRECT_CALL	ACCESS:     162579  HIT:     162566  MISS:         13
BTB BRANCH_INDIRECT_CALL	ACCESS:     161904  HIT:     161898  MISS:          6
BTB BRANCH_RETURN	ACCESS:     324483  HIT:     324124  MISS:        359
BTB BRANCH_OTHER ACCESS:          0  HIT:          0  MISS:          0

L2C TOTAL     ACCESS:    1154603  HIT:     202734  MISS:     951869  HIT %:    17.5588  MISS %:    82.4412   MPKI: 19.0374
L2C LOAD      ACCESS:     950913  HIT:     194658  MISS:     756255  HIT %:    20.4706  MISS %:    79.5294   MPKI: 15.1251
L2C DATA LOAD MPKI: 15.1251
L2C INSTRUCTION LOAD MPKI: 0
L2C RFO       ACCESS:        280  HIT:         10  MISS:        270  HIT %:    3.57143  MISS %:    96.4286   MPKI: 0.0054
L2C PREFETCH  ACCESS:     202938  HIT:       7638  MISS:     195300  HIT %:    3.76371  MISS %:    96.2363   MPKI: 3.906
L2C DATA PREFETCH MPKI: 3.906
L2C INSTRUCTION PREFETCH MPKI: 0
L2C WRITEBACK ACCESS:        412  HIT:        412  MISS:          0  HIT %:        100  MISS %:          0   MPKI: 0
L2C LOAD TRANSLATION ACCESS:         60  HIT:         16  MISS:         44  HIT %:    26.6667  MISS %:    73.3333   MPKI: 0.00088
L2C PREFETCH  REQUESTED:    5303737  ISSUED:    5303736  USEFUL:     194450  USELESS:        849
L2C USEFUL LOAD PREFETCHES:     194450 PREFETCH ISSUED TO LOWER LEVEL:    3033203  ACCURACY: 6.41072
L2C TIMELY PREFETCHES:     194450 LATE PREFETCHES: 97800 DROPPED PREFETCHES: 0
L2C PREFETCHES SAME FILL-ORIGIN LEVEL: 293100 DIFFERENT FILL-ORIGIN LEVEL: 2740103
L2C AVERAGE MISS LATENCY: 30.9401 cycles
L2C RQ	ACCESS:     951253	FORWARD:          0	MERGED:          0	TO_CACHE:     951253
L2C WQ	ACCESS:        412	FORWARD:          0	MERGED:          0	TO_CACHE:        412
L2C PQ	ACCESS:    5303736	FORWARD:          0	MERGED:    1920850	TO_CACHE:    3382886

L2C_Dead_block_count 464097 194672
L2C_inaccurate_prefetch_count 0 3033203
Interactions: positive negative neutral
L2C_interactions 116950 433 78635
L2C_positive 116950 0 0
L2C_negative 0 433 0
L2C_neutral 78219 285 0 0 0 131
L2C Instructions Evicting Data 0
L2C Translations Evicting Data 44
L2C Data Evicting Data 951781
L2C Instructions Evicting Instructions 0
L2C Translations Evicting Instructions 0
L2C Data Evicting Instructions 0
L2C Instructions Evicting Translations 0
L2C Translations Evicting Translations 0
L2C Data Evicting Translations 44
L2C Dense regions hint from L2: 0
PSCL5 TOTAL     ACCESS:         60  HIT:         60  MISS:          0  HIT %:        100  MISS %:          0   MPKI: 0
PSCL5 LOAD TRANSLATION ACCESS:         60  HIT:         60  MISS:          0  HIT %:        100  MISS %:          0   MPKI: 0
PSCL5 PREFETCH  REQUESTED:          0  ISSUED:          0  USEFUL:          0  USELESS:          0
PSCL5 USEFUL LOAD PREFETCHES:          0 PREFETCH ISSUED TO LOWER LEVEL:          0  ACCURACY: -nan
PSCL5 TIMELY PREFETCHES:          0 LATE PREFETCHES: 0 DROPPED PREFETCHES: 0
PSCL5 PREFETCHES SAME FILL-ORIGIN LEVEL: 0 DIFFERENT FILL-ORIGIN LEVEL: 0

PSCL5_Dead_block_count 0 0
PSCL5_inaccurate_prefetch_count 0 0
Interactions: positive negative neutral
PSCL5_interactions 0 0 0
PSCL5_positive 0 0 0
PSCL5_negative 0 0 0
PSCL5_neutral 0 0 0 0 0 0
PSCL4 TOTAL     ACCESS:         60  HIT:         60  MISS:          0  HIT %:        100  MISS %:          0   MPKI: 0
PSCL4 LOAD TRANSLATION ACCESS:         60  HIT:         60  MISS:          0  HIT %:        100  MISS %:          0   MPKI: 0
PSCL4 PREFETCH  REQUESTED:          0  ISSUED:          0  USEFUL:          0  USELESS:          0
PSCL4 USEFUL LOAD PREFETCHES:          0 PREFETCH ISSUED TO LOWER LEVEL:          0  ACCURACY: -nan
PSCL4 TIMELY PREFETCHES:          0 LATE PREFETCHES: 0 DROPPED PREFETCHES: 0
PSCL4 PREFETCHES SAME FILL-ORIGIN LEVEL: 0 DIFFERENT FILL-ORIGIN LEVEL: 0

PSCL4_Dead_block_count 0 0
PSCL4_inaccurate_prefetch_count 0 0
Interactions: positive negative neutral
PSCL4_interactions 0 0 0
PSCL4_positive 0 0 0
PSCL4_negative 0 0 0
PSCL4_neutral 0 0 0 0 0 0
PSCL3 TOTAL     ACCESS:         60  HIT:         60  MISS:          0  HIT %:        100  MISS %:          0   MPKI: 0
PSCL3 LOAD TRANSLATION ACCESS:         60  HIT:         60  MISS:          0  HIT %:        100  MISS %:          0   MPKI: 0
PSCL3 PREFETCH  REQUESTED:          0  ISSUED:          0  USEFUL:          0  USELESS:          0
PSCL3 USEFUL LOAD PREFETCHES:          0 PREFETCH ISSUED TO LOWER LEVEL:          0  ACCURACY: -nan
PSCL3 TIMELY PREFETCHES:          0 LATE PREFETCHES: 0 DROPPED PREFETCHES: 0
PSCL3 PREFETCHES SAME FILL-ORIGIN LEVEL: 0 DIFFERENT FILL-ORIGIN LEVEL: 0

PSCL3_Dead_block_count 0 0
PSCL3_inaccurate_prefetch_count 0 0
Interactions: positive negative neutral
PSCL3_interactions 0 0 0
PSCL3_positive 0 0 0
PSCL3_negative 0 0 0
PSCL3_neutral 0 0 0 0 0 0
PSCL2 TOTAL     ACCESS:         60  HIT:         60  MISS:          0  HIT %:        100  MISS %:          0   MPKI: 0
PSCL2 LOAD TRANSLATION ACCESS:         60  HIT:         60  MISS:          0  HIT %:        100  MISS %:          0   MPKI: 0
PSCL2 PREFETCH  REQUESTED:          0  ISSUED:          0  USEFUL:          0  USELESS:          0
PSCL2 USEFUL LOAD PREFETCHES:          0 PREFETCH ISSUED TO LOWER LEVEL:          0  ACCURACY: -nan
PSCL2 TIMELY PREFETCHES:          0 LATE PREFETCHES: 0 DROPPED PREFETCHES: 0
PSCL2 PREFETCHES SAME FILL-ORIGIN LEVEL: 0 DIFFERENT FILL-ORIGIN LEVEL: 0

PSCL2_Dead_block_count 0 0
PSCL2_inaccurate_prefetch_count 0 0
Interactions: positive negative neutral
PSCL2_interactions 0 0 0
PSCL2_positive 0 0 0
PSCL2_negative 0 0 0
PSCL2_neutral 0 0 0 0 0 0
LLC TOTAL     ACCESS:    3497842  HIT:    3304382  MISS:     193460  HIT %:    94.4692  MISS %:    5.53084   MPKI: 3.8692
LLC LOAD      ACCESS:     658455  HIT:     640338  MISS:      18117  HIT %:    97.2486  MISS %:    2.75144   MPKI: 0.36234
LLC RFO       ACCESS:        270  HIT:        233  MISS:         37  HIT %:    86.2963  MISS %:    13.7037   MPKI: 0.00074
LLC PREFETCH  ACCESS:    2838661  HIT:    2663464  MISS:     175197  HIT %:    93.8282  MISS %:    6.17182   MPKI: 3.50394
LLC WRITEBACK ACCESS:        412  HIT:        326  MISS:         86  HIT %:    79.1262  MISS %:    20.8738   MPKI: 0.00172
LLC LOAD TRANSLATION ACCESS:         44  HIT:         21  MISS:         23  HIT %:    47.7273  MISS %:    52.2727   MPKI: 0.00046
LLC PREFETCH  REQUESTED:          0  ISSUED:          0  USEFUL:     144835  USELESS:      36557
LLC USEFUL LOAD PREFETCHES:     144835 PREFETCH ISSUED TO LOWER LEVEL:     178600  ACCURACY: 81.0946
LLC TIMELY PREFETCHES:     144835 LATE PREFETCHES: 3403 DROPPED PREFETCHES: 0
LLC PREFETCHES SAME FILL-ORIGIN LEVEL: 176612 DIFFERENT FILL-ORIGIN LEVEL: 0
LLC AVERAGE MISS LATENCY: 84.3763 cycles
LLC RQ	ACCESS:     658769	FORWARD:          0	MERGED:          0	TO_CACHE:     658769
LLC WQ	ACCESS:        412	FORWARD:          0	MERGED:          0	TO_CACHE:        412
LLC PQ	ACCESS:    3033203	FORWARD:          0	MERGED:      94534	TO_CACHE:    2938669

LLC_Dead_block_count 8 14766
LLC_inaccurate_prefetch_count 28 178572
Interactions: positive negative neutral
LLC_interactions 43602 2599 131876
LLC_positive 43587 0 15
LLC_negative 14 2578 7
LLC_neutral 97928 302 5 0 0 33641
LLC Dense regions hint to LLC: 0

RAW hits: 495
Loads Generated: 14752436
Loads sent to L1D: 14751940
Stores Generated: 656260
Stores sent to L1D: 656260
Major fault: 0 Minor fault: 716
Allocated PAGES: 716
 All Calls: 1141023
 Critical Calls: 1141023
------------------
Depth Distribution
------------------
depth 0: 0
depth 1: 1289272
depth 2: 1150069
depth 3: 1022728
depth 4: 830444
depth 5: 605219
depth 6: 393222
depth 7: 259443
depth 8: 185779
depth 9: 139096
depth 10: 88429
depth 11: 35588
depth 12: 5435
depth 13: 187
depth 14: 11
depth 15: 5
depth 16: 0
depth 17: 0
depth 18: 0
depth 19: 0
depth 20: 0
depth 21: 0
depth 22: 0
depth 23: 0
depth 24: 0
depth 25: 0
depth 26: 0
depth 27: 0
depth 28: 0
depth 29: 0
Total: 6004927
-----------------------------
-----------------------------
	Captured at Filter
-----------------------------
depth 0: 0
depth 1: 23514
depth 2: 16937
depth 3: 14298
depth 4: 11585
depth 5: 9633
depth 6: 3394
depth 7: 1434
depth 8: 873
depth 9: 628
depth 10: 400
depth 11: 156
depth 12: 31
depth 13: 3
depth 14: 0
depth 15: 0
depth 16: 0
depth 17: 0
depth 18: 0
depth 19: 0
depth 20: 0
depth 21: 0
depth 22: 0
depth 23: 0
depth 24: 0
depth 25: 0
depth 26: 0
depth 27: 0
depth 28: 0
depth 29: 0
-----------------------------
-----------------------------
		Lost at Page
-----------------------------
depth 0: 0
depth 1: 36070
depth 2: 47416
depth 3: 59505
depth 4: 62359
depth 5: 55971
depth 6: 42464
depth 7: 31937
depth 8: 25381
depth 9: 24053
depth 10: 18470
depth 11: 9101
depth 12: 1679
depth 13: 63
depth 14: 1
depth 15: 0
depth 16: 0
depth 17: 0
depth 18: 0
depth 19: 0
depth 20: 0
depth 21: 0
depth 22: 0
depth 23: 0
depth 24: 0
depth 25: 0
depth 26: 0
depth 27: 0
depth 28: 0
depth 29: 0
-----------------------------
-----------------------------
	Lost due to PQ Size
-----------------------------
1
-----------------------------
ST read accesses: 934152
ST write accesses: 16761
PT read accesses: 32489237
PT write accesses: 1399644
FILTER read accesses: 7286290
FILTER write accesses: 1872958
GHR read accesses: 2110076
GHR write accesses: 387999
GHR counter read accesses: 27522258
GHR counter write accesses: 1869196
ST tag read accesses: 373956986
ST tag write accesses: 5316501

DRAM Statistics
 CHANNEL 0
 RQ ROW_BUFFER_HIT:     167504  ROW_BUFFER_MISS:      25870
 DBUS_CONGESTED:          0
 WQ ROW_BUFFER_HIT:          1  ROW_BUFFER_MISS:        187  FULL:          0

 AVG_CONGESTED_CYCLE: -
 All warmup complete: 2
Channel 0 Bank busy for read cycles: 0
Channel 0 Bank busy for write cycles: 0
Channel 0
Rank 0
0banks busy for read cycles: 83145022
0banks busy for write cycles: 169
1banks busy for read cycles: 6482949
1banks busy for write cycles: 23607
2banks busy for read cycles: 1745510
2banks busy for write cycles: 2438
3banks busy for read cycles: 499359
3banks busy for write cycles: 131
4banks busy for read cycles: 130630
4banks busy for write cycles: 0
5banks busy for read cycles: 35466
5banks busy for write cycles: 0
6banks busy for read cycles: 10943
6banks busy for write cycles: 0
7banks busy for read cycles: 2078
7banks busy for write cycles: 0
8banks busy for read cycles: 453
8banks busy for write cycles: 0

CPU 0 Branch Prediction Accuracy: 96.5207% MPKI: 9.7029 Average ROB Occupancy at Mispredict: 39.0852
Branch types
NOT_BRANCH: 36055994 72.112%
BRANCH_DIRECT_JUMP: 432 0.000864%
BRANCH_INDIRECT: 0 0%
BRANCH_CONDITIONAL: 13294304 26.5886%
BRANCH_DIRECT_CALL: 162579 0.325158%
BRANCH_INDIRECT_CALL: 161904 0.323808%
BRANCH_RETURN: 324483 0.648966%
BRANCH_OTHER: 0 0%

@sumon_overall_L1D         0         0         0         0         0         0         0
@Sumon_Early_by_class_L1D         0         0         0         0
@Sumon_Late_by_class_L1D         0         0         0         0

@Sumon_Early_by_cycle_L1D         0         0         0         0         0         0         0         0         0         0         0         0
@Sumon_Late_by_cycle_L1D         0         0         0         0         0         0
@Sumon_Early_stream_L1D         0         0         0         0         0         0         0         0         0         0         0         0
@Sumon_Early_CS_L1D         0         0         0         0         0         0         0         0         0         0         0         0
@Sumon_Early_CPLX_L1D         0         0         0         0         0         0         0         0         0         0         0         0
@Sumon_Late_stream_L1D         0         0         0         0         0         0
@Sumon_Late_CS_L1D         0         0         0         0         0         0
@Sumon_Late_CPLX_L1D         0         0         0         0         0         0
@sumon_overall_L2C    194450     97800         0       849    195300   5303736   5303737
@Sumon_Early_by_class_L2C         0         0         0         0
@Sumon_Late_by_class_L2C         0         0         0         0

@Sumon_Early_by_cycle_L2C    114169       690     78443       578        13        45       254        80        52        17        39        70
@Sumon_Late_by_cycle_L2C     36399     45075     15736       404       186         0
@Sumon_Early_stream_L2C         0         0         0         0         0         0         0         0         0         0         0         0
@Sumon_Early_CS_L2C         0         0         0         0         0         0         0         0         0         0         0         0
@Sumon_Early_CPLX_L2C         0         0         0         0         0         0         0         0         0         0         0         0
@Sumon_Late_stream_L2C         0         0         0         0         0         0
@Sumon_Late_CS_L2C         0         0         0         0         0         0
@Sumon_Late_CPLX_L2C         0         0         0         0         0         0
DRAM PAGES: 1048576
Allocated PAGES: 716
