Initialize SIGNATURE TABLE
ST_SET: 1
ST_WAY: 256
ST_TAG_BIT: 16
ST_TAG_MASK: ffff

Initialize PATTERN TABLE
PT_SET: 512
PT_WAY: 4
SIG_DELTA_BIT: 7
C_SIG_BIT: 4
C_DELTA_BIT: 4

Initialize PREFETCH FILTER
FILTER_SET: 1024

*** ChampSim Multicore Out-of-Order Simulator ***

Warmup Instructions: 10000000
Simulation Instructions: 50000000
Number of CPUs: 1
LLC sets: 2048
LLC ways: 16
Off-chip DRAM Size: 4096 MB Channels: 1 Width: 64-bit Data Rate: 6400 MT/s
CPU 0 runs traces/SPEC2017/649.fotonik3d_s-8225B.champsimtrace.xz
.xz
CPU 0 Bimodal branch predictor
BTB has LRU replacement policy
ITLB has LRU replacement policy
DTLB has LRU replacement policy
STLB has LRU replacement policy
L1I has LRU replacement policy
L1D has LRU replacement policy
ST_WAYS: 256
PT_SETS: 512
L2C has LRU replacement policy
Initialize SRRIP state
Heartbeat CPU 0 instructions: 10000001 cycles: 2912233 heartbeat IPC: 3.43379 cumulative IPC: 3.43379 (Simulation time: 0 hr 7 min 36 sec) 

Warmup complete CPU 0 instructions: 10000001 cycles: 2912233 (Simulation time: 0 hr 7 min 36 sec) 

Heartbeat CPU 0 instructions: 20000001 cycles: 12897526 heartbeat IPC: 1.00147 cumulative IPC: 1.00147 (Simulation time: 0 hr 16 min 17 sec) 
Heartbeat CPU 0 instructions: 30000002 cycles: 22879674 heartbeat IPC: 1.00179 cumulative IPC: 1.00163 (Simulation time: 0 hr 24 min 56 sec) 
Heartbeat CPU 0 instructions: 40000002 cycles: 32863347 heartbeat IPC: 1.00164 cumulative IPC: 1.00163 (Simulation time: 0 hr 33 min 34 sec) 
Heartbeat CPU 0 instructions: 50000003 cycles: 42844873 heartbeat IPC: 1.00185 cumulative IPC: 1.00169 (Simulation time: 0 hr 42 min 3 sec) 
Heartbeat CPU 0 instructions: 60000000 cycles: 52828372 heartbeat IPC: 1.00165 cumulative IPC: 1.00168 (Simulation time: 0 hr 50 min 17 sec) 
Finished CPU 0 instructions: 50000003 cycles: 49916140 cumulative IPC: 1.00168 (Simulation time: 0 hr 50 min 17 sec) 

ChampSim completed all CPUs

Region of Interest Statistics

CPU 0 cumulative IPC: 1.00168 instructions: 50000003 cycles: 49916140
ITLB TOTAL     ACCESS:    7017775  HIT:    7017775  MISS:          0  HIT %:        100  MISS %:          0   MPKI: 0
ITLB LOAD TRANSLATION ACCESS:    7017775  HIT:    7017775  MISS:          0  HIT %:        100  MISS %:          0   MPKI: 0
ITLB PREFETCH  REQUESTED:          0  ISSUED:          0  USEFUL:          0  USELESS:          0
ITLB USEFUL LOAD PREFETCHES:          0 PREFETCH ISSUED TO LOWER LEVEL:          0  ACCURACY: -nan
ITLB TIMELY PREFETCHES:          0 LATE PREFETCHES: 0 DROPPED PREFETCHES: 0
ITLB PREFETCHES SAME FILL-ORIGIN LEVEL: 0 DIFFERENT FILL-ORIGIN LEVEL: 0
ITLB AVERAGE MISS LATENCY: -nan cycles
ITLB RQ	ACCESS:    8772842	FORWARD:          0	MERGED:    1755067	TO_CACHE:    7017775

ITLB_Dead_block_count 0 0
ITLB_inaccurate_prefetch_count 0 0
Interactions: positive negative neutral
ITLB_interactions 0 0 0
ITLB_positive 0 0 0
ITLB_negative 0 0 0
ITLB_neutral 0 0 0 0 0 0
DTLB TOTAL     ACCESS:    7829840  HIT:    7818048  MISS:      11792  HIT %:    99.8494  MISS %:   0.150603   MPKI: 0.23584
DTLB LOAD TRANSLATION ACCESS:    7829840  HIT:    7818048  MISS:      11792  HIT %:    99.8494  MISS %:   0.150603   MPKI: 0.23584
DTLB PREFETCH  REQUESTED:          0  ISSUED:          0  USEFUL:          0  USELESS:          0
DTLB USEFUL LOAD PREFETCHES:          0 PREFETCH ISSUED TO LOWER LEVEL:          0  ACCURACY: -nan
DTLB TIMELY PREFETCHES:          0 LATE PREFETCHES: 0 DROPPED PREFETCHES: 0
DTLB PREFETCHES SAME FILL-ORIGIN LEVEL: 0 DIFFERENT FILL-ORIGIN LEVEL: 0
DTLB AVERAGE MISS LATENCY: 88.5823 cycles
DTLB RQ	ACCESS:   12272403	FORWARD:          0	MERGED:    4441869	TO_CACHE:    7830534

DTLB_Dead_block_count 11788 4
DTLB_inaccurate_prefetch_count 0 0
Interactions: positive negative neutral
DTLB_interactions 0 0 0
DTLB_positive 0 0 0
DTLB_negative 0 0 0
DTLB_neutral 0 0 0 0 0 0
STLB TOTAL     ACCESS:      11792  HIT:       4934  MISS:       6858  HIT %:    41.8419  MISS %:    58.1581   MPKI: 0.13716
STLB LOAD TRANSLATION ACCESS:      11792  HIT:       4934  MISS:       6858  HIT %:    41.8419  MISS %:    58.1581   MPKI: 0.13716
STLB PREFETCH  REQUESTED:          0  ISSUED:          0  USEFUL:          0  USELESS:          0
STLB USEFUL LOAD PREFETCHES:          0 PREFETCH ISSUED TO LOWER LEVEL:          0  ACCURACY: -nan
STLB TIMELY PREFETCHES:          0 LATE PREFETCHES: 0 DROPPED PREFETCHES: 0
STLB PREFETCHES SAME FILL-ORIGIN LEVEL: 0 DIFFERENT FILL-ORIGIN LEVEL: 0
STLB AVERAGE MISS LATENCY: 136.616 cycles
STLB RQ	ACCESS:      11792	FORWARD:          0	MERGED:          0	TO_CACHE:      11792

STLB_Dead_block_count 6854 4
STLB_inaccurate_prefetch_count 0 0
Interactions: positive negative neutral
STLB_interactions 0 0 0
STLB_positive 0 0 0
STLB_negative 0 0 0
STLB_neutral 0 0 0 0 0 0
STLB Hit, L1D data hit: 0
STLB Hit, L2C data hit: 0
STLB Hit, LLC data hit: 0
STLB Hit, LLC data miss: 0
STLB STLB hints to L2: 0
L1D TOTAL     ACCESS:   12118113  HIT:   11456417  MISS:     661696  HIT %:    94.5396  MISS %:    5.46039   MPKI: 13.2339
L1D LOAD      ACCESS:    8609072  HIT:    7948037  MISS:     661035  HIT %:    92.3216  MISS %:    7.67835   MPKI: 13.2207
L1D RFO       ACCESS:    3509041  HIT:    3508380  MISS:        661  HIT %:    99.9812  MISS %:  0.0188371   MPKI: 0.01322
L1D PREFETCH  REQUESTED:          0  ISSUED:          0  USEFUL:          0  USELESS:          0
L1D USEFUL LOAD PREFETCHES:          0 PREFETCH ISSUED TO LOWER LEVEL:          0  ACCURACY: -nan
L1D TIMELY PREFETCHES:          0 LATE PREFETCHES: 0 DROPPED PREFETCHES: 0
L1D PREFETCHES SAME FILL-ORIGIN LEVEL: 0 DIFFERENT FILL-ORIGIN LEVEL: 0
L1D AVERAGE MISS LATENCY: 24.1686 cycles
L1D RQ	ACCESS:   17541456	FORWARD:          0	MERGED:    8779257	TO_CACHE:    8762121
L1D WQ	ACCESS:    3510282	FORWARD:         78	MERGED:          0	TO_CACHE:    3510282

L1D_Dead_block_count 7 661028
L1D_inaccurate_prefetch_count 0 0
Interactions: positive negative neutral
L1D_interactions 0 0 0
L1D_positive 0 0 0
L1D_negative 0 0 0
L1D_neutral 0 0 0 0 0 0
L1D UNIQUE REGIONS ACCESSED: 0
L1D REGIONS CONFLICTS: 0
L1D Cross Page Prefetch Requests: 0
L1D Same Page Prefetch Requests: 0
L1D ROI Sum of L1D PQ occupancy: 0
L1D PREFETCHES PUSHED FROM L2C: 0
L1I TOTAL     ACCESS:    8772842  HIT:    8772842  MISS:          0  HIT %:        100  MISS %:          0   MPKI: 0
L1I LOAD      ACCESS:    8772842  HIT:    8772842  MISS:          0  HIT %:        100  MISS %:          0   MPKI: 0
L1I PREFETCH  REQUESTED:          0  ISSUED:          0  USEFUL:          0  USELESS:          0
L1I USEFUL LOAD PREFETCHES:          0 PREFETCH ISSUED TO LOWER LEVEL:          0  ACCURACY: -nan
L1I TIMELY PREFETCHES:          0 LATE PREFETCHES: 0 DROPPED PREFETCHES: 0
L1I PREFETCHES SAME FILL-ORIGIN LEVEL: 0 DIFFERENT FILL-ORIGIN LEVEL: 0
L1I AVERAGE MISS LATENCY: -nan cycles
L1I RQ	ACCESS:   11407497	FORWARD:          0	MERGED:    2634655	TO_CACHE:    8772842

L1I_Dead_block_count 0 0
L1I_inaccurate_prefetch_count 0 0
Interactions: positive negative neutral
L1I_interactions 0 0 0
L1I_positive 0 0 0
L1I_negative 0 0 0
L1I_neutral 0 0 0 0 0 0
BTB TOTAL     ACCESS:     877290  HIT:     877281  MISS:          9  HIT %:     99.999  MISS %: 0.00102589   MPKI: 0.00018
BTB BRANCH_DIRECT_JUMP	ACCESS:        220  HIT:        218  MISS:          2
BTB BRANCH_INDIRECT	ACCESS:          0  HIT:          0  MISS:          0
BTB BRANCH_CONDITIONAL	ACCESS:     876630  HIT:     876627  MISS:          3
BTB BRANCH_DIRECT_CALL	ACCESS:        220  HIT:        218  MISS:          2
BTB BRANCH_INDIRECT_CALL	ACCESS:          0  HIT:          0  MISS:          0
BTB BRANCH_RETURN	ACCESS:        220  HIT:        218  MISS:          2
BTB BRANCH_OTHER ACCESS:          0  HIT:          0  MISS:          0

L2C TOTAL     ACCESS:    3394661  HIT:    2952510  MISS:     442151  HIT %:    86.9751  MISS %:    13.0249   MPKI: 8.84302
L2C LOAD      ACCESS:     661035  HIT:     526962  MISS:     134073  HIT %:    79.7177  MISS %:    20.2823   MPKI: 2.68146
L2C DATA LOAD MPKI: 2.68146
L2C INSTRUCTION LOAD MPKI: 0
L2C RFO       ACCESS:        661  HIT:        631  MISS:         30  HIT %:    95.4614  MISS %:    4.53858   MPKI: 0.0006
L2C PREFETCH  ACCESS:    2286744  HIT:    1979577  MISS:     307167  HIT %:    86.5675  MISS %:    13.4325   MPKI: 6.14334
L2C DATA PREFETCH MPKI: 6.14334
L2C INSTRUCTION PREFETCH MPKI: 0
L2C WRITEBACK ACCESS:     439361  HIT:     439361  MISS:          0  HIT %:        100  MISS %:          0   MPKI: 0
L2C LOAD TRANSLATION ACCESS:       6860  HIT:       5979  MISS:        881  HIT %:    87.1574  MISS %:    12.8426   MPKI: 0.01762
L2C PREFETCH  REQUESTED:    6767360  ISSUED:    6467579  USEFUL:     307086  USELESS:         81
L2C USEFUL LOAD PREFETCHES:     307086 PREFETCH ISSUED TO LOWER LEVEL:    4472801  ACCURACY: 6.86563
L2C TIMELY PREFETCHES:     307086 LATE PREFETCHES: 5647 DROPPED PREFETCHES: 0
L2C PREFETCHES SAME FILL-ORIGIN LEVEL: 312814 DIFFERENT FILL-ORIGIN LEVEL: 4159987
L2C AVERAGE MISS LATENCY: 36.233 cycles
L2C RQ	ACCESS:     668556	FORWARD:          0	MERGED:          0	TO_CACHE:     668556
L2C WQ	ACCESS:     439361	FORWARD:          0	MERGED:          0	TO_CACHE:     439361
L2C PQ	ACCESS:    6467579	FORWARD:          0	MERGED:      14856	TO_CACHE:    6452723

L2C_Dead_block_count 62 129275
L2C_inaccurate_prefetch_count 0 4472801
Interactions: positive negative neutral
L2C_interactions 2308 0 304880
L2C_positive 2308 0 0
L2C_negative 0 0 0
L2C_neutral 304799 21 0 0 0 60
L2C Instructions Evicting Data 0
L2C Translations Evicting Data 881
L2C Data Evicting Data 440391
L2C Instructions Evicting Instructions 0
L2C Translations Evicting Instructions 0
L2C Data Evicting Instructions 0
L2C Instructions Evicting Translations 0
L2C Translations Evicting Translations 0
L2C Data Evicting Translations 879
L2C Dense regions hint from L2: 0
PSCL5 TOTAL     ACCESS:       6858  HIT:       6858  MISS:          0  HIT %:        100  MISS %:          0   MPKI: 0
PSCL5 LOAD TRANSLATION ACCESS:       6858  HIT:       6858  MISS:          0  HIT %:        100  MISS %:          0   MPKI: 0
PSCL5 PREFETCH  REQUESTED:          0  ISSUED:          0  USEFUL:          0  USELESS:          0
PSCL5 USEFUL LOAD PREFETCHES:          0 PREFETCH ISSUED TO LOWER LEVEL:          0  ACCURACY: -nan
PSCL5 TIMELY PREFETCHES:          0 LATE PREFETCHES: 0 DROPPED PREFETCHES: 0
PSCL5 PREFETCHES SAME FILL-ORIGIN LEVEL: 0 DIFFERENT FILL-ORIGIN LEVEL: 0

PSCL5_Dead_block_count 0 0
PSCL5_inaccurate_prefetch_count 0 0
Interactions: positive negative neutral
PSCL5_interactions 0 0 0
PSCL5_positive 0 0 0
PSCL5_negative 0 0 0
PSCL5_neutral 0 0 0 0 0 0
PSCL4 TOTAL     ACCESS:       6858  HIT:       6858  MISS:          0  HIT %:        100  MISS %:          0   MPKI: 0
PSCL4 LOAD TRANSLATION ACCESS:       6858  HIT:       6858  MISS:          0  HIT %:        100  MISS %:          0   MPKI: 0
PSCL4 PREFETCH  REQUESTED:          0  ISSUED:          0  USEFUL:          0  USELESS:          0
PSCL4 USEFUL LOAD PREFETCHES:          0 PREFETCH ISSUED TO LOWER LEVEL:          0  ACCURACY: -nan
PSCL4 TIMELY PREFETCHES:          0 LATE PREFETCHES: 0 DROPPED PREFETCHES: 0
PSCL4 PREFETCHES SAME FILL-ORIGIN LEVEL: 0 DIFFERENT FILL-ORIGIN LEVEL: 0

PSCL4_Dead_block_count 0 0
PSCL4_inaccurate_prefetch_count 0 0
Interactions: positive negative neutral
PSCL4_interactions 0 0 0
PSCL4_positive 0 0 0
PSCL4_negative 0 0 0
PSCL4_neutral 0 0 0 0 0 0
PSCL3 TOTAL     ACCESS:       6858  HIT:       6857  MISS:          1  HIT %:    99.9854  MISS %:  0.0145815   MPKI: 2e-05
PSCL3 LOAD TRANSLATION ACCESS:       6858  HIT:       6857  MISS:          1  HIT %:    99.9854  MISS %:  0.0145815   MPKI: 2e-05
PSCL3 PREFETCH  REQUESTED:          0  ISSUED:          0  USEFUL:          0  USELESS:          0
PSCL3 USEFUL LOAD PREFETCHES:          0 PREFETCH ISSUED TO LOWER LEVEL:          0  ACCURACY: -nan
PSCL3 TIMELY PREFETCHES:          0 LATE PREFETCHES: 0 DROPPED PREFETCHES: 0
PSCL3 PREFETCHES SAME FILL-ORIGIN LEVEL: 0 DIFFERENT FILL-ORIGIN LEVEL: 0

PSCL3_Dead_block_count 0 0
PSCL3_inaccurate_prefetch_count 0 0
Interactions: positive negative neutral
PSCL3_interactions 0 0 0
PSCL3_positive 0 0 0
PSCL3_negative 0 0 0
PSCL3_neutral 0 0 0 0 0 0
PSCL2 TOTAL     ACCESS:       6858  HIT:       6837  MISS:         21  HIT %:    99.6938  MISS %:   0.306212   MPKI: 0.00042
PSCL2 LOAD TRANSLATION ACCESS:       6858  HIT:       6837  MISS:         21  HIT %:    99.6938  MISS %:   0.306212   MPKI: 0.00042
PSCL2 PREFETCH  REQUESTED:          0  ISSUED:          0  USEFUL:          0  USELESS:          0
PSCL2 USEFUL LOAD PREFETCHES:          0 PREFETCH ISSUED TO LOWER LEVEL:          0  ACCURACY: -nan
PSCL2 TIMELY PREFETCHES:          0 LATE PREFETCHES: 0 DROPPED PREFETCHES: 0
PSCL2 PREFETCHES SAME FILL-ORIGIN LEVEL: 0 DIFFERENT FILL-ORIGIN LEVEL: 0

PSCL2_Dead_block_count 0 0
PSCL2_inaccurate_prefetch_count 0 0
Interactions: positive negative neutral
PSCL2_interactions 0 0 0
PSCL2_positive 0 0 0
PSCL2_negative 0 0 0
PSCL2_neutral 0 0 0 0 0 0
LLC TOTAL     ACCESS:    4806407  HIT:    4235024  MISS:     571383  HIT %:    88.1121  MISS %:    11.8879   MPKI: 11.4277
LLC LOAD      ACCESS:     128426  HIT:     116380  MISS:      12046  HIT %:    90.6203  MISS %:    9.37972   MPKI: 0.24092
LLC RFO       ACCESS:         30  HIT:         30  MISS:          0  HIT %:        100  MISS %:          0   MPKI: 0
LLC PREFETCH  ACCESS:    4238769  HIT:    3809301  MISS:     429468  HIT %:    89.8681  MISS %:    10.1319   MPKI: 8.58936
LLC WRITEBACK ACCESS:     438301  HIT:     309313  MISS:     128988  HIT %:    70.5709  MISS %:    29.4291   MPKI: 2.57976
LLC LOAD TRANSLATION ACCESS:        881  HIT:          0  MISS:        881  HIT %:          0  MISS %:        100   MPKI: 0.01762
LLC PREFETCH  REQUESTED:          0  ISSUED:          0  USEFUL:     116307  USELESS:     313066
LLC USEFUL LOAD PREFETCHES:     116307 PREFETCH ISSUED TO LOWER LEVEL:     430545  ACCURACY: 27.0139
LLC TIMELY PREFETCHES:     116307 LATE PREFETCHES: 1077 DROPPED PREFETCHES: 0
LLC PREFETCHES SAME FILL-ORIGIN LEVEL: 425478 DIFFERENT FILL-ORIGIN LEVEL: 0
LLC AVERAGE MISS LATENCY: 123.604 cycles
LLC RQ	ACCESS:     129337	FORWARD:          0	MERGED:          0	TO_CACHE:     129337
LLC WQ	ACCESS:     438301	FORWARD:          0	MERGED:          0	TO_CACHE:     438301
LLC PQ	ACCESS:    4472801	FORWARD:          0	MERGED:       1465	TO_CACHE:    4471336

LLC_Dead_block_count 17 11833
LLC_inaccurate_prefetch_count 196954 233591
Interactions: positive negative neutral
LLC_interactions 52859 148703 230998
LLC_positive 592 935 51332
LLC_negative 92592 264 55847
LLC_neutral 110078 1668 527 225 47645 70855
LLC Dense regions hint to LLC: 0

RAW hits: 797
Loads Generated: 17542252
Loads sent to L1D: 17541456
Stores Generated: 3510282
Stores sent to L1D: 3510282
Major fault: 0 Minor fault: 8326
Allocated PAGES: 8326
 All Calls: 793248
 Critical Calls: 793248
------------------
Depth Distribution
------------------
depth 0: 0
depth 1: 772648
depth 2: 758347
depth 3: 745034
depth 4: 727537
depth 5: 705561
depth 6: 686318
depth 7: 659371
depth 8: 628832
depth 9: 527886
depth 10: 499790
depth 11: 406899
depth 12: 320612
depth 13: 180061
depth 14: 53536
depth 15: 51808
depth 16: 64
depth 17: 0
depth 18: 0
depth 19: 0
depth 20: 0
depth 21: 0
depth 22: 0
depth 23: 0
depth 24: 0
depth 25: 0
depth 26: 0
depth 27: 0
depth 28: 0
depth 29: 0
Total: 7724304
-----------------------------
-----------------------------
	Captured at Filter
-----------------------------
depth 0: 0
depth 1: 6477
depth 2: 6172
depth 3: 6138
depth 4: 5995
depth 5: 6014
depth 6: 5957
depth 7: 5953
depth 8: 5884
depth 9: 5133
depth 10: 4991
depth 11: 4189
depth 12: 3320
depth 13: 1779
depth 14: 532
depth 15: 500
depth 16: 0
depth 17: 0
depth 18: 0
depth 19: 0
depth 20: 0
depth 21: 0
depth 22: 0
depth 23: 0
depth 24: 0
depth 25: 0
depth 26: 0
depth 27: 0
depth 28: 0
depth 29: 0
-----------------------------
-----------------------------
		Lost at Page
-----------------------------
depth 0: 0
depth 1: 12310
depth 2: 24604
depth 3: 36894
depth 4: 49194
depth 5: 61486
depth 6: 73722
depth 7: 85656
depth 8: 97264
depth 9: 95152
depth 10: 104888
depth 11: 98758
depth 12: 89070
depth 13: 56432
depth 14: 18696
depth 15: 19990
depth 16: 13
depth 17: 0
depth 18: 0
depth 19: 0
depth 20: 0
depth 21: 0
depth 22: 0
depth 23: 0
depth 24: 0
depth 25: 0
depth 26: 0
depth 27: 0
depth 28: 0
depth 29: 0
-----------------------------
-----------------------------
	Lost due to PQ Size
-----------------------------
401211
-----------------------------
ST read accesses: 654176
ST write accesses: 6859
PT read accesses: 41263843
PT write accesses: 979087
FILTER read accesses: 7927414
FILTER write accesses: 1386099
GHR read accesses: 4479142
GHR write accesses: 769047
GHR counter read accesses: 34331738
GHR counter write accesses: 1605497
ST tag read accesses: 247769970
ST tag write accesses: 3385161

DRAM Statistics
 CHANNEL 0
 RQ ROW_BUFFER_HIT:      88911  ROW_BUFFER_MISS:     353484
 DBUS_CONGESTED:        231
 WQ ROW_BUFFER_HIT:      54773  ROW_BUFFER_MISS:     383510  FULL:          0

 AVG_CONGESTED_CYCLE: 5
 All warmup complete: 2
Channel 0 Bank busy for read cycles: 0
Channel 0 Bank busy for write cycles: 0
Channel 0
Rank 0
0banks busy for read cycles: 7938806
0banks busy for write cycles: 36167
1banks busy for read cycles: 6127155
1banks busy for write cycles: 3802758
2banks busy for read cycles: 8732027
2banks busy for write cycles: 2217437
3banks busy for read cycles: 5050026
3banks busy for write cycles: 2086588
4banks busy for read cycles: 1021642
4banks busy for write cycles: 2202822
5banks busy for read cycles: 1133405
5banks busy for write cycles: 2177108
6banks busy for read cycles: 232002
6banks busy for write cycles: 2118460
7banks busy for read cycles: 284130
7banks busy for write cycles: 2013567
8banks busy for read cycles: 699513
8banks busy for write cycles: 2042528

CPU 0 Branch Prediction Accuracy: 99.9751% MPKI: 0.00438 Average ROB Occupancy at Mispredict: 64.8219
Branch types
NOT_BRANCH: 49121623 98.2432%
BRANCH_DIRECT_JUMP: 220 0.00044%
BRANCH_INDIRECT: 0 0%
BRANCH_CONDITIONAL: 877399 1.7548%
BRANCH_DIRECT_CALL: 220 0.00044%
BRANCH_INDIRECT_CALL: 0 0%
BRANCH_RETURN: 220 0.00044%
BRANCH_OTHER: 0 0%

@sumon_overall_L1D         0         0         0         0         0         0         0
@Sumon_Early_by_class_L1D         0         0         0         0
@Sumon_Late_by_class_L1D         0         0         0         0

@Sumon_Early_by_cycle_L1D         0         0         0         0         0         0         0         0         0         0         0         0
@Sumon_Late_by_cycle_L1D         0         0         0         0         0         0
@Sumon_Early_stream_L1D         0         0         0         0         0         0         0         0         0         0         0         0
@Sumon_Early_CS_L1D         0         0         0         0         0         0         0         0         0         0         0         0
@Sumon_Early_CPLX_L1D         0         0         0         0         0         0         0         0         0         0         0         0
@Sumon_Late_stream_L1D         0         0         0         0         0         0
@Sumon_Late_CS_L1D         0         0         0         0         0         0
@Sumon_Late_CPLX_L1D         0         0         0         0         0         0
@sumon_overall_L2C    307086      5647         0        81    307167   6467579   6767360
@Sumon_Early_by_class_L2C         0         0         0         0
@Sumon_Late_by_class_L2C         0         0         0         0

@Sumon_Early_by_cycle_L2C    286710     19605       586        12         0         0         0         0         0         0         0       173
@Sumon_Late_by_cycle_L2C       651      1945       417        31      2603         0
@Sumon_Early_stream_L2C         0         0         0         0         0         0         0         0         0         0         0         0
@Sumon_Early_CS_L2C         0         0         0         0         0         0         0         0         0         0         0         0
@Sumon_Early_CPLX_L2C         0         0         0         0         0         0         0         0         0         0         0         0
@Sumon_Late_stream_L2C         0         0         0         0         0         0
@Sumon_Late_CS_L2C         0         0         0         0         0         0
@Sumon_Late_CPLX_L2C         0         0         0         0         0         0
DRAM PAGES: 1048576
Allocated PAGES: 8326
