Initialize SIGNATURE TABLE
ST_SET: 1
ST_WAY: 256
ST_TAG_BIT: 16
ST_TAG_MASK: ffff

Initialize PATTERN TABLE
PT_SET: 512
PT_WAY: 4
SIG_DELTA_BIT: 7
C_SIG_BIT: 4
C_DELTA_BIT: 4

Initialize PREFETCH FILTER
FILTER_SET: 1024

*** ChampSim Multicore Out-of-Order Simulator ***

Warmup Instructions: 10000000
Simulation Instructions: 50000000
Number of CPUs: 1
LLC sets: 2048
LLC ways: 16
Off-chip DRAM Size: 4096 MB Channels: 1 Width: 64-bit Data Rate: 800 MT/s
CPU 0 runs traces/clientserver/server_010.champsimtrace.xz
.xz
CPU 0 Bimodal branch predictor
BTB has LRU replacement policy
ITLB has LRU replacement policy
DTLB has LRU replacement policy
STLB has LRU replacement policy
L1I has LRU replacement policy
L1D has LRU replacement policy
ST_WAYS: 256
PT_SETS: 512
L2C has LRU replacement policy
LLC has LRU replacement policy
Heartbeat CPU 0 instructions: 10000001 cycles: 2771654 heartbeat IPC: 3.60795 cumulative IPC: 3.60795 (Simulation time: 3 hr 3 min 51 sec) 

Warmup complete CPU 0 instructions: 10000001 cycles: 2771654 (Simulation time: 3 hr 3 min 53 sec) 

Heartbeat CPU 0 instructions: 20000002 cycles: 23710104 heartbeat IPC: 0.47759 cumulative IPC: 0.47759 (Simulation time: 3 hr 11 min 3 sec) 
Heartbeat CPU 0 instructions: 30000001 cycles: 44288616 heartbeat IPC: 0.485944 cumulative IPC: 0.481731 (Simulation time: 3 hr 22 min 50 sec) 
Heartbeat CPU 0 instructions: 40000000 cycles: 64720333 heartbeat IPC: 0.489435 cumulative IPC: 0.484272 (Simulation time: 3 hr 39 min 4 sec) 
Heartbeat CPU 0 instructions: 50000000 cycles: 85423037 heartbeat IPC: 0.483029 cumulative IPC: 0.48396 (Simulation time: 3 hr 56 min 9 sec) 
Heartbeat CPU 0 instructions: 60000001 cycles: 105662786 heartbeat IPC: 0.494077 cumulative IPC: 0.485951 (Simulation time: 4 hr 11 min 58 sec) 
Finished CPU 0 instructions: 50000000 cycles: 102891132 cumulative IPC: 0.48595 (Simulation time: 4 hr 11 min 58 sec) 

ChampSim completed all CPUs

Region of Interest Statistics

CPU 0 cumulative IPC: 0.48595 instructions: 50000000 cycles: 102891132
ITLB TOTAL     ACCESS:    7878732  HIT:    7680783  MISS:     197949  HIT %:    97.4876  MISS %:    2.51245   MPKI: 3.95898
ITLB LOAD TRANSLATION ACCESS:    7878732  HIT:    7680783  MISS:     197949  HIT %:    97.4876  MISS %:    2.51245   MPKI: 3.95898
ITLB PREFETCH  REQUESTED:          0  ISSUED:          0  USEFUL:          0  USELESS:          0
ITLB USEFUL LOAD PREFETCHES:          0 PREFETCH ISSUED TO LOWER LEVEL:          0  ACCURACY: -nan
ITLB TIMELY PREFETCHES:          0 LATE PREFETCHES: 0 DROPPED PREFETCHES: 0
ITLB PREFETCHES SAME FILL-ORIGIN LEVEL: 0 DIFFERENT FILL-ORIGIN LEVEL: 0
ITLB AVERAGE MISS LATENCY: 17.3092 cycles
ITLB RQ	ACCESS:    9691851	FORWARD:          0	MERGED:    1761828	TO_CACHE:    7930023

DTLB TOTAL     ACCESS:   10010034  HIT:    9365890  MISS:     644144  HIT %:     93.565  MISS %:    6.43498   MPKI: 12.8829
DTLB LOAD TRANSLATION ACCESS:   10010034  HIT:    9365890  MISS:     644144  HIT %:     93.565  MISS %:    6.43498   MPKI: 12.8829
DTLB PREFETCH  REQUESTED:          0  ISSUED:          0  USEFUL:          0  USELESS:          0
DTLB USEFUL LOAD PREFETCHES:          0 PREFETCH ISSUED TO LOWER LEVEL:          0  ACCURACY: -nan
DTLB TIMELY PREFETCHES:          0 LATE PREFETCHES: 0 DROPPED PREFETCHES: 0
DTLB PREFETCHES SAME FILL-ORIGIN LEVEL: 0 DIFFERENT FILL-ORIGIN LEVEL: 0
DTLB AVERAGE MISS LATENCY: 15.065 cycles
DTLB RQ	ACCESS:   12371732	FORWARD:          0	MERGED:    2324948	TO_CACHE:   10046784

STLB TOTAL     ACCESS:     842093  HIT:     721480  MISS:     120613  HIT %:     85.677  MISS %:     14.323   MPKI: 2.41226
STLB LOAD TRANSLATION ACCESS:     842093  HIT:     721480  MISS:     120613  HIT %:     85.677  MISS %:     14.323   MPKI: 2.41226
STLB PREFETCH  REQUESTED:          0  ISSUED:          0  USEFUL:          0  USELESS:          0
STLB USEFUL LOAD PREFETCHES:          0 PREFETCH ISSUED TO LOWER LEVEL:          0  ACCURACY: -nan
STLB TIMELY PREFETCHES:          0 LATE PREFETCHES: 0 DROPPED PREFETCHES: 0
STLB PREFETCHES SAME FILL-ORIGIN LEVEL: 0 DIFFERENT FILL-ORIGIN LEVEL: 0
STLB AVERAGE MISS LATENCY: 45.9186 cycles
STLB RQ	ACCESS:     842093	FORWARD:          0	MERGED:          0	TO_CACHE:     842093

STLB Hit, L1D data hit: 0
STLB Hit, L2C data hit: 0
STLB Hit, LLC data hit: 0
STLB Hit, LLC data miss: 0
STLB STLB hints to L2: 0
L1D TOTAL     ACCESS:   12225405  HIT:   11575189  MISS:     650216  HIT %:    94.6814  MISS %:    5.31856   MPKI: 13.0043
L1D LOAD      ACCESS:    7218901  HIT:    6662096  MISS:     556805  HIT %:    92.2868  MISS %:    7.71315   MPKI: 11.1361
L1D RFO       ACCESS:    5006504  HIT:    4913093  MISS:      93411  HIT %:    98.1342  MISS %:    1.86579   MPKI: 1.86822
L1D PREFETCH  REQUESTED:          0  ISSUED:          0  USEFUL:          0  USELESS:          0
L1D USEFUL LOAD PREFETCHES:          0 PREFETCH ISSUED TO LOWER LEVEL:          0  ACCURACY: -nan
L1D TIMELY PREFETCHES:          0 LATE PREFETCHES: 0 DROPPED PREFETCHES: 0
L1D PREFETCHES SAME FILL-ORIGIN LEVEL: 0 DIFFERENT FILL-ORIGIN LEVEL: 0
L1D AVERAGE MISS LATENCY: 40.8987 cycles
L1D RQ	ACCESS:   10645907	FORWARD:          0	MERGED:    3316384	TO_CACHE:    7250058
L1D WQ	ACCESS:    5204839	FORWARD:      79465	MERGED:      83165	TO_CACHE:    5121674

L1D UNIQUE REGIONS ACCESSED: 0
L1D REGIONS CONFLICTS: 0
L1D Cross Page Prefetch Requests: 0
L1D Same Page Prefetch Requests: 0
L1D ROI Sum of L1D PQ occupancy: 0
L1D PREFETCHES PUSHED FROM L2C: 0
L1I TOTAL     ACCESS:    9266733  HIT:    7963437  MISS:    1303296  HIT %:    85.9358  MISS %:    14.0642   MPKI: 26.0659
L1I LOAD      ACCESS:    9266733  HIT:    7963437  MISS:    1303296  HIT %:    85.9358  MISS %:    14.0642   MPKI: 26.0659
L1I PREFETCH  REQUESTED:          0  ISSUED:          0  USEFUL:          0  USELESS:          0
L1I USEFUL LOAD PREFETCHES:          0 PREFETCH ISSUED TO LOWER LEVEL:          0  ACCURACY: -nan
L1I TIMELY PREFETCHES:          0 LATE PREFETCHES: 0 DROPPED PREFETCHES: 0
L1I PREFETCHES SAME FILL-ORIGIN LEVEL: 0 DIFFERENT FILL-ORIGIN LEVEL: 0
L1I AVERAGE MISS LATENCY: 29.567 cycles
L1I RQ	ACCESS:   13846931	FORWARD:          0	MERGED:    4155080	TO_CACHE:    9691851

BTB TOTAL     ACCESS:    4464599  HIT:    3665549  MISS:     799050  HIT %:    82.1025  MISS %:    17.8975   MPKI: 15.981
BTB BRANCH_DIRECT_JUMP	ACCESS:     455305  HIT:     390833  MISS:      64472
BTB BRANCH_INDIRECT	ACCESS:     153269  HIT:     119707  MISS:      33562
BTB BRANCH_CONDITIONAL	ACCESS:    2152760  HIT:    1888424  MISS:     264336
BTB BRANCH_DIRECT_CALL	ACCESS:     666812  HIT:     545280  MISS:     121532
BTB BRANCH_INDIRECT_CALL	ACCESS:     167985  HIT:     155714  MISS:      12271
BTB BRANCH_RETURN	ACCESS:     868468  HIT:     565591  MISS:     302877
BTB BRANCH_OTHER ACCESS:          0  HIT:          0  MISS:          0

L2C TOTAL     ACCESS:    2468093  HIT:    1408140  MISS:    1059953  HIT %:    57.0538  MISS %:    42.9462   MPKI: 21.1991
L2C LOAD      ACCESS:    1860080  HIT:     936492  MISS:     923588  HIT %:    50.3469  MISS %:    49.6531   MPKI: 18.4718
L2C DATA LOAD MPKI: 6.27114
L2C INSTRUCTION LOAD MPKI: 12.2006
L2C RFO       ACCESS:      93410  HIT:      33825  MISS:      59585  HIT %:    36.2113  MISS %:    63.7887   MPKI: 1.1917
L2C PREFETCH  ACCESS:     101618  HIT:      91597  MISS:      10021  HIT %:    90.1386  MISS %:    9.86144   MPKI: 0.20042
L2C DATA PREFETCH MPKI: 0.20042
L2C INSTRUCTION PREFETCH MPKI: 0
L2C WRITEBACK ACCESS:     260098  HIT:     257614  MISS:       2484  HIT %:     99.045  MISS %:   0.955025   MPKI: 0.04968
L2C LOAD TRANSLATION ACCESS:     152887  HIT:      88612  MISS:      64275  HIT %:    57.9591  MISS %:    42.0409   MPKI: 1.2855
L2C PREFETCH  REQUESTED:     526637  ISSUED:     526625  USEFUL:       9134  USELESS:        880
L2C USEFUL LOAD PREFETCHES:       9134 PREFETCH ISSUED TO LOWER LEVEL:     416872  ACCURACY: 2.19108
L2C TIMELY PREFETCHES:       9134 LATE PREFETCHES: 1056 DROPPED PREFETCHES: 0
L2C PREFETCHES SAME FILL-ORIGIN LEVEL: 11077 DIFFERENT FILL-ORIGIN LEVEL: 405795
L2C AVERAGE MISS LATENCY: 37.3479 cycles
L2C RQ	ACCESS:    2106400	FORWARD:          0	MERGED:          0	TO_CACHE:    2106378
L2C WQ	ACCESS:     260099	FORWARD:         22	MERGED:          0	TO_CACHE:     260099
L2C PQ	ACCESS:     526625	FORWARD:          0	MERGED:       7187	TO_CACHE:     519438

L2C Instructions Evicting Data 220769
L2C Translations Evicting Data 24122
L2C Data Evicting Data 140210
L2C Instructions Evicting Instructions 351950
L2C Translations Evicting Instructions 36244
L2C Data Evicting Instructions 219955
L2C Instructions Evicting Translations 37312
L2C Translations Evicting Translations 3909
L2C Data Evicting Translations 22998
L2C Dense regions hint from L2: 0
PSCL5 TOTAL     ACCESS:     120613  HIT:     120613  MISS:          0  HIT %:        100  MISS %:          0   MPKI: 0
PSCL5 LOAD TRANSLATION ACCESS:     120613  HIT:     120613  MISS:          0  HIT %:        100  MISS %:          0   MPKI: 0
PSCL5 PREFETCH  REQUESTED:          0  ISSUED:          0  USEFUL:          0  USELESS:          0
PSCL5 USEFUL LOAD PREFETCHES:          0 PREFETCH ISSUED TO LOWER LEVEL:          0  ACCURACY: -nan
PSCL5 TIMELY PREFETCHES:          0 LATE PREFETCHES: 0 DROPPED PREFETCHES: 0
PSCL5 PREFETCHES SAME FILL-ORIGIN LEVEL: 0 DIFFERENT FILL-ORIGIN LEVEL: 0

PSCL4 TOTAL     ACCESS:     113080  HIT:     112736  MISS:        344  HIT %:    99.6958  MISS %:   0.304209   MPKI: 0.00688
PSCL4 LOAD TRANSLATION ACCESS:     113080  HIT:     112736  MISS:        344  HIT %:    99.6958  MISS %:   0.304209   MPKI: 0.00688
PSCL4 PREFETCH  REQUESTED:          0  ISSUED:          0  USEFUL:          0  USELESS:          0
PSCL4 USEFUL LOAD PREFETCHES:          0 PREFETCH ISSUED TO LOWER LEVEL:          0  ACCURACY: -nan
PSCL4 TIMELY PREFETCHES:          0 LATE PREFETCHES: 0 DROPPED PREFETCHES: 0
PSCL4 PREFETCHES SAME FILL-ORIGIN LEVEL: 0 DIFFERENT FILL-ORIGIN LEVEL: 0

PSCL3 TOTAL     ACCESS:     119694  HIT:     118695  MISS:        999  HIT %:    99.1654  MISS %:   0.834628   MPKI: 0.01998
PSCL3 LOAD TRANSLATION ACCESS:     119694  HIT:     118695  MISS:        999  HIT %:    99.1654  MISS %:   0.834628   MPKI: 0.01998
PSCL3 PREFETCH  REQUESTED:          0  ISSUED:          0  USEFUL:          0  USELESS:          0
PSCL3 USEFUL LOAD PREFETCHES:          0 PREFETCH ISSUED TO LOWER LEVEL:          0  ACCURACY: -nan
PSCL3 TIMELY PREFETCHES:          0 LATE PREFETCHES: 0 DROPPED PREFETCHES: 0
PSCL3 PREFETCHES SAME FILL-ORIGIN LEVEL: 0 DIFFERENT FILL-ORIGIN LEVEL: 0

PSCL2 TOTAL     ACCESS:     120613  HIT:      89618  MISS:      30995  HIT %:    74.3021  MISS %:    25.6979   MPKI: 0.6199
PSCL2 LOAD TRANSLATION ACCESS:     120613  HIT:      89618  MISS:      30995  HIT %:    74.3021  MISS %:    25.6979   MPKI: 0.6199
PSCL2 PREFETCH  REQUESTED:          0  ISSUED:          0  USEFUL:          0  USELESS:          0
PSCL2 USEFUL LOAD PREFETCHES:          0 PREFETCH ISSUED TO LOWER LEVEL:          0  ACCURACY: -nan
PSCL2 TIMELY PREFETCHES:          0 LATE PREFETCHES: 0 DROPPED PREFETCHES: 0
PSCL2 PREFETCHES SAME FILL-ORIGIN LEVEL: 0 DIFFERENT FILL-ORIGIN LEVEL: 0

LLC TOTAL     ACCESS:    1616295  HIT:    1516234  MISS:     100061  HIT %:    93.8092  MISS %:    6.19076   MPKI: 2.00122
LLC LOAD      ACCESS:     922533  HIT:     892971  MISS:      29562  HIT %:    96.7956  MISS %:    3.20444   MPKI: 0.59124
LLC RFO       ACCESS:      59582  HIT:      49518  MISS:      10064  HIT %:     83.109  MISS %:     16.891   MPKI: 0.20128
LLC PREFETCH  ACCESS:     407629  HIT:     349337  MISS:      58292  HIT %:    85.6997  MISS %:    14.3003   MPKI: 1.16584
LLC WRITEBACK ACCESS:     162276  HIT:     162116  MISS:        160  HIT %:    99.9014  MISS %:  0.0985975   MPKI: 0.0032
LLC LOAD TRANSLATION ACCESS:      64275  HIT:      62292  MISS:       1983  HIT %:    96.9148  MISS %:    3.08518   MPKI: 0.03966
LLC PREFETCH  REQUESTED:          0  ISSUED:          0  USEFUL:      31161  USELESS:      27004
LLC USEFUL LOAD PREFETCHES:      31161 PREFETCH ISSUED TO LOWER LEVEL:      59460  ACCURACY: 52.4067
LLC TIMELY PREFETCHES:      31161 LATE PREFETCHES: 1168 DROPPED PREFETCHES: 0
LLC PREFETCHES SAME FILL-ORIGIN LEVEL: 59269 DIFFERENT FILL-ORIGIN LEVEL: 0
LLC AVERAGE MISS LATENCY: 174.545 cycles
LLC RQ	ACCESS:    1046393	FORWARD:          0	MERGED:          0	TO_CACHE:    1046391
LLC WQ	ACCESS:     162276	FORWARD:          2	MERGED:          0	TO_CACHE:     162276
LLC PQ	ACCESS:     416872	FORWARD:          0	MERGED:       5037	TO_CACHE:     411835

LLC Dense regions hint to LLC: 0

RAW hits: 788347
Loads Generated: 11434252
Loads sent to L1D: 10645907
Stores Generated: 5204832
Stores sent to L1D: 5204839
Major fault: 0 Minor fault: 4923
Allocated PAGES: 4923
 All Calls: 667632
 Critical Calls: 667632
------------------
Depth Distribution
------------------
depth 0: 0
depth 1: 492964
depth 2: 72252
depth 3: 39321
depth 4: 19567
depth 5: 1204
depth 6: 22
depth 7: 2
depth 8: 1
depth 9: 1
depth 10: 1
depth 11: 1
depth 12: 1
depth 13: 0
depth 14: 0
depth 15: 0
depth 16: 0
depth 17: 0
depth 18: 0
depth 19: 0
depth 20: 0
depth 21: 0
depth 22: 0
depth 23: 0
depth 24: 0
depth 25: 0
depth 26: 0
depth 27: 0
depth 28: 0
depth 29: 0
Total: 625337
-----------------------------
-----------------------------
	Captured at Filter
-----------------------------
depth 0: 0
depth 1: 1703
depth 2: 222
depth 3: 41
depth 4: 15
depth 5: 4
depth 6: 0
depth 7: 0
depth 8: 0
depth 9: 0
depth 10: 0
depth 11: 0
depth 12: 0
depth 13: 0
depth 14: 0
depth 15: 0
depth 16: 0
depth 17: 0
depth 18: 0
depth 19: 0
depth 20: 0
depth 21: 0
depth 22: 0
depth 23: 0
depth 24: 0
depth 25: 0
depth 26: 0
depth 27: 0
depth 28: 0
depth 29: 0
-----------------------------
-----------------------------
		Lost at Page
-----------------------------
depth 0: 0
depth 1: 39218
depth 2: 2414
depth 3: 1987
depth 4: 1298
depth 5: 114
depth 6: 2
depth 7: 1
depth 8: 0
depth 9: 0
depth 10: 0
depth 11: 0
depth 12: 0
depth 13: 0
depth 14: 0
depth 15: 0
depth 16: 0
depth 17: 0
depth 18: 0
depth 19: 0
depth 20: 0
depth 21: 0
depth 22: 0
depth 23: 0
depth 24: 0
depth 25: 0
depth 26: 0
depth 27: 0
depth 28: 0
depth 29: 0
-----------------------------
-----------------------------
	Lost due to PQ Size
-----------------------------
1925
-----------------------------
ST read accesses: 379197
ST write accesses: 177587
PT read accesses: 6120090
PT write accesses: 442884
FILTER read accesses: 2145093
FILTER write accesses: 1091400
GHR read accesses: 1673819
GHR write accesses: 34502
GHR counter read accesses: 5466876
GHR counter write accesses: 581544
ST tag read accesses: 305344119
ST tag write accesses: 55514155

DRAM Statistics
 CHANNEL 0
 RQ ROW_BUFFER_HIT:      17957  ROW_BUFFER_MISS:      81942
 DBUS_CONGESTED:      53429
 WQ ROW_BUFFER_HIT:       8713  ROW_BUFFER_MISS:      45409  FULL:          0

 AVG_CONGESTED_CYCLE: 32
 All warmup complete: 2
Channel 0 Bank busy for read cycles: 0
Channel 0 Bank busy for write cycles: 0
Channel 0
Rank 0
0banks busy for read cycles: 86275930
0banks busy for write cycles: 28847
1banks busy for read cycles: 7604604
1banks busy for write cycles: 3908354
2banks busy for read cycles: 1925408
2banks busy for write cycles: 1089812
3banks busy for read cycles: 481573
3banks busy for write cycles: 407342
4banks busy for read cycles: 165983
4banks busy for write cycles: 224838
5banks busy for read cycles: 69875
5banks busy for write cycles: 153910
6banks busy for read cycles: 33791
6banks busy for write cycles: 121539
7banks busy for read cycles: 34349
7banks busy for write cycles: 125808
8banks busy for read cycles: 60802
8banks busy for write cycles: 178368

CPU 0 Branch Prediction Accuracy: 93.0092% MPKI: 12.962 Average ROB Occupancy at Mispredict: 22.141
Branch types
NOT_BRANCH: 40728895 81.4578%
BRANCH_DIRECT_JUMP: 455305 0.91061%
BRANCH_INDIRECT: 153269 0.306538%
BRANCH_CONDITIONAL: 6958895 13.9178%
BRANCH_DIRECT_CALL: 666812 1.33362%
BRANCH_INDIRECT_CALL: 167985 0.33597%
BRANCH_RETURN: 868468 1.73694%
BRANCH_OTHER: 0 0%

@sumon_overall_L1D         0         0         0         0         0         0
@Sumon_Early_by_class_L1D         0         0         0         0
@Sumon_Late_by_class_L1D         0         0         0         0

@Sumon_Early_by_cycle_L1D         0         0         0         0         0         0         0         0         0         0         0         0
@Sumon_Late_by_cycle_L1D         0         0         0         0         0         0         0         0         0         0         0         0
@Sumon_Early_stream_L1D         0         0         0         0         0         0         0         0         0         0         0         0
@Sumon_Early_CS_L1D         0         0         0         0         0         0         0         0         0         0         0         0
@Sumon_Early_CPLX_L1D         0         0         0         0         0         0         0         0         0         0         0         0
@Sumon_Late_stream_L1D         0         0         0         0         0         0         0         0         0         0         0         0
@Sumon_Late_CS_L1D         0         0         0         0         0         0         0         0         0         0         0         0
@Sumon_Late_CPLX_L1D         0         0         0         0         0         0         0         0         0         0         0         0
@sumon_overall_L2C      9134      1056       880     10021    526625    526637
@Sumon_Early_by_class_L2C         0         0         0         0
@Sumon_Late_by_class_L2C         0         0         0         0

@Sumon_Early_by_cycle_L2C       920      2138      1507      1101       585      1691       784       258        44         8        10        88
@Sumon_Late_by_cycle_L2C      1043        12         1         0         0         0         0         0         0         0         0         0
@Sumon_Early_stream_L2C         0         0         0         0         0         0         0         0         0         0         0         0
@Sumon_Early_CS_L2C         0         0         0         0         0         0         0         0         0         0         0         0
@Sumon_Early_CPLX_L2C         0         0         0         0         0         0         0         0         0         0         0         0
@Sumon_Late_stream_L2C         0         0         0         0         0         0         0         0         0         0         0         0
@Sumon_Late_CS_L2C         0         0         0         0         0         0         0         0         0         0         0         0
@Sumon_Late_CPLX_L2C         0         0         0         0         0         0         0         0         0         0         0         0
DRAM PAGES: 1048576
Allocated PAGES: 4923
