Initialize SIGNATURE TABLE
ST_SET: 1
ST_WAY: 256
ST_TAG_BIT: 16
ST_TAG_MASK: ffff

Initialize PATTERN TABLE
PT_SET: 512
PT_WAY: 4
SIG_DELTA_BIT: 7
C_SIG_BIT: 4
C_DELTA_BIT: 4

Initialize PREFETCH FILTER
FILTER_SET: 1024

*** ChampSim Multicore Out-of-Order Simulator ***

Warmup Instructions: 10000000
Simulation Instructions: 50000000
Number of CPUs: 1
LLC sets: 2048
LLC ways: 16
Off-chip DRAM Size: 4096 MB Channels: 1 Width: 64-bit Data Rate: 800 MT/s
CPU 0 runs traces/clientserver/server_031.champsimtrace.xz
.xz
CPU 0 Bimodal branch predictor
BTB has LRU replacement policy
ITLB has LRU replacement policy
DTLB has LRU replacement policy
STLB has LRU replacement policy
L1I has LRU replacement policy
L1D has LRU replacement policy
ST_WAYS: 256
PT_SETS: 512
L2C has LRU replacement policy
LLC has LRU replacement policy
Heartbeat CPU 0 instructions: 10000000 cycles: 2889678 heartbeat IPC: 3.46059 cumulative IPC: 3.46059 (Simulation time: 3 hr 33 min 53 sec) 

Warmup complete CPU 0 instructions: 10000004 cycles: 2889679 (Simulation time: 3 hr 33 min 56 sec) 

Heartbeat CPU 0 instructions: 20000003 cycles: 27898595 heartbeat IPC: 0.399857 cumulative IPC: 0.399857 (Simulation time: 3 hr 52 min 49 sec) 
Heartbeat CPU 0 instructions: 30000001 cycles: 52854950 heartbeat IPC: 0.400699 cumulative IPC: 0.400278 (Simulation time: 4 hr 9 min 46 sec) 
Heartbeat CPU 0 instructions: 40000002 cycles: 77719783 heartbeat IPC: 0.402174 cumulative IPC: 0.400908 (Simulation time: 4 hr 24 min 0 sec) 
Heartbeat CPU 0 instructions: 50000001 cycles: 102606300 heartbeat IPC: 0.401824 cumulative IPC: 0.401137 (Simulation time: 4 hr 35 min 57 sec) 
Heartbeat CPU 0 instructions: 60000002 cycles: 127618418 heartbeat IPC: 0.399806 cumulative IPC: 0.40087 (Simulation time: 4 hr 44 min 23 sec) 
Finished CPU 0 instructions: 50000002 cycles: 124728740 cumulative IPC: 0.40087 (Simulation time: 4 hr 44 min 23 sec) 

ChampSim completed all CPUs

Region of Interest Statistics

CPU 0 cumulative IPC: 0.40087 instructions: 50000002 cycles: 124728740
ITLB TOTAL     ACCESS:    8592382  HIT:    8040342  MISS:     552040  HIT %:    93.5752  MISS %:    6.42476   MPKI: 11.0408
ITLB LOAD TRANSLATION ACCESS:    8592382  HIT:    8040342  MISS:     552040  HIT %:    93.5752  MISS %:    6.42476   MPKI: 11.0408
ITLB PREFETCH  REQUESTED:          0  ISSUED:          0  USEFUL:          0  USELESS:          0
ITLB USEFUL LOAD PREFETCHES:          0 PREFETCH ISSUED TO LOWER LEVEL:          0  ACCURACY: -nan
ITLB TIMELY PREFETCHES:          0 LATE PREFETCHES: 0 DROPPED PREFETCHES: 0
ITLB PREFETCHES SAME FILL-ORIGIN LEVEL: 0 DIFFERENT FILL-ORIGIN LEVEL: 0
ITLB AVERAGE MISS LATENCY: 9.14254 cycles
ITLB RQ	ACCESS:   10311809	FORWARD:          0	MERGED:    1580279	TO_CACHE:    8731530

DTLB TOTAL     ACCESS:   12557280  HIT:   11996968  MISS:     560312  HIT %:     95.538  MISS %:    4.46205   MPKI: 11.2062
DTLB LOAD TRANSLATION ACCESS:   12557280  HIT:   11996968  MISS:     560312  HIT %:     95.538  MISS %:    4.46205   MPKI: 11.2062
DTLB PREFETCH  REQUESTED:          0  ISSUED:          0  USEFUL:          0  USELESS:          0
DTLB USEFUL LOAD PREFETCHES:          0 PREFETCH ISSUED TO LOWER LEVEL:          0  ACCURACY: -nan
DTLB TIMELY PREFETCHES:          0 LATE PREFETCHES: 0 DROPPED PREFETCHES: 0
DTLB PREFETCHES SAME FILL-ORIGIN LEVEL: 0 DIFFERENT FILL-ORIGIN LEVEL: 0
DTLB AVERAGE MISS LATENCY: 11.5012 cycles
DTLB RQ	ACCESS:   15691997	FORWARD:          0	MERGED:    3116086	TO_CACHE:   12575911

STLB TOTAL     ACCESS:    1112352  HIT:    1098516  MISS:      13836  HIT %:    98.7561  MISS %:    1.24385   MPKI: 0.27672
STLB LOAD TRANSLATION ACCESS:    1112352  HIT:    1098516  MISS:      13836  HIT %:    98.7561  MISS %:    1.24385   MPKI: 0.27672
STLB PREFETCH  REQUESTED:          0  ISSUED:          0  USEFUL:          0  USELESS:          0
STLB USEFUL LOAD PREFETCHES:          0 PREFETCH ISSUED TO LOWER LEVEL:          0  ACCURACY: -nan
STLB TIMELY PREFETCHES:          0 LATE PREFETCHES: 0 DROPPED PREFETCHES: 0
STLB PREFETCHES SAME FILL-ORIGIN LEVEL: 0 DIFFERENT FILL-ORIGIN LEVEL: 0
STLB AVERAGE MISS LATENCY: 106.031 cycles
STLB RQ	ACCESS:    1112352	FORWARD:          0	MERGED:          0	TO_CACHE:    1112352

STLB Hit, L1D data hit: 0
STLB Hit, L2C data hit: 0
STLB Hit, LLC data hit: 0
STLB Hit, LLC data miss: 0
STLB STLB hints to L2: 0
L1D TOTAL     ACCESS:   15207759  HIT:   13960514  MISS:    1247245  HIT %:    91.7986  MISS %:    8.20137   MPKI: 24.9449
L1D LOAD      ACCESS:    8707032  HIT:    7764886  MISS:     942146  HIT %:    89.1795  MISS %:    10.8205   MPKI: 18.8429
L1D RFO       ACCESS:    6500727  HIT:    6195628  MISS:     305099  HIT %:    95.3067  MISS %:    4.69331   MPKI: 6.10198
L1D PREFETCH  REQUESTED:          0  ISSUED:          0  USEFUL:          0  USELESS:          0
L1D USEFUL LOAD PREFETCHES:          0 PREFETCH ISSUED TO LOWER LEVEL:          0  ACCURACY: -nan
L1D TIMELY PREFETCHES:          0 LATE PREFETCHES: 0 DROPPED PREFETCHES: 0
L1D PREFETCHES SAME FILL-ORIGIN LEVEL: 0 DIFFERENT FILL-ORIGIN LEVEL: 0
L1D AVERAGE MISS LATENCY: 22.5589 cycles
L1D RQ	ACCESS:   11874577	FORWARD:          0	MERGED:    3004378	TO_CACHE:    8747982
L1D WQ	ACCESS:    6988846	FORWARD:     122217	MERGED:      44831	TO_CACHE:    6944015

L1D UNIQUE REGIONS ACCESSED: 0
L1D REGIONS CONFLICTS: 0
L1D Cross Page Prefetch Requests: 0
L1D Same Page Prefetch Requests: 0
L1D ROI Sum of L1D PQ occupancy: 0
L1D PREFETCHES PUSHED FROM L2C: 0
L1I TOTAL     ACCESS:    9785485  HIT:    6778210  MISS:    3007275  HIT %:     69.268  MISS %:     30.732   MPKI: 60.1455
L1I LOAD      ACCESS:    9785485  HIT:    6778210  MISS:    3007275  HIT %:     69.268  MISS %:     30.732   MPKI: 60.1455
L1I PREFETCH  REQUESTED:          0  ISSUED:          0  USEFUL:          0  USELESS:          0
L1I USEFUL LOAD PREFETCHES:          0 PREFETCH ISSUED TO LOWER LEVEL:          0  ACCURACY: -nan
L1I TIMELY PREFETCHES:          0 LATE PREFETCHES: 0 DROPPED PREFETCHES: 0
L1I PREFETCHES SAME FILL-ORIGIN LEVEL: 0 DIFFERENT FILL-ORIGIN LEVEL: 0
L1I AVERAGE MISS LATENCY: 16.5591 cycles
L1I RQ	ACCESS:   14050686	FORWARD:          0	MERGED:    3738877	TO_CACHE:   10311809

BTB TOTAL     ACCESS:    6102276  HIT:    4206282  MISS:    1895994  HIT %:    68.9297  MISS %:    31.0703   MPKI: 37.9199
BTB BRANCH_DIRECT_JUMP	ACCESS:     546758  HIT:     394739  MISS:     152019
BTB BRANCH_INDIRECT	ACCESS:     172660  HIT:     135870  MISS:      36790
BTB BRANCH_CONDITIONAL	ACCESS:    2968197  HIT:    2446713  MISS:     521484
BTB BRANCH_DIRECT_CALL	ACCESS:    1018538  HIT:     647411  MISS:     371127
BTB BRANCH_INDIRECT_CALL	ACCESS:     188789  HIT:     117745  MISS:      71044
BTB BRANCH_RETURN	ACCESS:    1207334  HIT:     463804  MISS:     743530
BTB BRANCH_OTHER ACCESS:          0  HIT:          0  MISS:          0

L2C TOTAL     ACCESS:    5403928  HIT:    4994142  MISS:     409786  HIT %:    92.4169  MISS %:    7.58311   MPKI: 8.19572
L2C LOAD      ACCESS:    3949418  HIT:    3590816  MISS:     358602  HIT %:    90.9201  MISS %:    9.07987   MPKI: 7.17204
L2C DATA LOAD MPKI: 2.36612
L2C INSTRUCTION LOAD MPKI: 4.80592
L2C RFO       ACCESS:     305097  HIT:     270939  MISS:      34158  HIT %:    88.8042  MISS %:    11.1958   MPKI: 0.68316
L2C PREFETCH  ACCESS:     550423  HIT:     548348  MISS:       2075  HIT %:     99.623  MISS %:   0.376983   MPKI: 0.0415
L2C DATA PREFETCH MPKI: 0.0415
L2C INSTRUCTION PREFETCH MPKI: 0
L2C WRITEBACK ACCESS:     578019  HIT:     573786  MISS:       4233  HIT %:    99.2677  MISS %:   0.732329   MPKI: 0.08466
L2C LOAD TRANSLATION ACCESS:      20971  HIT:      10253  MISS:      10718  HIT %:    48.8913  MISS %:    51.1087   MPKI: 0.21436
L2C PREFETCH  REQUESTED:    1062849  ISSUED:    1062849  USEFUL:       1058  USELESS:       1008
L2C USEFUL LOAD PREFETCHES:       1058 PREFETCH ISSUED TO LOWER LEVEL:     481121  ACCURACY: 0.219903
L2C TIMELY PREFETCHES:       1058 LATE PREFETCHES: 424 DROPPED PREFETCHES: 0
L2C PREFETCHES SAME FILL-ORIGIN LEVEL: 2499 DIFFERENT FILL-ORIGIN LEVEL: 478622
L2C AVERAGE MISS LATENCY: 42.9711 cycles
L2C RQ	ACCESS:    4275489	FORWARD:          0	MERGED:          0	TO_CACHE:    4275486
L2C WQ	ACCESS:     578019	FORWARD:          3	MERGED:          0	TO_CACHE:     578019
L2C PQ	ACCESS:    1062849	FORWARD:          0	MERGED:      26501	TO_CACHE:    1036348

L2C Instructions Evicting Data 74343
L2C Translations Evicting Data 6674
L2C Data Evicting Data 77067
L2C Instructions Evicting Instructions 162805
L2C Translations Evicting Instructions 3022
L2C Data Evicting Instructions 70872
L2C Instructions Evicting Translations 3148
L2C Translations Evicting Translations 1022
L2C Data Evicting Translations 6597
L2C Dense regions hint from L2: 0
PSCL5 TOTAL     ACCESS:      13836  HIT:      13836  MISS:          0  HIT %:        100  MISS %:          0   MPKI: 0
PSCL5 LOAD TRANSLATION ACCESS:      13836  HIT:      13836  MISS:          0  HIT %:        100  MISS %:          0   MPKI: 0
PSCL5 PREFETCH  REQUESTED:          0  ISSUED:          0  USEFUL:          0  USELESS:          0
PSCL5 USEFUL LOAD PREFETCHES:          0 PREFETCH ISSUED TO LOWER LEVEL:          0  ACCURACY: -nan
PSCL5 TIMELY PREFETCHES:          0 LATE PREFETCHES: 0 DROPPED PREFETCHES: 0
PSCL5 PREFETCHES SAME FILL-ORIGIN LEVEL: 0 DIFFERENT FILL-ORIGIN LEVEL: 0

PSCL4 TOTAL     ACCESS:      13206  HIT:      13033  MISS:        173  HIT %:      98.69  MISS %:    1.31001   MPKI: 0.00346
PSCL4 LOAD TRANSLATION ACCESS:      13206  HIT:      13033  MISS:        173  HIT %:      98.69  MISS %:    1.31001   MPKI: 0.00346
PSCL4 PREFETCH  REQUESTED:          0  ISSUED:          0  USEFUL:          0  USELESS:          0
PSCL4 USEFUL LOAD PREFETCHES:          0 PREFETCH ISSUED TO LOWER LEVEL:          0  ACCURACY: -nan
PSCL4 TIMELY PREFETCHES:          0 LATE PREFETCHES: 0 DROPPED PREFETCHES: 0
PSCL4 PREFETCHES SAME FILL-ORIGIN LEVEL: 0 DIFFERENT FILL-ORIGIN LEVEL: 0

PSCL3 TOTAL     ACCESS:      13807  HIT:      13634  MISS:        173  HIT %:     98.747  MISS %:    1.25299   MPKI: 0.00346
PSCL3 LOAD TRANSLATION ACCESS:      13807  HIT:      13634  MISS:        173  HIT %:     98.747  MISS %:    1.25299   MPKI: 0.00346
PSCL3 PREFETCH  REQUESTED:          0  ISSUED:          0  USEFUL:          0  USELESS:          0
PSCL3 USEFUL LOAD PREFETCHES:          0 PREFETCH ISSUED TO LOWER LEVEL:          0  ACCURACY: -nan
PSCL3 TIMELY PREFETCHES:          0 LATE PREFETCHES: 0 DROPPED PREFETCHES: 0
PSCL3 PREFETCHES SAME FILL-ORIGIN LEVEL: 0 DIFFERENT FILL-ORIGIN LEVEL: 0

PSCL2 TOTAL     ACCESS:      13836  HIT:       7041  MISS:       6795  HIT %:     50.889  MISS %:     49.111   MPKI: 0.1359
PSCL2 LOAD TRANSLATION ACCESS:      13836  HIT:       7041  MISS:       6795  HIT %:     50.889  MISS %:     49.111   MPKI: 0.1359
PSCL2 PREFETCH  REQUESTED:          0  ISSUED:          0  USEFUL:          0  USELESS:          0
PSCL2 USEFUL LOAD PREFETCHES:          0 PREFETCH ISSUED TO LOWER LEVEL:          0  ACCURACY: -nan
PSCL2 TIMELY PREFETCHES:          0 LATE PREFETCHES: 0 DROPPED PREFETCHES: 0
PSCL2 PREFETCHES SAME FILL-ORIGIN LEVEL: 0 DIFFERENT FILL-ORIGIN LEVEL: 0

LLC TOTAL     ACCESS:     933575  HIT:     874996  MISS:      58579  HIT %:    93.7253  MISS %:     6.2747   MPKI: 1.17158
LLC LOAD      ACCESS:     358178  HIT:     334550  MISS:      23628  HIT %:    93.4033  MISS %:    6.59672   MPKI: 0.47256
LLC RFO       ACCESS:      34158  HIT:      31431  MISS:       2727  HIT %:    92.0165  MISS %:    7.98349   MPKI: 0.05454
LLC PREFETCH  ACCESS:     471663  HIT:     442152  MISS:      29511  HIT %:    93.7432  MISS %:     6.2568   MPKI: 0.59022
LLC WRITEBACK ACCESS:      58858  HIT:      58503  MISS:        355  HIT %:    99.3969  MISS %:   0.603147   MPKI: 0.0071
LLC LOAD TRANSLATION ACCESS:      10718  HIT:       8360  MISS:       2358  HIT %:    77.9996  MISS %:    22.0004   MPKI: 0.04716
LLC PREFETCH  REQUESTED:          0  ISSUED:          0  USEFUL:       9577  USELESS:      18384
LLC USEFUL LOAD PREFETCHES:       9577 PREFETCH ISSUED TO LOWER LEVEL:      32382  ACCURACY: 29.5751
LLC TIMELY PREFETCHES:       9577 LATE PREFETCHES: 2871 DROPPED PREFETCHES: 0
LLC PREFETCHES SAME FILL-ORIGIN LEVEL: 32251 DIFFERENT FILL-ORIGIN LEVEL: 0
LLC AVERAGE MISS LATENCY: 182.103 cycles
LLC RQ	ACCESS:     403054	FORWARD:          0	MERGED:          0	TO_CACHE:     403054
LLC WQ	ACCESS:      58858	FORWARD:          0	MERGED:          0	TO_CACHE:      58858
LLC PQ	ACCESS:     481121	FORWARD:          0	MERGED:        991	TO_CACHE:     480130

LLC Dense regions hint to LLC: 0

RAW hits: 582407
Loads Generated: 12456984
Loads sent to L1D: 11874577
Stores Generated: 6988844
Stores sent to L1D: 6988846
Major fault: 0 Minor fault: 5588
Allocated PAGES: 5588
 All Calls: 1135921
 Critical Calls: 1135921
------------------
Depth Distribution
------------------
depth 0: 0
depth 1: 1136998
depth 2: 115688
depth 3: 25727
depth 4: 6099
depth 5: 483
depth 6: 95
depth 7: 69
depth 8: 49
depth 9: 34
depth 10: 17
depth 11: 5
depth 12: 1
depth 13: 0
depth 14: 0
depth 15: 0
depth 16: 0
depth 17: 0
depth 18: 0
depth 19: 0
depth 20: 0
depth 21: 0
depth 22: 0
depth 23: 0
depth 24: 0
depth 25: 0
depth 26: 0
depth 27: 0
depth 28: 0
depth 29: 0
Total: 1285265
-----------------------------
-----------------------------
	Captured at Filter
-----------------------------
depth 0: 0
depth 1: 53938
depth 2: 29042
depth 3: 15786
depth 4: 6460
depth 5: 425
depth 6: 38
depth 7: 10
depth 8: 2
depth 9: 0
depth 10: 0
depth 11: 0
depth 12: 0
depth 13: 0
depth 14: 0
depth 15: 0
depth 16: 0
depth 17: 0
depth 18: 0
depth 19: 0
depth 20: 0
depth 21: 0
depth 22: 0
depth 23: 0
depth 24: 0
depth 25: 0
depth 26: 0
depth 27: 0
depth 28: 0
depth 29: 0
-----------------------------
-----------------------------
		Lost at Page
-----------------------------
depth 0: 0
depth 1: 77329
depth 2: 5851
depth 3: 1262
depth 4: 627
depth 5: 55
depth 6: 11
depth 7: 5
depth 8: 2
depth 9: 0
depth 10: 0
depth 11: 0
depth 12: 0
depth 13: 0
depth 14: 0
depth 15: 0
depth 16: 0
depth 17: 0
depth 18: 0
depth 19: 0
depth 20: 0
depth 21: 0
depth 22: 0
depth 23: 0
depth 24: 0
depth 25: 0
depth 26: 0
depth 27: 0
depth 28: 0
depth 29: 0
-----------------------------
-----------------------------
	Lost due to PQ Size
-----------------------------
3454
-----------------------------
ST read accesses: 725099
ST write accesses: 217046
PT read accesses: 10362439
PT write accesses: 907820
FILTER read accesses: 2484873
FILTER write accesses: 445573
GHR read accesses: 2255386
GHR write accesses: 66739
GHR counter read accesses: 9428742
GHR counter write accesses: 971540
ST tag read accesses: 468346587
ST tag write accesses: 78548704

DRAM Statistics
 CHANNEL 0
 RQ ROW_BUFFER_HIT:      16720  ROW_BUFFER_MISS:      41504
 DBUS_CONGESTED:      28164
 WQ ROW_BUFFER_HIT:        389  ROW_BUFFER_MISS:       1299  FULL:          0

 AVG_CONGESTED_CYCLE: 32
 All warmup complete: 2
Channel 0 Bank busy for read cycles: 0
Channel 0 Bank busy for write cycles: 0
Channel 0
Rank 0
0banks busy for read cycles: 119778939
0banks busy for write cycles: 1202
1banks busy for read cycles: 2444652
1banks busy for write cycles: 229516
2banks busy for read cycles: 1168238
2banks busy for write cycles: 44686
3banks busy for read cycles: 604863
3banks busy for write cycles: 16590
4banks busy for read cycles: 236521
4banks busy for write cycles: 3158
5banks busy for read cycles: 84300
5banks busy for write cycles: 1480
6banks busy for read cycles: 26723
6banks busy for write cycles: 666
7banks busy for read cycles: 15817
7banks busy for write cycles: 143
8banks busy for read cycles: 68320
8banks busy for write cycles: 2927

CPU 0 Branch Prediction Accuracy: 91.8928% MPKI: 15.1591 Average ROB Occupancy at Mispredict: 19.6148
Branch types
NOT_BRANCH: 40650622 81.3012%
BRANCH_DIRECT_JUMP: 546758 1.09352%
BRANCH_INDIRECT: 172660 0.34532%
BRANCH_CONDITIONAL: 6215041 12.4301%
BRANCH_DIRECT_CALL: 1018538 2.03708%
BRANCH_INDIRECT_CALL: 188789 0.377578%
BRANCH_RETURN: 1207334 2.41467%
BRANCH_OTHER: 0 0%

@sumon_overall_L1D         0         0         0         0         0         0
@Sumon_Early_by_class_L1D         0         0         0         0
@Sumon_Late_by_class_L1D         0         0         0         0

@Sumon_Early_by_cycle_L1D         0         0         0         0         0         0         0         0         0         0         0         0
@Sumon_Late_by_cycle_L1D         0         0         0         0         0         0         0         0         0         0         0         0
@Sumon_Early_stream_L1D         0         0         0         0         0         0         0         0         0         0         0         0
@Sumon_Early_CS_L1D         0         0         0         0         0         0         0         0         0         0         0         0
@Sumon_Early_CPLX_L1D         0         0         0         0         0         0         0         0         0         0         0         0
@Sumon_Late_stream_L1D         0         0         0         0         0         0         0         0         0         0         0         0
@Sumon_Late_CS_L1D         0         0         0         0         0         0         0         0         0         0         0         0
@Sumon_Late_CPLX_L1D         0         0         0         0         0         0         0         0         0         0         0         0
@sumon_overall_L2C      1058       424      1008      2075   1062849   1062849
@Sumon_Early_by_class_L2C         0         0         0         0
@Sumon_Late_by_class_L2C         0         0         0         0

@Sumon_Early_by_cycle_L2C       591        16        20         2        36       280        80         1        11         6         2        13
@Sumon_Late_by_cycle_L2C       409        14         1         0         0         0         0         0         0         0         0         0
@Sumon_Early_stream_L2C         0         0         0         0         0         0         0         0         0         0         0         0
@Sumon_Early_CS_L2C         0         0         0         0         0         0         0         0         0         0         0         0
@Sumon_Early_CPLX_L2C         0         0         0         0         0         0         0         0         0         0         0         0
@Sumon_Late_stream_L2C         0         0         0         0         0         0         0         0         0         0         0         0
@Sumon_Late_CS_L2C         0         0         0         0         0         0         0         0         0         0         0         0
@Sumon_Late_CPLX_L2C         0         0         0         0         0         0         0         0         0         0         0         0
DRAM PAGES: 1048576
Allocated PAGES: 5588
