Initialize SIGNATURE TABLE
ST_SET: 1
ST_WAY: 256
ST_TAG_BIT: 16
ST_TAG_MASK: ffff

Initialize PATTERN TABLE
PT_SET: 512
PT_WAY: 4
SIG_DELTA_BIT: 7
C_SIG_BIT: 4
C_DELTA_BIT: 4

Initialize PREFETCH FILTER
FILTER_SET: 1024

*** ChampSim Multicore Out-of-Order Simulator ***

Warmup Instructions: 10000000
Simulation Instructions: 50000000
Number of CPUs: 1
LLC sets: 2048
LLC ways: 16
Off-chip DRAM Size: 4096 MB Channels: 1 Width: 64-bit Data Rate: 800 MT/s
CPU 0 runs traces/clientserver/server_035.champsimtrace.xz
.xz
CPU 0 Bimodal branch predictor
BTB has LRU replacement policy
ITLB has LRU replacement policy
DTLB has LRU replacement policy
STLB has LRU replacement policy
L1I has LRU replacement policy
L1D has LRU replacement policy
ST_WAYS: 256
PT_SETS: 512
L2C has LRU replacement policy
LLC has LRU replacement policy
Heartbeat CPU 0 instructions: 10000001 cycles: 2766762 heartbeat IPC: 3.61433 cumulative IPC: 3.61433 (Simulation time: 3 hr 39 min 3 sec) 

Warmup complete CPU 0 instructions: 10000001 cycles: 2766762 (Simulation time: 3 hr 39 min 3 sec) 

Heartbeat CPU 0 instructions: 20000000 cycles: 24751519 heartbeat IPC: 0.454861 cumulative IPC: 0.454861 (Simulation time: 3 hr 57 min 3 sec) 
Heartbeat CPU 0 instructions: 30000000 cycles: 45808726 heartbeat IPC: 0.474897 cumulative IPC: 0.464663 (Simulation time: 4 hr 13 min 5 sec) 
Heartbeat CPU 0 instructions: 40000000 cycles: 67709709 heartbeat IPC: 0.456601 cumulative IPC: 0.461944 (Simulation time: 4 hr 26 min 46 sec) 
Heartbeat CPU 0 instructions: 50000000 cycles: 88608827 heartbeat IPC: 0.478489 cumulative IPC: 0.465972 (Simulation time: 4 hr 37 min 52 sec) 
Heartbeat CPU 0 instructions: 60000001 cycles: 110305302 heartbeat IPC: 0.460904 cumulative IPC: 0.46495 (Simulation time: 4 hr 45 min 18 sec) 
Finished CPU 0 instructions: 50000000 cycles: 107538540 cumulative IPC: 0.46495 (Simulation time: 4 hr 45 min 18 sec) 

ChampSim completed all CPUs

Region of Interest Statistics

CPU 0 cumulative IPC: 0.46495 instructions: 50000000 cycles: 107538540
ITLB TOTAL     ACCESS:    8922049  HIT:    8418388  MISS:     503661  HIT %:    94.3549  MISS %:    5.64513   MPKI: 10.0732
ITLB LOAD TRANSLATION ACCESS:    8922049  HIT:    8418388  MISS:     503661  HIT %:    94.3549  MISS %:    5.64513   MPKI: 10.0732
ITLB PREFETCH  REQUESTED:          0  ISSUED:          0  USEFUL:          0  USELESS:          0
ITLB USEFUL LOAD PREFETCHES:          0 PREFETCH ISSUED TO LOWER LEVEL:          0  ACCURACY: -nan
ITLB TIMELY PREFETCHES:          0 LATE PREFETCHES: 0 DROPPED PREFETCHES: 0
ITLB PREFETCHES SAME FILL-ORIGIN LEVEL: 0 DIFFERENT FILL-ORIGIN LEVEL: 0
ITLB AVERAGE MISS LATENCY: 9.13164 cycles
ITLB RQ	ACCESS:   10586210	FORWARD:          0	MERGED:    1540425	TO_CACHE:    9045785

DTLB TOTAL     ACCESS:   10618561  HIT:   10168563  MISS:     449998  HIT %:    95.7622  MISS %:    4.23784   MPKI: 8.99996
DTLB LOAD TRANSLATION ACCESS:   10618561  HIT:   10168563  MISS:     449998  HIT %:    95.7622  MISS %:    4.23784   MPKI: 8.99996
DTLB PREFETCH  REQUESTED:          0  ISSUED:          0  USEFUL:          0  USELESS:          0
DTLB USEFUL LOAD PREFETCHES:          0 PREFETCH ISSUED TO LOWER LEVEL:          0  ACCURACY: -nan
DTLB TIMELY PREFETCHES:          0 LATE PREFETCHES: 0 DROPPED PREFETCHES: 0
DTLB PREFETCHES SAME FILL-ORIGIN LEVEL: 0 DIFFERENT FILL-ORIGIN LEVEL: 0
DTLB AVERAGE MISS LATENCY: 11.1365 cycles
DTLB RQ	ACCESS:   14212335	FORWARD:          0	MERGED:    3582642	TO_CACHE:   10629693

STLB TOTAL     ACCESS:     953659  HIT:     944715  MISS:       8944  HIT %:    99.0621  MISS %:   0.937861   MPKI: 0.17888
STLB LOAD TRANSLATION ACCESS:     953659  HIT:     944715  MISS:       8944  HIT %:    99.0621  MISS %:   0.937861   MPKI: 0.17888
STLB PREFETCH  REQUESTED:          0  ISSUED:          0  USEFUL:          0  USELESS:          0
STLB USEFUL LOAD PREFETCHES:          0 PREFETCH ISSUED TO LOWER LEVEL:          0  ACCURACY: -nan
STLB TIMELY PREFETCHES:          0 LATE PREFETCHES: 0 DROPPED PREFETCHES: 0
STLB PREFETCHES SAME FILL-ORIGIN LEVEL: 0 DIFFERENT FILL-ORIGIN LEVEL: 0
STLB AVERAGE MISS LATENCY: 112.452 cycles
STLB RQ	ACCESS:     953659	FORWARD:          0	MERGED:          0	TO_CACHE:     953659

STLB Hit, L1D data hit: 0
STLB Hit, L2C data hit: 0
STLB Hit, LLC data hit: 0
STLB Hit, LLC data miss: 0
STLB STLB hints to L2: 0
L1D TOTAL     ACCESS:   14088524  HIT:   13456732  MISS:     631792  HIT %:    95.5156  MISS %:    4.48444   MPKI: 12.6358
L1D LOAD      ACCESS:    7758662  HIT:    7219253  MISS:     539409  HIT %:    93.0477  MISS %:    6.95235   MPKI: 10.7882
L1D RFO       ACCESS:    6329862  HIT:    6237479  MISS:      92383  HIT %:    98.5405  MISS %:    1.45948   MPKI: 1.84766
L1D PREFETCH  REQUESTED:          0  ISSUED:          0  USEFUL:          0  USELESS:          0
L1D USEFUL LOAD PREFETCHES:          0 PREFETCH ISSUED TO LOWER LEVEL:          0  ACCURACY: -nan
L1D TIMELY PREFETCHES:          0 LATE PREFETCHES: 0 DROPPED PREFETCHES: 0
L1D PREFETCHES SAME FILL-ORIGIN LEVEL: 0 DIFFERENT FILL-ORIGIN LEVEL: 0
L1D AVERAGE MISS LATENCY: 63.1254 cycles
L1D RQ	ACCESS:   11116177	FORWARD:          0	MERGED:    3179910	TO_CACHE:    7788212
L1D WQ	ACCESS:    6513311	FORWARD:     148055	MERGED:      89188	TO_CACHE:    6424123

L1D UNIQUE REGIONS ACCESSED: 0
L1D REGIONS CONFLICTS: 0
L1D Cross Page Prefetch Requests: 0
L1D Same Page Prefetch Requests: 0
L1D ROI Sum of L1D PQ occupancy: 0
L1D PREFETCHES PUSHED FROM L2C: 0
L1I TOTAL     ACCESS:    9855390  HIT:    6515890  MISS:    3339500  HIT %:     66.115  MISS %:     33.885   MPKI: 66.79
L1I LOAD      ACCESS:    9855390  HIT:    6515890  MISS:    3339500  HIT %:     66.115  MISS %:     33.885   MPKI: 66.79
L1I PREFETCH  REQUESTED:          0  ISSUED:          0  USEFUL:          0  USELESS:          0
L1I USEFUL LOAD PREFETCHES:          0 PREFETCH ISSUED TO LOWER LEVEL:          0  ACCURACY: -nan
L1I TIMELY PREFETCHES:          0 LATE PREFETCHES: 0 DROPPED PREFETCHES: 0
L1I PREFETCHES SAME FILL-ORIGIN LEVEL: 0 DIFFERENT FILL-ORIGIN LEVEL: 0
L1I AVERAGE MISS LATENCY: 14.6516 cycles
L1I RQ	ACCESS:   14702276	FORWARD:          0	MERGED:    4116066	TO_CACHE:   10586210

BTB TOTAL     ACCESS:    6340911  HIT:    5350572  MISS:     990339  HIT %:    84.3818  MISS %:    15.6182   MPKI: 19.8068
BTB BRANCH_DIRECT_JUMP	ACCESS:     773568  HIT:     696055  MISS:      77513
BTB BRANCH_INDIRECT	ACCESS:     108366  HIT:      73637  MISS:      34729
BTB BRANCH_CONDITIONAL	ACCESS:    2912412  HIT:    2697482  MISS:     214930
BTB BRANCH_DIRECT_CALL	ACCESS:    1062754  HIT:     948424  MISS:     114330
BTB BRANCH_INDIRECT_CALL	ACCESS:     210539  HIT:     143968  MISS:      66571
BTB BRANCH_RETURN	ACCESS:    1273272  HIT:     791006  MISS:     482266
BTB BRANCH_OTHER ACCESS:          0  HIT:          0  MISS:          0

L2C TOTAL     ACCESS:    4416187  HIT:    4213193  MISS:     202994  HIT %:    95.4034  MISS %:    4.59659   MPKI: 4.05988
L2C LOAD      ACCESS:    3878901  HIT:    3710312  MISS:     168589  HIT %:    95.6537  MISS %:    4.34631   MPKI: 3.37178
L2C DATA LOAD MPKI: 3.14138
L2C INSTRUCTION LOAD MPKI: 0.2304
L2C RFO       ACCESS:      92381  HIT:      65161  MISS:      27220  HIT %:    70.5351  MISS %:    29.4649   MPKI: 0.5444
L2C PREFETCH  ACCESS:     206734  HIT:     204512  MISS:       2222  HIT %:    98.9252  MISS %:    1.07481   MPKI: 0.04444
L2C DATA PREFETCH MPKI: 0.04444
L2C INSTRUCTION PREFETCH MPKI: 0
L2C WRITEBACK ACCESS:     228568  HIT:     227295  MISS:       1273  HIT %:    99.4431  MISS %:   0.556946   MPKI: 0.02546
L2C LOAD TRANSLATION ACCESS:       9603  HIT:       5913  MISS:       3690  HIT %:    61.5745  MISS %:    38.4255   MPKI: 0.0738
L2C PREFETCH  REQUESTED:     491130  ISSUED:     491130  USEFUL:       1743  USELESS:        495
L2C USEFUL LOAD PREFETCHES:       1743 PREFETCH ISSUED TO LOWER LEVEL:     245764  ACCURACY: 0.709217
L2C TIMELY PREFETCHES:       1743 LATE PREFETCHES: 535 DROPPED PREFETCHES: 0
L2C PREFETCHES SAME FILL-ORIGIN LEVEL: 2757 DIFFERENT FILL-ORIGIN LEVEL: 243007
L2C AVERAGE MISS LATENCY: 161.514 cycles
L2C RQ	ACCESS:    3980895	FORWARD:          0	MERGED:          0	TO_CACHE:    3980885
L2C WQ	ACCESS:     228568	FORWARD:         10	MERGED:          0	TO_CACHE:     228568
L2C PQ	ACCESS:     491130	FORWARD:          0	MERGED:      21683	TO_CACHE:     469447

L2C Instructions Evicting Data 9032
L2C Translations Evicting Data 3428
L2C Data Evicting Data 174189
L2C Instructions Evicting Instructions 2327
L2C Translations Evicting Instructions 186
L2C Data Evicting Instructions 8885
L2C Instructions Evicting Translations 161
L2C Translations Evicting Translations 76
L2C Data Evicting Translations 3437
L2C Dense regions hint from L2: 0
PSCL5 TOTAL     ACCESS:       8944  HIT:       8944  MISS:          0  HIT %:        100  MISS %:          0   MPKI: 0
PSCL5 LOAD TRANSLATION ACCESS:       8944  HIT:       8944  MISS:          0  HIT %:        100  MISS %:          0   MPKI: 0
PSCL5 PREFETCH  REQUESTED:          0  ISSUED:          0  USEFUL:          0  USELESS:          0
PSCL5 USEFUL LOAD PREFETCHES:          0 PREFETCH ISSUED TO LOWER LEVEL:          0  ACCURACY: -nan
PSCL5 TIMELY PREFETCHES:          0 LATE PREFETCHES: 0 DROPPED PREFETCHES: 0
PSCL5 PREFETCHES SAME FILL-ORIGIN LEVEL: 0 DIFFERENT FILL-ORIGIN LEVEL: 0

PSCL4 TOTAL     ACCESS:       8431  HIT:       8395  MISS:         36  HIT %:     99.573  MISS %:   0.426996   MPKI: 0.00072
PSCL4 LOAD TRANSLATION ACCESS:       8431  HIT:       8395  MISS:         36  HIT %:     99.573  MISS %:   0.426996   MPKI: 0.00072
PSCL4 PREFETCH  REQUESTED:          0  ISSUED:          0  USEFUL:          0  USELESS:          0
PSCL4 USEFUL LOAD PREFETCHES:          0 PREFETCH ISSUED TO LOWER LEVEL:          0  ACCURACY: -nan
PSCL4 TIMELY PREFETCHES:          0 LATE PREFETCHES: 0 DROPPED PREFETCHES: 0
PSCL4 PREFETCHES SAME FILL-ORIGIN LEVEL: 0 DIFFERENT FILL-ORIGIN LEVEL: 0

PSCL3 TOTAL     ACCESS:       8710  HIT:       8674  MISS:         36  HIT %:    99.5867  MISS %:   0.413318   MPKI: 0.00072
PSCL3 LOAD TRANSLATION ACCESS:       8710  HIT:       8674  MISS:         36  HIT %:    99.5867  MISS %:   0.413318   MPKI: 0.00072
PSCL3 PREFETCH  REQUESTED:          0  ISSUED:          0  USEFUL:          0  USELESS:          0
PSCL3 USEFUL LOAD PREFETCHES:          0 PREFETCH ISSUED TO LOWER LEVEL:          0  ACCURACY: -nan
PSCL3 TIMELY PREFETCHES:          0 LATE PREFETCHES: 0 DROPPED PREFETCHES: 0
PSCL3 PREFETCHES SAME FILL-ORIGIN LEVEL: 0 DIFFERENT FILL-ORIGIN LEVEL: 0

PSCL2 TOTAL     ACCESS:       8944  HIT:       8352  MISS:        592  HIT %:     93.381  MISS %:    6.61896   MPKI: 0.01184
PSCL2 LOAD TRANSLATION ACCESS:       8944  HIT:       8352  MISS:        592  HIT %:     93.381  MISS %:    6.61896   MPKI: 0.01184
PSCL2 PREFETCH  REQUESTED:          0  ISSUED:          0  USEFUL:          0  USELESS:          0
PSCL2 USEFUL LOAD PREFETCHES:          0 PREFETCH ISSUED TO LOWER LEVEL:          0  ACCURACY: -nan
PSCL2 TIMELY PREFETCHES:          0 LATE PREFETCHES: 0 DROPPED PREFETCHES: 0
PSCL2 PREFETCHES SAME FILL-ORIGIN LEVEL: 0 DIFFERENT FILL-ORIGIN LEVEL: 0

LLC TOTAL     ACCESS:     523196  HIT:     328720  MISS:     194476  HIT %:    62.8292  MISS %:    37.1708   MPKI: 3.88952
LLC LOAD      ACCESS:     168054  HIT:      64348  MISS:     103706  HIT %:    38.2901  MISS %:    61.7099   MPKI: 2.07412
LLC RFO       ACCESS:      27220  HIT:      10274  MISS:      16946  HIT %:    37.7443  MISS %:    62.2557   MPKI: 0.33892
LLC PREFETCH  ACCESS:     227778  HIT:     156566  MISS:      71212  HIT %:    68.7362  MISS %:    31.2638   MPKI: 1.42424
LLC WRITEBACK ACCESS:      96454  HIT:      95624  MISS:        830  HIT %:    99.1395  MISS %:   0.860514   MPKI: 0.0166
LLC LOAD TRANSLATION ACCESS:       3690  HIT:       1908  MISS:       1782  HIT %:    51.7073  MISS %:    48.2927   MPKI: 0.03564
LLC PREFETCH  REQUESTED:          0  ISSUED:          0  USEFUL:      46327  USELESS:      24320
LLC USEFUL LOAD PREFETCHES:      46327 PREFETCH ISSUED TO LOWER LEVEL:      83442  ACCURACY: 55.52
LLC TIMELY PREFETCHES:      46327 LATE PREFETCHES: 12229 DROPPED PREFETCHES: 0
LLC PREFETCHES SAME FILL-ORIGIN LEVEL: 82899 DIFFERENT FILL-ORIGIN LEVEL: 0
LLC AVERAGE MISS LATENCY: 222.755 cycles
LLC RQ	ACCESS:     198964	FORWARD:          0	MERGED:          0	TO_CACHE:     198964
LLC WQ	ACCESS:      96454	FORWARD:          0	MERGED:          0	TO_CACHE:      96454
LLC PQ	ACCESS:     245764	FORWARD:          0	MERGED:       1541	TO_CACHE:     244223

LLC Dense regions hint to LLC: 0

RAW hits: 964698
Loads Generated: 12080876
Loads sent to L1D: 11116177
Stores Generated: 6513306
Stores sent to L1D: 6513311
Major fault: 0 Minor fault: 5429
Allocated PAGES: 5429
 All Calls: 642995
 Critical Calls: 642995
------------------
Depth Distribution
------------------
depth 0: 0
depth 1: 497095
depth 2: 66905
depth 3: 13855
depth 4: 3357
depth 5: 243
depth 6: 4
depth 7: 0
depth 8: 0
depth 9: 0
depth 10: 0
depth 11: 0
depth 12: 0
depth 13: 0
depth 14: 0
depth 15: 0
depth 16: 0
depth 17: 0
depth 18: 0
depth 19: 0
depth 20: 0
depth 21: 0
depth 22: 0
depth 23: 0
depth 24: 0
depth 25: 0
depth 26: 0
depth 27: 0
depth 28: 0
depth 29: 0
Total: 581459
-----------------------------
-----------------------------
	Captured at Filter
-----------------------------
depth 0: 0
depth 1: 33522
depth 2: 28014
depth 3: 20717
depth 4: 2745
depth 5: 115
depth 6: 26
depth 7: 5
depth 8: 0
depth 9: 0
depth 10: 0
depth 11: 0
depth 12: 0
depth 13: 0
depth 14: 0
depth 15: 0
depth 16: 0
depth 17: 0
depth 18: 0
depth 19: 0
depth 20: 0
depth 21: 0
depth 22: 0
depth 23: 0
depth 24: 0
depth 25: 0
depth 26: 0
depth 27: 0
depth 28: 0
depth 29: 0
-----------------------------
-----------------------------
		Lost at Page
-----------------------------
depth 0: 0
depth 1: 40113
depth 2: 3058
depth 3: 1114
depth 4: 560
depth 5: 140
depth 6: 3
depth 7: 0
depth 8: 0
depth 9: 0
depth 10: 0
depth 11: 0
depth 12: 0
depth 13: 0
depth 14: 0
depth 15: 0
depth 16: 0
depth 17: 0
depth 18: 0
depth 19: 0
depth 20: 0
depth 21: 0
depth 22: 0
depth 23: 0
depth 24: 0
depth 25: 0
depth 26: 0
depth 27: 0
depth 28: 0
depth 29: 0
-----------------------------
-----------------------------
	Lost due to PQ Size
-----------------------------
0
-----------------------------
ST read accesses: 525266
ST write accesses: 14135
PT read accesses: 6432119
PT write accesses: 637551
FILTER read accesses: 1303740
FILTER write accesses: 225044
GHR read accesses: 397915
GHR write accesses: 39240
GHR counter read accesses: 5382514
GHR counter write accesses: 559209
ST tag read accesses: 211433500
ST tag write accesses: 35217395

DRAM Statistics
 CHANNEL 0
 RQ ROW_BUFFER_HIT:      40713  ROW_BUFFER_MISS:     152929
 DBUS_CONGESTED:     153127
 WQ ROW_BUFFER_HIT:      21915  ROW_BUFFER_MISS:      61373  FULL:          0

 AVG_CONGESTED_CYCLE: 32
 All warmup complete: 2
Channel 0 Bank busy for read cycles: 0
Channel 0 Bank busy for write cycles: 0
Channel 0
Rank 0
0banks busy for read cycles: 83337553
0banks busy for write cycles: 23217
1banks busy for read cycles: 8178228
1banks busy for write cycles: 3135811
2banks busy for read cycles: 4324152
2banks busy for write cycles: 1417396
3banks busy for read cycles: 1774689
3banks busy for write cycles: 883463
4banks busy for read cycles: 732834
4banks busy for write cycles: 647576
5banks busy for read cycles: 387442
5banks busy for write cycles: 517651
6banks busy for read cycles: 224164
6banks busy for write cycles: 439363
7banks busy for read cycles: 279914
7banks busy for write cycles: 501440
8banks busy for read cycles: 100391
8banks busy for write cycles: 633257

CPU 0 Branch Prediction Accuracy: 93.023% MPKI: 13.5823 Average ROB Occupancy at Mispredict: 21.4598
Branch types
NOT_BRANCH: 40266056 80.5321%
BRANCH_DIRECT_JUMP: 773568 1.54714%
BRANCH_INDIRECT: 108366 0.216732%
BRANCH_CONDITIONAL: 6305096 12.6102%
BRANCH_DIRECT_CALL: 1062754 2.12551%
BRANCH_INDIRECT_CALL: 210539 0.421078%
BRANCH_RETURN: 1273272 2.54654%
BRANCH_OTHER: 0 0%

@sumon_overall_L1D         0         0         0         0         0         0
@Sumon_Early_by_class_L1D         0         0         0         0
@Sumon_Late_by_class_L1D         0         0         0         0

@Sumon_Early_by_cycle_L1D         0         0         0         0         0         0         0         0         0         0         0         0
@Sumon_Late_by_cycle_L1D         0         0         0         0         0         0         0         0         0         0         0         0
@Sumon_Early_stream_L1D         0         0         0         0         0         0         0         0         0         0         0         0
@Sumon_Early_CS_L1D         0         0         0         0         0         0         0         0         0         0         0         0
@Sumon_Early_CPLX_L1D         0         0         0         0         0         0         0         0         0         0         0         0
@Sumon_Late_stream_L1D         0         0         0         0         0         0         0         0         0         0         0         0
@Sumon_Late_CS_L1D         0         0         0         0         0         0         0         0         0         0         0         0
@Sumon_Late_CPLX_L1D         0         0         0         0         0         0         0         0         0         0         0         0
@sumon_overall_L2C      1743       535       495      2222    491130    491130
@Sumon_Early_by_class_L2C         0         0         0         0
@Sumon_Late_by_class_L2C         0         0         0         0

@Sumon_Early_by_cycle_L2C       244       170       162       168       134       484       122        31        69        90        19        50
@Sumon_Late_by_cycle_L2C       459        49        11        13         2         1         0         0         0         0         0         0
@Sumon_Early_stream_L2C         0         0         0         0         0         0         0         0         0         0         0         0
@Sumon_Early_CS_L2C         0         0         0         0         0         0         0         0         0         0         0         0
@Sumon_Early_CPLX_L2C         0         0         0         0         0         0         0         0         0         0         0         0
@Sumon_Late_stream_L2C         0         0         0         0         0         0         0         0         0         0         0         0
@Sumon_Late_CS_L2C         0         0         0         0         0         0         0         0         0         0         0         0
@Sumon_Late_CPLX_L2C         0         0         0         0         0         0         0         0         0         0         0         0
DRAM PAGES: 1048576
Allocated PAGES: 5429
