Initialize SIGNATURE TABLE
ST_SET: 1
ST_WAY: 256
ST_TAG_BIT: 16
ST_TAG_MASK: ffff

Initialize PATTERN TABLE
PT_SET: 512
PT_WAY: 4
SIG_DELTA_BIT: 7
C_SIG_BIT: 4
C_DELTA_BIT: 4

Initialize PREFETCH FILTER
FILTER_SET: 1024

*** ChampSim Multicore Out-of-Order Simulator ***

Warmup Instructions: 10000000
Simulation Instructions: 50000000
Number of CPUs: 1
LLC sets: 2048
LLC ways: 16
Off-chip DRAM Size: 4096 MB Channels: 1 Width: 64-bit Data Rate: 800 MT/s
CPU 0 runs traces/clientserver/server_001.champsimtrace.xz
.xz
CPU 0 Bimodal branch predictor
BTB has LRU replacement policy
ITLB has LRU replacement policy
DTLB has LRU replacement policy
STLB has LRU replacement policy
L1I has LRU replacement policy
L1D has LRU replacement policy
ST_WAYS: 256
PT_SETS: 512
L2C has LRU replacement policy
LLC has LRU replacement policy
Heartbeat CPU 0 instructions: 10000003 cycles: 2758257 heartbeat IPC: 3.62548 cumulative IPC: 3.62548 (Simulation time: 3 hr 28 min 9 sec) 

Warmup complete CPU 0 instructions: 10000003 cycles: 2758257 (Simulation time: 3 hr 28 min 11 sec) 

Heartbeat CPU 0 instructions: 20000003 cycles: 19966369 heartbeat IPC: 0.581121 cumulative IPC: 0.581121 (Simulation time: 3 hr 47 min 42 sec) 
Heartbeat CPU 0 instructions: 30000000 cycles: 36898350 heartbeat IPC: 0.590598 cumulative IPC: 0.585821 (Simulation time: 4 hr 5 min 20 sec) 
Heartbeat CPU 0 instructions: 40000002 cycles: 54459137 heartbeat IPC: 0.569451 cumulative IPC: 0.580261 (Simulation time: 4 hr 20 min 54 sec) 
Heartbeat CPU 0 instructions: 50000002 cycles: 71306230 heartbeat IPC: 0.593574 cumulative IPC: 0.583533 (Simulation time: 4 hr 33 min 41 sec) 
Heartbeat CPU 0 instructions: 60000002 cycles: 88551797 heartbeat IPC: 0.579859 cumulative IPC: 0.582794 (Simulation time: 4 hr 42 min 55 sec) 
Finished CPU 0 instructions: 50000002 cycles: 85793541 cumulative IPC: 0.582794 (Simulation time: 4 hr 42 min 55 sec) 

ChampSim completed all CPUs

Region of Interest Statistics

CPU 0 cumulative IPC: 0.582794 instructions: 50000002 cycles: 85793541
ITLB TOTAL     ACCESS:    7437627  HIT:    7338091  MISS:      99536  HIT %:    98.6617  MISS %:    1.33828   MPKI: 1.99072
ITLB LOAD TRANSLATION ACCESS:    7437627  HIT:    7338091  MISS:      99536  HIT %:    98.6617  MISS %:    1.33828   MPKI: 1.99072
ITLB PREFETCH  REQUESTED:          0  ISSUED:          0  USEFUL:          0  USELESS:          0
ITLB USEFUL LOAD PREFETCHES:          0 PREFETCH ISSUED TO LOWER LEVEL:          0  ACCURACY: -nan
ITLB TIMELY PREFETCHES:          0 LATE PREFETCHES: 0 DROPPED PREFETCHES: 0
ITLB PREFETCHES SAME FILL-ORIGIN LEVEL: 0 DIFFERENT FILL-ORIGIN LEVEL: 0
ITLB AVERAGE MISS LATENCY: 15.3536 cycles
ITLB RQ	ACCESS:    9208554	FORWARD:          0	MERGED:    1740053	TO_CACHE:    7468501

DTLB TOTAL     ACCESS:   10247224  HIT:    9941307  MISS:     305917  HIT %:    97.0146  MISS %:    2.98536   MPKI: 6.11834
DTLB LOAD TRANSLATION ACCESS:   10247224  HIT:    9941307  MISS:     305917  HIT %:    97.0146  MISS %:    2.98536   MPKI: 6.11834
DTLB PREFETCH  REQUESTED:          0  ISSUED:          0  USEFUL:          0  USELESS:          0
DTLB USEFUL LOAD PREFETCHES:          0 PREFETCH ISSUED TO LOWER LEVEL:          0  ACCURACY: -nan
DTLB TIMELY PREFETCHES:          0 LATE PREFETCHES: 0 DROPPED PREFETCHES: 0
DTLB PREFETCHES SAME FILL-ORIGIN LEVEL: 0 DIFFERENT FILL-ORIGIN LEVEL: 0
DTLB AVERAGE MISS LATENCY: 22.3639 cycles
DTLB RQ	ACCESS:   12521492	FORWARD:          0	MERGED:    2261023	TO_CACHE:   10260469

STLB TOTAL     ACCESS:     405453  HIT:     372932  MISS:      32521  HIT %:    91.9791  MISS %:    8.02091   MPKI: 0.65042
STLB LOAD TRANSLATION ACCESS:     405453  HIT:     372932  MISS:      32521  HIT %:    91.9791  MISS %:    8.02091   MPKI: 0.65042
STLB PREFETCH  REQUESTED:          0  ISSUED:          0  USEFUL:          0  USELESS:          0
STLB USEFUL LOAD PREFETCHES:          0 PREFETCH ISSUED TO LOWER LEVEL:          0  ACCURACY: -nan
STLB TIMELY PREFETCHES:          0 LATE PREFETCHES: 0 DROPPED PREFETCHES: 0
STLB PREFETCHES SAME FILL-ORIGIN LEVEL: 0 DIFFERENT FILL-ORIGIN LEVEL: 0
STLB AVERAGE MISS LATENCY: 144.789 cycles
STLB RQ	ACCESS:     405453	FORWARD:          0	MERGED:          0	TO_CACHE:     405453

STLB Hit, L1D data hit: 0
STLB Hit, L2C data hit: 0
STLB Hit, LLC data hit: 0
STLB Hit, LLC data miss: 0
STLB STLB hints to L2: 0
L1D TOTAL     ACCESS:   12153815  HIT:   11727275  MISS:     426540  HIT %:    96.4905  MISS %:    3.50952   MPKI: 8.5308
L1D LOAD      ACCESS:    7039359  HIT:    6717708  MISS:     321651  HIT %:    95.4307  MISS %:    4.56932   MPKI: 6.43302
L1D RFO       ACCESS:    5114456  HIT:    5009567  MISS:     104889  HIT %:    97.9492  MISS %:    2.05083   MPKI: 2.09778
L1D PREFETCH  REQUESTED:          0  ISSUED:          0  USEFUL:          0  USELESS:          0
L1D USEFUL LOAD PREFETCHES:          0 PREFETCH ISSUED TO LOWER LEVEL:          0  ACCURACY: -nan
L1D TIMELY PREFETCHES:          0 LATE PREFETCHES: 0 DROPPED PREFETCHES: 0
L1D PREFETCHES SAME FILL-ORIGIN LEVEL: 0 DIFFERENT FILL-ORIGIN LEVEL: 0
L1D AVERAGE MISS LATENCY: 200.08 cycles
L1D RQ	ACCESS:   10724390	FORWARD:          0	MERGED:    3581238	TO_CACHE:    7073856
L1D WQ	ACCESS:    5532902	FORWARD:      69296	MERGED:      85266	TO_CACHE:    5447636

L1D UNIQUE REGIONS ACCESSED: 0
L1D REGIONS CONFLICTS: 0
L1D Cross Page Prefetch Requests: 0
L1D Same Page Prefetch Requests: 0
L1D ROI Sum of L1D PQ occupancy: 0
L1D PREFETCHES PUSHED FROM L2C: 0
L1I TOTAL     ACCESS:    8996485  HIT:    8488075  MISS:     508410  HIT %:    94.3488  MISS %:    5.65121   MPKI: 10.1682
L1I LOAD      ACCESS:    8996485  HIT:    8488075  MISS:     508410  HIT %:    94.3488  MISS %:    5.65121   MPKI: 10.1682
L1I PREFETCH  REQUESTED:          0  ISSUED:          0  USEFUL:          0  USELESS:          0
L1I USEFUL LOAD PREFETCHES:          0 PREFETCH ISSUED TO LOWER LEVEL:          0  ACCURACY: -nan
L1I TIMELY PREFETCHES:          0 LATE PREFETCHES: 0 DROPPED PREFETCHES: 0
L1I PREFETCHES SAME FILL-ORIGIN LEVEL: 0 DIFFERENT FILL-ORIGIN LEVEL: 0
L1I AVERAGE MISS LATENCY: 37.7047 cycles
L1I RQ	ACCESS:   13353932	FORWARD:          0	MERGED:    4145378	TO_CACHE:    9208554

BTB TOTAL     ACCESS:    4006878  HIT:    3708536  MISS:     298342  HIT %:    92.5543  MISS %:    7.44575   MPKI: 5.96684
BTB BRANCH_DIRECT_JUMP	ACCESS:     351729  HIT:     340340  MISS:      11389
BTB BRANCH_INDIRECT	ACCESS:     151140  HIT:      90845  MISS:      60295
BTB BRANCH_CONDITIONAL	ACCESS:    2268946  HIT:    2221463  MISS:      47483
BTB BRANCH_DIRECT_CALL	ACCESS:     577843  HIT:     558068  MISS:      19775
BTB BRANCH_INDIRECT_CALL	ACCESS:      27215  HIT:      24769  MISS:       2446
BTB BRANCH_RETURN	ACCESS:     630005  HIT:     473051  MISS:     156954
BTB BRANCH_OTHER ACCESS:          0  HIT:          0  MISS:          0

L2C TOTAL     ACCESS:    1525298  HIT:    1061491  MISS:     463807  HIT %:    69.5924  MISS %:    30.4076   MPKI: 9.27614
L2C LOAD      ACCESS:     830059  HIT:     519905  MISS:     310154  HIT %:    62.6347  MISS %:    37.3653   MPKI: 6.20308
L2C DATA LOAD MPKI: 3.38446
L2C INSTRUCTION LOAD MPKI: 2.81862
L2C RFO       ACCESS:     104889  HIT:      16290  MISS:      88599  HIT %:    15.5307  MISS %:    84.4693   MPKI: 1.77198
L2C PREFETCH  ACCESS:     338478  HIT:     296131  MISS:      42347  HIT %:     87.489  MISS %:     12.511   MPKI: 0.84694
L2C DATA PREFETCH MPKI: 0.84694
L2C INSTRUCTION PREFETCH MPKI: 0
L2C WRITEBACK ACCESS:     210641  HIT:     210049  MISS:        592  HIT %:     99.719  MISS %:   0.281047   MPKI: 0.01184
L2C LOAD TRANSLATION ACCESS:      41231  HIT:      19116  MISS:      22115  HIT %:    46.3632  MISS %:    53.6368   MPKI: 0.4423
L2C PREFETCH  REQUESTED:     991421  ISSUED:     984749  USEFUL:      40334  USELESS:       2000
L2C USEFUL LOAD PREFETCHES:      40334 PREFETCH ISSUED TO LOWER LEVEL:     588238  ACCURACY: 6.85675
L2C TIMELY PREFETCHES:      40334 LATE PREFETCHES: 3311 DROPPED PREFETCHES: 0
L2C PREFETCHES SAME FILL-ORIGIN LEVEL: 45658 DIFFERENT FILL-ORIGIN LEVEL: 542580
L2C AVERAGE MISS LATENCY: 205.576 cycles
L2C RQ	ACCESS:     976181	FORWARD:          0	MERGED:          0	TO_CACHE:     976179
L2C WQ	ACCESS:     210641	FORWARD:          2	MERGED:          0	TO_CACHE:     210641
L2C PQ	ACCESS:     984749	FORWARD:          0	MERGED:      83158	TO_CACHE:     901591

L2C Instructions Evicting Data 93087
L2C Translations Evicting Data 14047
L2C Data Evicting Data 195977
L2C Instructions Evicting Instructions 41412
L2C Translations Evicting Instructions 7031
L2C Data Evicting Instructions 89866
L2C Instructions Evicting Translations 6432
L2C Translations Evicting Translations 1037
L2C Data Evicting Translations 14326
L2C Dense regions hint from L2: 0
PSCL5 TOTAL     ACCESS:      32521  HIT:      32521  MISS:          0  HIT %:        100  MISS %:          0   MPKI: 0
PSCL5 LOAD TRANSLATION ACCESS:      32521  HIT:      32521  MISS:          0  HIT %:        100  MISS %:          0   MPKI: 0
PSCL5 PREFETCH  REQUESTED:          0  ISSUED:          0  USEFUL:          0  USELESS:          0
PSCL5 USEFUL LOAD PREFETCHES:          0 PREFETCH ISSUED TO LOWER LEVEL:          0  ACCURACY: -nan
PSCL5 TIMELY PREFETCHES:          0 LATE PREFETCHES: 0 DROPPED PREFETCHES: 0
PSCL5 PREFETCHES SAME FILL-ORIGIN LEVEL: 0 DIFFERENT FILL-ORIGIN LEVEL: 0

PSCL4 TOTAL     ACCESS:      31868  HIT:      31784  MISS:         84  HIT %:    99.7364  MISS %:   0.263587   MPKI: 0.00168
PSCL4 LOAD TRANSLATION ACCESS:      31868  HIT:      31784  MISS:         84  HIT %:    99.7364  MISS %:   0.263587   MPKI: 0.00168
PSCL4 PREFETCH  REQUESTED:          0  ISSUED:          0  USEFUL:          0  USELESS:          0
PSCL4 USEFUL LOAD PREFETCHES:          0 PREFETCH ISSUED TO LOWER LEVEL:          0  ACCURACY: -nan
PSCL4 TIMELY PREFETCHES:          0 LATE PREFETCHES: 0 DROPPED PREFETCHES: 0
PSCL4 PREFETCHES SAME FILL-ORIGIN LEVEL: 0 DIFFERENT FILL-ORIGIN LEVEL: 0

PSCL3 TOTAL     ACCESS:      32411  HIT:      32327  MISS:         84  HIT %:    99.7408  MISS %:   0.259171   MPKI: 0.00168
PSCL3 LOAD TRANSLATION ACCESS:      32411  HIT:      32327  MISS:         84  HIT %:    99.7408  MISS %:   0.259171   MPKI: 0.00168
PSCL3 PREFETCH  REQUESTED:          0  ISSUED:          0  USEFUL:          0  USELESS:          0
PSCL3 USEFUL LOAD PREFETCHES:          0 PREFETCH ISSUED TO LOWER LEVEL:          0  ACCURACY: -nan
PSCL3 TIMELY PREFETCHES:          0 LATE PREFETCHES: 0 DROPPED PREFETCHES: 0
PSCL3 PREFETCHES SAME FILL-ORIGIN LEVEL: 0 DIFFERENT FILL-ORIGIN LEVEL: 0

PSCL2 TOTAL     ACCESS:      32521  HIT:      23921  MISS:       8600  HIT %:    73.5555  MISS %:    26.4445   MPKI: 0.172
PSCL2 LOAD TRANSLATION ACCESS:      32521  HIT:      23921  MISS:       8600  HIT %:    73.5555  MISS %:    26.4445   MPKI: 0.172
PSCL2 PREFETCH  REQUESTED:          0  ISSUED:          0  USEFUL:          0  USELESS:          0
PSCL2 USEFUL LOAD PREFETCHES:          0 PREFETCH ISSUED TO LOWER LEVEL:          0  ACCURACY: -nan
PSCL2 TIMELY PREFETCHES:          0 LATE PREFETCHES: 0 DROPPED PREFETCHES: 0
PSCL2 PREFETCHES SAME FILL-ORIGIN LEVEL: 0 DIFFERENT FILL-ORIGIN LEVEL: 0

LLC TOTAL     ACCESS:    1165498  HIT:     850569  MISS:     314929  HIT %:     72.979  MISS %:     27.021   MPKI: 6.29858
LLC LOAD      ACCESS:     306842  HIT:     220620  MISS:      86222  HIT %:    71.9002  MISS %:    28.0998   MPKI: 1.72444
LLC RFO       ACCESS:      88599  HIT:      12494  MISS:      76105  HIT %:    14.1017  MISS %:    85.8983   MPKI: 1.5221
LLC PREFETCH  ACCESS:     568867  HIT:     427451  MISS:     141416  HIT %:    75.1408  MISS %:    24.8592   MPKI: 2.82832
LLC WRITEBACK ACCESS:     179075  HIT:     178924  MISS:        151  HIT %:    99.9157  MISS %:  0.0843222   MPKI: 0.00302
LLC LOAD TRANSLATION ACCESS:      22115  HIT:      11080  MISS:      11035  HIT %:    50.1017  MISS %:    49.8983   MPKI: 0.2207
LLC PREFETCH  REQUESTED:          0  ISSUED:          0  USEFUL:      67062  USELESS:      74250
LLC USEFUL LOAD PREFETCHES:      67062 PREFETCH ISSUED TO LOWER LEVEL:     142751  ACCURACY: 46.9783
LLC TIMELY PREFETCHES:      67062 LATE PREFETCHES: 1333 DROPPED PREFETCHES: 0
LLC PREFETCHES SAME FILL-ORIGIN LEVEL: 140369 DIFFERENT FILL-ORIGIN LEVEL: 0
LLC AVERAGE MISS LATENCY: 337.521 cycles
LLC RQ	ACCESS:     417557	FORWARD:          0	MERGED:          0	TO_CACHE:     417556
LLC WQ	ACCESS:     179075	FORWARD:          1	MERGED:          0	TO_CACHE:     179075
LLC PQ	ACCESS:     588238	FORWARD:          0	MERGED:       4018	TO_CACHE:     584220

LLC Dense regions hint to LLC: 0

RAW hits: 1038163
Loads Generated: 11762546
Loads sent to L1D: 10724390
Stores Generated: 5532898
Stores sent to L1D: 5532902
Major fault: 0 Minor fault: 12198
Allocated PAGES: 12198
 All Calls: 376247
 Critical Calls: 376247
------------------
Depth Distribution
------------------
depth 0: 0
depth 1: 309288
depth 2: 204602
depth 3: 167961
depth 4: 143308
depth 5: 121714
depth 6: 87545
depth 7: 51645
depth 8: 29932
depth 9: 14177
depth 10: 7127
depth 11: 3473
depth 12: 1423
depth 13: 252
depth 14: 0
depth 15: 0
depth 16: 0
depth 17: 0
depth 18: 0
depth 19: 0
depth 20: 0
depth 21: 0
depth 22: 0
depth 23: 0
depth 24: 0
depth 25: 0
depth 26: 0
depth 27: 0
depth 28: 0
depth 29: 0
Total: 1142447
-----------------------------
-----------------------------
	Captured at Filter
-----------------------------
depth 0: 0
depth 1: 2708
depth 2: 1389
depth 3: 994
depth 4: 671
depth 5: 584
depth 6: 429
depth 7: 264
depth 8: 149
depth 9: 52
depth 10: 29
depth 11: 15
depth 12: 6
depth 13: 2
depth 14: 0
depth 15: 0
depth 16: 0
depth 17: 0
depth 18: 0
depth 19: 0
depth 20: 0
depth 21: 0
depth 22: 0
depth 23: 0
depth 24: 0
depth 25: 0
depth 26: 0
depth 27: 0
depth 28: 0
depth 29: 0
-----------------------------
-----------------------------
		Lost at Page
-----------------------------
depth 0: 0
depth 1: 8076
depth 2: 7187
depth 3: 8569
depth 4: 9823
depth 5: 10554
depth 6: 9243
depth 7: 6562
depth 8: 4580
depth 9: 2416
depth 10: 1372
depth 11: 782
depth 12: 359
depth 13: 71
depth 14: 0
depth 15: 0
depth 16: 0
depth 17: 0
depth 18: 0
depth 19: 0
depth 20: 0
depth 21: 0
depth 22: 0
depth 23: 0
depth 24: 0
depth 25: 0
depth 26: 0
depth 27: 0
depth 28: 0
depth 29: 0
-----------------------------
-----------------------------
	Lost due to PQ Size
-----------------------------
9747
-----------------------------
ST read accesses: 278729
ST write accesses: 42920
PT read accesses: 7170961
PT write accesses: 382169
FILTER read accesses: 1783052
FILTER write accesses: 624902
GHR read accesses: 655029
GHR write accesses: 61339
GHR counter read accesses: 6080082
GHR counter write accesses: 482937
ST tag read accesses: 145347344
ST tag write accesses: 14136830

DRAM Statistics
 CHANNEL 0
 RQ ROW_BUFFER_HIT:      88373  ROW_BUFFER_MISS:     226396
 DBUS_CONGESTED:     278464
 WQ ROW_BUFFER_HIT:      46921  ROW_BUFFER_MISS:     115578  FULL:          0

 AVG_CONGESTED_CYCLE: 34
 All warmup complete: 2
Channel 0 Bank busy for read cycles: 0
Channel 0 Bank busy for write cycles: 0
Channel 0
Rank 0
0banks busy for read cycles: 43838203
0banks busy for write cycles: 42773
1banks busy for read cycles: 14748557
1banks busy for write cycles: 5803220
2banks busy for read cycles: 5502298
2banks busy for write cycles: 2854651
3banks busy for read cycles: 1692990
3banks busy for write cycles: 1578579
4banks busy for read cycles: 657377
4banks busy for write cycles: 1010426
5banks busy for read cycles: 351227
5banks busy for write cycles: 777567
6banks busy for read cycles: 242656
6banks busy for write cycles: 678724
7banks busy for read cycles: 242716
7banks busy for write cycles: 726503
8banks busy for read cycles: 2623826
8banks busy for write cycles: 2421249

CPU 0 Branch Prediction Accuracy: 95.5458% MPKI: 7.59568 Average ROB Occupancy at Mispredict: 40.1957
Branch types
NOT_BRANCH: 41473242 82.9465%
BRANCH_DIRECT_JUMP: 351729 0.703458%
BRANCH_INDIRECT: 151140 0.30228%
BRANCH_CONDITIONAL: 6788465 13.5769%
BRANCH_DIRECT_CALL: 577843 1.15569%
BRANCH_INDIRECT_CALL: 27215 0.05443%
BRANCH_RETURN: 630005 1.26001%
BRANCH_OTHER: 0 0%

@sumon_overall_L1D         0         0         0         0         0         0
@Sumon_Early_by_class_L1D         0         0         0         0
@Sumon_Late_by_class_L1D         0         0         0         0

@Sumon_Early_by_cycle_L1D         0         0         0         0         0         0         0         0         0         0         0         0
@Sumon_Late_by_cycle_L1D         0         0         0         0         0         0         0         0         0         0         0         0
@Sumon_Early_stream_L1D         0         0         0         0         0         0         0         0         0         0         0         0
@Sumon_Early_CS_L1D         0         0         0         0         0         0         0         0         0         0         0         0
@Sumon_Early_CPLX_L1D         0         0         0         0         0         0         0         0         0         0         0         0
@Sumon_Late_stream_L1D         0         0         0         0         0         0         0         0         0         0         0         0
@Sumon_Late_CS_L1D         0         0         0         0         0         0         0         0         0         0         0         0
@Sumon_Late_CPLX_L1D         0         0         0         0         0         0         0         0         0         0         0         0
@sumon_overall_L2C     40334      3311      2000     42347    984749    991421
@Sumon_Early_by_class_L2C         0         0         0         0
@Sumon_Late_by_class_L2C         0         0         0         0

@Sumon_Early_by_cycle_L2C      5973      5910      8878      8118      4146      3814      1746      1069       463       116        38        63
@Sumon_Late_by_cycle_L2C      3135       167         8         1         0         0         0         0         0         0         0         0
@Sumon_Early_stream_L2C         0         0         0         0         0         0         0         0         0         0         0         0
@Sumon_Early_CS_L2C         0         0         0         0         0         0         0         0         0         0         0         0
@Sumon_Early_CPLX_L2C         0         0         0         0         0         0         0         0         0         0         0         0
@Sumon_Late_stream_L2C         0         0         0         0         0         0         0         0         0         0         0         0
@Sumon_Late_CS_L2C         0         0         0         0         0         0         0         0         0         0         0         0
@Sumon_Late_CPLX_L2C         0         0         0         0         0         0         0         0         0         0         0         0
DRAM PAGES: 1048576
Allocated PAGES: 12198
