
*** ChampSim Multicore Out-of-Order Simulator ***

Warmup Instructions: 10000000
Simulation Instructions: 50000000
Number of CPUs: 1
LLC sets: 2048
LLC ways: 16
Off-chip DRAM Size: 4096 MB Channels: 1 Width: 64-bit Data Rate: 533 MT/s
CPU 0 runs traces/graph/tc_70B.trace.gz
.gz
CPU 0 Bimodal branch predictor
BTB has LRU replacement policy
ITLB has LRU replacement policy
DTLB has LRU replacement policy
STLB has LRU replacement policy
L1I has LRU replacement policy
IP Table Entries: 256
L1D has LRU replacement policy
IP_Table L2 entries: 256
L2C has LRU replacement policy
LLC has LRU replacement policy
Heartbeat CPU 0 instructions: 10000003 cycles: 3869750 heartbeat IPC: 2.58415 cumulative IPC: 2.58415 (Simulation time: 0 hr 12 min 34 sec) 

Warmup complete CPU 0 instructions: 10000003 cycles: 3869750 (Simulation time: 0 hr 12 min 34 sec) 

Heartbeat CPU 0 instructions: 20000003 cycles: 56900244 heartbeat IPC: 0.188571 cumulative IPC: 0.188571 (Simulation time: 0 hr 27 min 31 sec) 
Heartbeat CPU 0 instructions: 30000000 cycles: 114530857 heartbeat IPC: 0.173519 cumulative IPC: 0.180732 (Simulation time: 0 hr 43 min 15 sec) 
Heartbeat CPU 0 instructions: 40000000 cycles: 181617008 heartbeat IPC: 0.149062 cumulative IPC: 0.168779 (Simulation time: 1 hr 0 min 6 sec) 
Heartbeat CPU 0 instructions: 50000000 cycles: 241133302 heartbeat IPC: 0.168021 cumulative IPC: 0.168589 (Simulation time: 1 hr 15 min 45 sec) 
Heartbeat CPU 0 instructions: 60000000 cycles: 314488457 heartbeat IPC: 0.136323 cumulative IPC: 0.160969 (Simulation time: 1 hr 31 min 59 sec) 
Finished CPU 0 instructions: 50000000 cycles: 310618723 cumulative IPC: 0.160969 (Simulation time: 1 hr 31 min 59 sec) 

ChampSim completed all CPUs

Region of Interest Statistics

CPU 0 cumulative IPC: 0.160969 instructions: 50000000 cycles: 310618723
ITLB TOTAL     ACCESS:    8636978  HIT:    8636978  MISS:          0  HIT %:        100  MISS %:          0   MPKI: 0
ITLB LOAD TRANSLATION ACCESS:    8636978  HIT:    8636978  MISS:          0  HIT %:        100  MISS %:          0   MPKI: 0
ITLB PREFETCH  REQUESTED:          0  ISSUED:          0  USEFUL:          0  USELESS:          0
ITLB USEFUL LOAD PREFETCHES:          0 PREFETCH ISSUED TO LOWER LEVEL:          0  ACCURACY: -nan
ITLB TIMELY PREFETCHES:          0 LATE PREFETCHES: 0 DROPPED PREFETCHES: 0
ITLB PREFETCHES SAME FILL-ORIGIN LEVEL: 0 DIFFERENT FILL-ORIGIN LEVEL: 0
ITLB AVERAGE MISS LATENCY: -nan cycles
ITLB RQ	ACCESS:    9119697	FORWARD:          0	MERGED:     482719	TO_CACHE:    8636978

DTLB TOTAL     ACCESS:   11017672  HIT:    9931140  MISS:    1086532  HIT %:    90.1383  MISS %:    9.86172   MPKI: 21.7306
DTLB LOAD TRANSLATION ACCESS:   11017672  HIT:    9931140  MISS:    1086532  HIT %:    90.1383  MISS %:    9.86172   MPKI: 21.7306
DTLB PREFETCH  REQUESTED:          0  ISSUED:          0  USEFUL:          0  USELESS:          0
DTLB USEFUL LOAD PREFETCHES:          0 PREFETCH ISSUED TO LOWER LEVEL:          0  ACCURACY: -nan
DTLB TIMELY PREFETCHES:          0 LATE PREFETCHES: 0 DROPPED PREFETCHES: 0
DTLB PREFETCHES SAME FILL-ORIGIN LEVEL: 0 DIFFERENT FILL-ORIGIN LEVEL: 0
DTLB AVERAGE MISS LATENCY: 69.0452 cycles
DTLB RQ	ACCESS:   11314920	FORWARD:          0	MERGED:     296538	TO_CACHE:   11018382

STLB TOTAL     ACCESS:    2271914  HIT:    1589745  MISS:     682169  HIT %:    69.9738  MISS %:    30.0262   MPKI: 13.6434
STLB LOAD TRANSLATION ACCESS:    1086532  HIT:     404390  MISS:     682142  HIT %:    37.2184  MISS %:    62.7816   MPKI: 13.6428
STLB TRANSLATION FROM L1D PREFETCHER ACCESS:    1185382  HIT:    1185355  MISS:         27  HIT %:    99.9977  MISS %: 0.00227775   MPKI: 0.00054
STLB PREFETCH  REQUESTED:          0  ISSUED:          0  USEFUL:         27  USELESS:          0
STLB USEFUL LOAD PREFETCHES:         27 PREFETCH ISSUED TO LOWER LEVEL:          0  ACCURACY: inf
STLB TIMELY PREFETCHES:         27 LATE PREFETCHES: 0 DROPPED PREFETCHES: 0
STLB PREFETCHES SAME FILL-ORIGIN LEVEL: 0 DIFFERENT FILL-ORIGIN LEVEL: 0
STLB AVERAGE MISS LATENCY: 95.6108 cycles
STLB RQ	ACCESS:    2638344	FORWARD:          0	MERGED:     366431	TO_CACHE:    2271913

STLB Hit, L1D data hit: 0
STLB Hit, L2C data hit: 0
STLB Hit, LLC data hit: 0
STLB Hit, LLC data miss: 0
STLB STLB hints to L2: 0
L1D TOTAL     ACCESS:   12818138  HIT:   10413886  MISS:    2404252  HIT %:    81.2434  MISS %:    18.7566   MPKI: 48.085
L1D LOAD      ACCESS:   10243420  HIT:    9084516  MISS:    1158904  HIT %:    88.6864  MISS %:    11.3136   MPKI: 23.1781
L1D RFO       ACCESS:    1046029  HIT:    1046029  MISS:          0  HIT %:        100  MISS %:          0   MPKI: 0
L1D PREFETCH  ACCESS:    1528689  HIT:     283341  MISS:    1245348  HIT %:    18.5349  MISS %:    81.4651   MPKI: 24.907
L1D PREFETCH  REQUESTED:    3103624  ISSUED:    3103624  USEFUL:     103770  USELESS:    1141576
L1D USEFUL LOAD PREFETCHES:     103770 PREFETCH ISSUED TO LOWER LEVEL:    1248185  ACCURACY: 8.31367
L1D TIMELY PREFETCHES:     103770 LATE PREFETCHES: 2830 DROPPED PREFETCHES: 0
L1D PREFETCHES SAME FILL-ORIGIN LEVEL: 1248185 DIFFERENT FILL-ORIGIN LEVEL: 0
L1D AVERAGE MISS LATENCY: 187770 cycles
L1D RQ	ACCESS:   11732697	FORWARD:          0	MERGED:    1461097	TO_CACHE:   10268891
L1D WQ	ACCESS:    1046094	FORWARD:       2709	MERGED:         65	TO_CACHE:    1046029
L1D PQ	ACCESS:    1551812	FORWARD:          0	MERGED:          0	TO_CACHE:    1551812

L1D UNIQUE REGIONS ACCESSED: 0
L1D REGIONS CONFLICTS: 0
L1D Cross Page Prefetch Requests: 0
L1D Same Page Prefetch Requests: 1790396
L1D ROI Sum of L1D PQ occupancy: 20483532
L1D PREFETCHES PUSHED FROM L2C: 0
L1I TOTAL     ACCESS:    9119697  HIT:    9119697  MISS:          0  HIT %:        100  MISS %:          0   MPKI: 0
L1I LOAD      ACCESS:    9119697  HIT:    9119697  MISS:          0  HIT %:        100  MISS %:          0   MPKI: 0
L1I PREFETCH  REQUESTED:          0  ISSUED:          0  USEFUL:          0  USELESS:          0
L1I USEFUL LOAD PREFETCHES:          0 PREFETCH ISSUED TO LOWER LEVEL:          0  ACCURACY: -nan
L1I TIMELY PREFETCHES:          0 LATE PREFETCHES: 0 DROPPED PREFETCHES: 0
L1I PREFETCHES SAME FILL-ORIGIN LEVEL: 0 DIFFERENT FILL-ORIGIN LEVEL: 0
L1I AVERAGE MISS LATENCY: -nan cycles
L1I RQ	ACCESS:   12448965	FORWARD:          0	MERGED:    3329268	TO_CACHE:    9119697

BTB TOTAL     ACCESS:   12374183  HIT:   12374169  MISS:         14  HIT %:    99.9999  MISS %: 0.000113139   MPKI: 0.00028
BTB BRANCH_DIRECT_JUMP	ACCESS:    1540695  HIT:    1540692  MISS:          3
BTB BRANCH_INDIRECT	ACCESS:          0  HIT:          0  MISS:          0
BTB BRANCH_CONDITIONAL	ACCESS:   10833488  HIT:   10833477  MISS:         11
BTB BRANCH_DIRECT_CALL	ACCESS:          0  HIT:          0  MISS:          0
BTB BRANCH_INDIRECT_CALL	ACCESS:          0  HIT:          0  MISS:          0
BTB BRANCH_RETURN	ACCESS:          0  HIT:          0  MISS:          0
BTB BRANCH_OTHER ACCESS:          0  HIT:          0  MISS:          0

L2C TOTAL     ACCESS:    3917770  HIT:    1486934  MISS:    2430836  HIT %:    37.9536  MISS %:    62.0464   MPKI: 48.6167
L2C LOAD      ACCESS:    1156074  HIT:     133828  MISS:    1022246  HIT %:    11.5761  MISS %:    88.4239   MPKI: 20.4449
L2C DATA LOAD MPKI: 20.4449
L2C INSTRUCTION LOAD MPKI: 0
L2C PREFETCH  ACCESS:    1451412  HIT:     329943  MISS:    1121469  HIT %:    22.7326  MISS %:    77.2674   MPKI: 22.4294
L2C DATA PREFETCH MPKI: 22.4294
L2C INSTRUCTION PREFETCH MPKI: 0
L2C WRITEBACK ACCESS:     228951  HIT:     228945  MISS:          6  HIT %:    99.9974  MISS %: 0.00262065   MPKI: 0.00012
L2C LOAD TRANSLATION ACCESS:    1081283  HIT:     794170  MISS:     287113  HIT %:     73.447  MISS %:     26.553   MPKI: 5.74226
L2C TRANSLATION FROM L1D PREFETCHER ACCESS:         50  HIT:         48  MISS:          2  HIT %:         96  MISS %:          4   MPKI: 4e-05
L2C PREFETCH  REQUESTED:     216406  ISSUED:     216405  USEFUL:      40640  USELESS:    1080767
L2C USEFUL LOAD PREFETCHES:      40640 PREFETCH ISSUED TO LOWER LEVEL:    1121480  ACCURACY: 3.62378
L2C TIMELY PREFETCHES:      40640 LATE PREFETCHES: 12 DROPPED PREFETCHES: 0
L2C PREFETCHES SAME FILL-ORIGIN LEVEL: 63492 DIFFERENT FILL-ORIGIN LEVEL: 0
L2C AVERAGE MISS LATENCY: 210.288 cycles
L2C RQ	ACCESS:    2237406	FORWARD:          0	MERGED:          0	TO_CACHE:    2237406
L2C WQ	ACCESS:     228951	FORWARD:          0	MERGED:          0	TO_CACHE:     228951
L2C PQ	ACCESS:    1464580	FORWARD:          0	MERGED:      12882	TO_CACHE:    1451698

L2C Instructions Evicting Data 0
L2C Translations Evicting Data 249721
L2C Data Evicting Data 1893984
L2C Instructions Evicting Instructions 0
L2C Translations Evicting Instructions 0
L2C Data Evicting Instructions 0
L2C Instructions Evicting Translations 0
L2C Translations Evicting Translations 37394
L2C Data Evicting Translations 249731
L2C Dense regions hint from L2: 0
PSCL5 TOTAL     ACCESS:     682169  HIT:     682169  MISS:          0  HIT %:        100  MISS %:          0   MPKI: 0
PSCL5 LOAD TRANSLATION ACCESS:     682142  HIT:     682142  MISS:          0  HIT %:        100  MISS %:          0   MPKI: 0
PSCL5 TRANSLATION FROM L1D PREFETCHER ACCESS:         27  HIT:         27  MISS:          0  HIT %:        100  MISS %:          0   MPKI: 0
PSCL5 PREFETCH  REQUESTED:          0  ISSUED:          0  USEFUL:          0  USELESS:          0
PSCL5 USEFUL LOAD PREFETCHES:          0 PREFETCH ISSUED TO LOWER LEVEL:          0  ACCURACY: -nan
PSCL5 TIMELY PREFETCHES:          0 LATE PREFETCHES: 0 DROPPED PREFETCHES: 0
PSCL5 PREFETCHES SAME FILL-ORIGIN LEVEL: 0 DIFFERENT FILL-ORIGIN LEVEL: 0

PSCL4 TOTAL     ACCESS:     682169  HIT:     682169  MISS:          0  HIT %:        100  MISS %:          0   MPKI: 0
PSCL4 LOAD TRANSLATION ACCESS:     682142  HIT:     682142  MISS:          0  HIT %:        100  MISS %:          0   MPKI: 0
PSCL4 TRANSLATION FROM L1D PREFETCHER ACCESS:         27  HIT:         27  MISS:          0  HIT %:        100  MISS %:          0   MPKI: 0
PSCL4 PREFETCH  REQUESTED:          0  ISSUED:          0  USEFUL:          0  USELESS:          0
PSCL4 USEFUL LOAD PREFETCHES:          0 PREFETCH ISSUED TO LOWER LEVEL:          0  ACCURACY: -nan
PSCL4 TIMELY PREFETCHES:          0 LATE PREFETCHES: 0 DROPPED PREFETCHES: 0
PSCL4 PREFETCHES SAME FILL-ORIGIN LEVEL: 0 DIFFERENT FILL-ORIGIN LEVEL: 0

PSCL3 TOTAL     ACCESS:     682169  HIT:     682169  MISS:          0  HIT %:        100  MISS %:          0   MPKI: 0
PSCL3 LOAD TRANSLATION ACCESS:     682142  HIT:     682142  MISS:          0  HIT %:        100  MISS %:          0   MPKI: 0
PSCL3 TRANSLATION FROM L1D PREFETCHER ACCESS:         27  HIT:         27  MISS:          0  HIT %:        100  MISS %:          0   MPKI: 0
PSCL3 PREFETCH  REQUESTED:          0  ISSUED:          0  USEFUL:          0  USELESS:          0
PSCL3 USEFUL LOAD PREFETCHES:          0 PREFETCH ISSUED TO LOWER LEVEL:          0  ACCURACY: -nan
PSCL3 TIMELY PREFETCHES:          0 LATE PREFETCHES: 0 DROPPED PREFETCHES: 0
PSCL3 PREFETCHES SAME FILL-ORIGIN LEVEL: 0 DIFFERENT FILL-ORIGIN LEVEL: 0

PSCL2 TOTAL     ACCESS:     682169  HIT:     283002  MISS:     399167  HIT %:    41.4856  MISS %:    58.5144   MPKI: 7.98334
PSCL2 LOAD TRANSLATION ACCESS:     682165  HIT:     282998  MISS:     399167  HIT %:    41.4853  MISS %:    58.5147   MPKI: 7.98334
PSCL2 TRANSLATION FROM L1D PREFETCHER ACCESS:          4  HIT:          4  MISS:          0  HIT %:        100  MISS %:          0   MPKI: 0
PSCL2 PREFETCH  REQUESTED:          0  ISSUED:          0  USEFUL:          0  USELESS:          0
PSCL2 USEFUL LOAD PREFETCHES:          0 PREFETCH ISSUED TO LOWER LEVEL:          0  ACCURACY: -nan
PSCL2 TIMELY PREFETCHES:          0 LATE PREFETCHES: 0 DROPPED PREFETCHES: 0
PSCL2 PREFETCHES SAME FILL-ORIGIN LEVEL: 0 DIFFERENT FILL-ORIGIN LEVEL: 0

LLC TOTAL     ACCESS:    2651071  HIT:     671994  MISS:    1979077  HIT %:     25.348  MISS %:     74.652   MPKI: 39.5815
LLC LOAD      ACCESS:    1022234  HIT:     140395  MISS:     881839  HIT %:    13.7341  MISS %:    86.2659   MPKI: 17.6368
LLC PREFETCH  ACCESS:    1121481  HIT:     151437  MISS:     970044  HIT %:    13.5033  MISS %:    86.4967   MPKI: 19.4009
LLC WRITEBACK ACCESS:     220241  HIT:     220222  MISS:         19  HIT %:    99.9914  MISS %: 0.00862691   MPKI: 0.00038
LLC LOAD TRANSLATION ACCESS:     287113  HIT:     159939  MISS:     127174  HIT %:    55.7059  MISS %:    44.2941   MPKI: 2.54348
LLC TRANSLATION FROM L1D PREFETCHER ACCESS:          2  HIT:          1  MISS:          1  HIT %:         50  MISS %:         50   MPKI: 2e-05
LLC PREFETCH  REQUESTED:          0  ISSUED:          0  USEFUL:      50546  USELESS:     919190
LLC USEFUL LOAD PREFETCHES:      50546 PREFETCH ISSUED TO LOWER LEVEL:     970043  ACCURACY: 5.2107
LLC TIMELY PREFETCHES:      50546 LATE PREFETCHES: 0 DROPPED PREFETCHES: 0
LLC PREFETCHES SAME FILL-ORIGIN LEVEL: 0 DIFFERENT FILL-ORIGIN LEVEL: 0
LLC AVERAGE MISS LATENCY: 220.985 cycles
LLC RQ	ACCESS:    1309348	FORWARD:          0	MERGED:          0	TO_CACHE:    1309348
LLC WQ	ACCESS:     220241	FORWARD:          0	MERGED:          0	TO_CACHE:     220241
LLC PQ	ACCESS:    1121480	FORWARD:          0	MERGED:          0	TO_CACHE:    1121480

LLC Dense regions hint to LLC: 0

RAW hits: 693750
Loads Generated: 12426447
Loads sent to L1D: 11732697
Stores Generated: 1046092
Stores sent to L1D: 1046094
Major fault: 0 Minor fault: 84097
Allocated PAGES: 84097

stream: 
stream:times selected: 1902647
stream:pref_filled: 1155841
stream:pref_useful: 32333
stream:pref_late: 2025
stream:misses: 359352
stream:misses_by_poll: 0

CS: 
CS:times selected: 336333
CS:pref_filled: 89390
CS:pref_useful: 85066
CS:pref_late: 11
CS:misses: 3228
CS:misses_by_poll: 45

CPLX: 
CPLX:times selected: 1526708
CPLX:pref_filled: 180678
CPLX:pref_useful: 2231
CPLX:pref_late: 105
CPLX:misses: 998217
CPLX:misses_by_poll: 243

NL_L1: 
NL:times selected: 11568
NL:pref_filled: 10078
NL:pref_useful: 466
NL:pref_late: 38
NL:misses: 10571
NL:misses_by_poll: 1

total selections: 3777256
total_filled: 1245348
total_useful: 103770
total_late: 2977
total_polluted: 289
total_misses_after_warmup: 1184375
conflicts: 2
Degree Incremented Times: 45802
Degree Decremented Times: 112661

L1 IP Table Write Accesses: 10268891
L1 IP Table Read Accesses: 10268889
L1 RST Write Accesses: 1640238
L1 RST Read Accesses: 3280476
L1 CSPT Write Accesses: 1640238
L1 CSPT Read Accesses: 2961887
L1 RR Filter Tag Write Accesses: 1551812
L1 RR Filter Tag Read Accesses: 73072684
L1 IP Table Tag Write Accesses: 10268891
L1 IP Table Tag Read Accesses: 10268891
L1 RST Tag Write Accesses: 0
L1 RST Tag Read Accesses: 14897629
L1 RR Filter Write Accesses: 0
L1 RR Filter Read Accesses: 2653013
test: 1106457
L2 IP Table Read Accesses: 4793932
L2 IP Table Write Accesses: 3637859
L2 IP Table Tag Read Accesses: 2396966
L2 IP Table Tag Write Accesses: 2396966

DRAM Statistics
 CHANNEL 0
 RQ ROW_BUFFER_HIT:     128568  ROW_BUFFER_MISS:    1850489
 DBUS_CONGESTED:    1199176
 WQ ROW_BUFFER_HIT:      48750  ROW_BUFFER_MISS:     158202  FULL:          0

 AVG_CONGESTED_CYCLE: 44
 All warmup complete: 2
Channel 0 Bank busy for read cycles: 0
Channel 0 Bank busy for write cycles: 0
Channel 0
Rank 0
0banks busy for read cycles: 93677276
0banks busy for write cycles: 133005
1banks busy for read cycles: 68777610
1banks busy for write cycles: 26064154
2banks busy for read cycles: 67363242
2banks busy for write cycles: 8842759
3banks busy for read cycles: 25253826
3banks busy for write cycles: 2404660
4banks busy for read cycles: 11563894
4banks busy for write cycles: 568804
5banks busy for read cycles: 4240407
5banks busy for write cycles: 131302
6banks busy for read cycles: 1204584
6banks busy for write cycles: 26984
7banks busy for read cycles: 302660
7banks busy for write cycles: 5708
8banks busy for read cycles: 57619
8banks busy for write cycles: 230

CPU 0 Branch Prediction Accuracy: 93.3417% MPKI: 22.5154 Average ROB Occupancy at Mispredict: 18.9314
Branch types
NOT_BRANCH: 33091986 66.184%
BRANCH_DIRECT_JUMP: 1540695 3.08139%
BRANCH_INDIRECT: 0 0%
BRANCH_CONDITIONAL: 15366958 30.7339%
BRANCH_DIRECT_CALL: 0 0%
BRANCH_INDIRECT_CALL: 0 0%
BRANCH_RETURN: 0 0%
BRANCH_OTHER: 0 0%

@sumon_overall_L1D    103770      2830   1141576   1245348   3103624   3103624
@Sumon_Early_by_class_L1D     27304     74227      1840        37
@Sumon_Late_by_class_L1D      1889         8       101        37

@Sumon_Early_by_cycle_L1D      4784      5009      4490      1969       880       969       802      2888      8989     59585      9332      4073
@Sumon_Late_by_cycle_L1D      2678       148         4         0         0         0         0         0         0         0         0         0
@Sumon_Early_stream_L1D      4564      4767      4218      1799       777       704       265       718      1596      3605      2685      1606
@Sumon_Early_CS_L1D        25        38        71        62        49       204       509      2086      7219     55583      6244      2137
@Sumon_Early_CPLX_L1D       114       127       119        67        35        50        27        78       162       367       374       320
@Sumon_Late_stream_L1D      1744       141         4         0         0         0         0         0         0         0         0         0
@Sumon_Late_CS_L1D         6         2         0         0         0         0         0         0         0         0         0         0
@Sumon_Late_CPLX_L1D        96         5         0         0         0         0         0         0         0         0         0         0
@sumon_overall_L2C     40640        12   1080767   1121471    216405    216406
@Sumon_Early_by_class_L2C     34558      1334      4411         0
@Sumon_Late_by_class_L2C         0        12         0         0

@Sumon_Early_by_cycle_L2C        16        19        32        17        15        34        36        99       177       991      2951     36253
@Sumon_Late_by_cycle_L2C         8         4         0         0         0         0         0         0         0         0         0         0
@Sumon_Early_stream_L2C         0         0         0         0         0         0         0         0        15       677      2541     31325
@Sumon_Early_CS_L2C        16        19        32        17        15        34        36        99       161       265       195       445
@Sumon_Early_CPLX_L2C         0         0         0         0         0         0         0         0         1        43       191      4176
@Sumon_Late_stream_L2C         0         0         0         0         0         0         0         0         0         0         0         0
@Sumon_Late_CS_L2C         8         4         0         0         0         0         0         0         0         0         0         0
@Sumon_Late_CPLX_L2C         0         0         0         0         0         0         0         0         0         0         0         0
DRAM PAGES: 1048576
Allocated PAGES: 84097
