
*** ChampSim Multicore Out-of-Order Simulator ***

Warmup Instructions: 10000000
Simulation Instructions: 50000000
Number of CPUs: 1
LLC sets: 2048
LLC ways: 16
Off-chip DRAM Size: 4096 MB Channels: 1 Width: 64-bit Data Rate: 200 MT/s
CPU 0 runs traces/SPEC2017/605.mcf_s-484B.champsimtrace.xz
.xz
CPU 0 Bimodal branch predictor
BTB has LRU replacement policy
ITLB has LRU replacement policy
DTLB has LRU replacement policy
STLB has LRU replacement policy
L1I has LRU replacement policy
L1D has LRU replacement policy
L2C has LRU replacement policy
LLC has LRU replacement policy
Heartbeat CPU 0 instructions: 10000001 cycles: 3227108 heartbeat IPC: 3.09875 cumulative IPC: 3.09875 (Simulation time: 0 hr 19 min 57 sec) 

Warmup complete CPU 0 instructions: 10000001 cycles: 3227108 (Simulation time: 0 hr 19 min 57 sec) 

Heartbeat CPU 0 instructions: 20000000 cycles: 65244419 heartbeat IPC: 0.161245 cumulative IPC: 0.161245 (Simulation time: 1 hr 3 min 1 sec) 
Heartbeat CPU 0 instructions: 30000000 cycles: 129765762 heartbeat IPC: 0.154987 cumulative IPC: 0.158054 (Simulation time: 1 hr 46 min 39 sec) 
Heartbeat CPU 0 instructions: 40000000 cycles: 175849182 heartbeat IPC: 0.216998 cumulative IPC: 0.17379 (Simulation time: 2 hr 13 min 21 sec) 
Heartbeat CPU 0 instructions: 50000000 cycles: 234927320 heartbeat IPC: 0.169267 cumulative IPC: 0.172637 (Simulation time: 2 hr 30 min 14 sec) 
Heartbeat CPU 0 instructions: 60000003 cycles: 291745528 heartbeat IPC: 0.176 cumulative IPC: 0.173299 (Simulation time: 2 hr 39 min 14 sec) 
Finished CPU 0 instructions: 50000002 cycles: 288518420 cumulative IPC: 0.173299 (Simulation time: 2 hr 39 min 14 sec) 

ChampSim completed all CPUs

Region of Interest Statistics

CPU 0 cumulative IPC: 0.173299 instructions: 50000002 cycles: 288518420
ITLB TOTAL     ACCESS:    8175008  HIT:    8175008  MISS:          0  HIT %:        100  MISS %:          0   MPKI: 0
ITLB LOAD TRANSLATION ACCESS:    8175008  HIT:    8175008  MISS:          0  HIT %:        100  MISS %:          0   MPKI: 0
ITLB PREFETCH  REQUESTED:          0  ISSUED:          0  USEFUL:          0  USELESS:          0
ITLB USEFUL LOAD PREFETCHES:          0 PREFETCH ISSUED TO LOWER LEVEL:          0  ACCURACY: -nan
ITLB TIMELY PREFETCHES:          0 LATE PREFETCHES: 0 DROPPED PREFETCHES: 0
ITLB PREFETCHES SAME FILL-ORIGIN LEVEL: 0 DIFFERENT FILL-ORIGIN LEVEL: 0
ITLB AVERAGE MISS LATENCY: -nan cycles
ITLB RQ	ACCESS:   10670954	FORWARD:          0	MERGED:    2495947	TO_CACHE:    8175007

DTLB TOTAL     ACCESS:   13102218  HIT:   12995315  MISS:     106903  HIT %:    99.1841  MISS %:   0.815915   MPKI: 2.13806
DTLB LOAD TRANSLATION ACCESS:   13102218  HIT:   12995315  MISS:     106903  HIT %:    99.1841  MISS %:   0.815915   MPKI: 2.13806
DTLB PREFETCH  REQUESTED:          0  ISSUED:          0  USEFUL:          0  USELESS:          0
DTLB USEFUL LOAD PREFETCHES:          0 PREFETCH ISSUED TO LOWER LEVEL:          0  ACCURACY: -nan
DTLB TIMELY PREFETCHES:          0 LATE PREFETCHES: 0 DROPPED PREFETCHES: 0
DTLB PREFETCHES SAME FILL-ORIGIN LEVEL: 0 DIFFERENT FILL-ORIGIN LEVEL: 0
DTLB AVERAGE MISS LATENCY: 50.2396 cycles
DTLB RQ	ACCESS:   23514939	FORWARD:          0	MERGED:   10403636	TO_CACHE:   13111303

STLB TOTAL     ACCESS:     106903  HIT:      72396  MISS:      34507  HIT %:    67.7212  MISS %:    32.2788   MPKI: 0.69014
STLB LOAD TRANSLATION ACCESS:     106903  HIT:      72396  MISS:      34507  HIT %:    67.7212  MISS %:    32.2788   MPKI: 0.69014
STLB PREFETCH  REQUESTED:          0  ISSUED:          0  USEFUL:          0  USELESS:          0
STLB USEFUL LOAD PREFETCHES:          0 PREFETCH ISSUED TO LOWER LEVEL:          0  ACCURACY: -nan
STLB TIMELY PREFETCHES:          0 LATE PREFETCHES: 0 DROPPED PREFETCHES: 0
STLB PREFETCHES SAME FILL-ORIGIN LEVEL: 0 DIFFERENT FILL-ORIGIN LEVEL: 0
STLB AVERAGE MISS LATENCY: 127.746 cycles
STLB RQ	ACCESS:     106903	FORWARD:          0	MERGED:          0	TO_CACHE:     106903

STLB Hit, L1D data hit: 0
STLB Hit, L2C data hit: 0
STLB Hit, LLC data hit: 0
STLB Hit, LLC data miss: 0
STLB STLB hints to L2: 0
L1D TOTAL     ACCESS:   23074642  HIT:   21859208  MISS:    1215434  HIT %:    94.7326  MISS %:     5.2674   MPKI: 24.3087
L1D LOAD      ACCESS:    8950462  HIT:    7843539  MISS:    1106923  HIT %:    87.6328  MISS %:    12.3672   MPKI: 22.1385
L1D RFO       ACCESS:   14124180  HIT:   14015669  MISS:     108511  HIT %:    99.2317  MISS %:   0.768264   MPKI: 2.17022
L1D PREFETCH  REQUESTED:          0  ISSUED:          0  USEFUL:          0  USELESS:          0
L1D USEFUL LOAD PREFETCHES:          0 PREFETCH ISSUED TO LOWER LEVEL:          0  ACCURACY: -nan
L1D TIMELY PREFETCHES:          0 LATE PREFETCHES: 0 DROPPED PREFETCHES: 0
L1D PREFETCHES SAME FILL-ORIGIN LEVEL: 0 DIFFERENT FILL-ORIGIN LEVEL: 0
L1D AVERAGE MISS LATENCY: 562.568 cycles
L1D RQ	ACCESS:   15555507	FORWARD:          0	MERGED:    6481776	TO_CACHE:    9069396
L1D WQ	ACCESS:   14570723	FORWARD:       4335	MERGED:     125180	TO_CACHE:   14445543

L1D UNIQUE REGIONS ACCESSED: 0
L1D REGIONS CONFLICTS: 0
L1D Cross Page Prefetch Requests: 0
L1D Same Page Prefetch Requests: 0
L1D ROI Sum of L1D PQ occupancy: 0
L1D PREFETCHES PUSHED FROM L2C: 0
L1I TOTAL     ACCESS:   10670953  HIT:   10670953  MISS:          0  HIT %:        100  MISS %:          0   MPKI: 0
L1I LOAD      ACCESS:   10670953  HIT:   10670953  MISS:          0  HIT %:        100  MISS %:          0   MPKI: 0
L1I PREFETCH  REQUESTED:          0  ISSUED:          0  USEFUL:          0  USELESS:          0
L1I USEFUL LOAD PREFETCHES:          0 PREFETCH ISSUED TO LOWER LEVEL:          0  ACCURACY: -nan
L1I TIMELY PREFETCHES:          0 LATE PREFETCHES: 0 DROPPED PREFETCHES: 0
L1I PREFETCHES SAME FILL-ORIGIN LEVEL: 0 DIFFERENT FILL-ORIGIN LEVEL: 0
L1I AVERAGE MISS LATENCY: -nan cycles
L1I RQ	ACCESS:   14516807	FORWARD:          0	MERGED:    3845853	TO_CACHE:   10670954

BTB TOTAL     ACCESS:    4772229  HIT:    4772195  MISS:         34  HIT %:    99.9993  MISS %: 0.000712455   MPKI: 0.00068
BTB BRANCH_DIRECT_JUMP	ACCESS:     215829  HIT:     215823  MISS:          6
BTB BRANCH_INDIRECT	ACCESS:          0  HIT:          0  MISS:          0
BTB BRANCH_CONDITIONAL	ACCESS:    4556360  HIT:    4556336  MISS:         24
BTB BRANCH_DIRECT_CALL	ACCESS:         20  HIT:         18  MISS:          2
BTB BRANCH_INDIRECT_CALL	ACCESS:          0  HIT:          0  MISS:          0
BTB BRANCH_RETURN	ACCESS:         20  HIT:         18  MISS:          2
BTB BRANCH_OTHER ACCESS:          0  HIT:          0  MISS:          0

L2C TOTAL     ACCESS:    1563603  HIT:     365447  MISS:    1198156  HIT %:    23.3721  MISS %:    76.6279   MPKI: 23.9631
L2C LOAD      ACCESS:    1106921  HIT:      22328  MISS:    1084593  HIT %:    2.01713  MISS %:    97.9829   MPKI: 21.6919
L2C DATA LOAD MPKI: 21.6919
L2C INSTRUCTION LOAD MPKI: 0
L2C RFO       ACCESS:     108509  HIT:        757  MISS:     107752  HIT %:   0.697638  MISS %:    99.3024   MPKI: 2.15504
L2C WRITEBACK ACCESS:     313584  HIT:     312824  MISS:        760  HIT %:    99.7576  MISS %:   0.242359   MPKI: 0.0152
L2C LOAD TRANSLATION ACCESS:      34589  HIT:      29538  MISS:       5051  HIT %:    85.3971  MISS %:    14.6029   MPKI: 0.10102
L2C PREFETCH  REQUESTED:          0  ISSUED:          0  USEFUL:          0  USELESS:          0
L2C USEFUL LOAD PREFETCHES:          0 PREFETCH ISSUED TO LOWER LEVEL:          0  ACCURACY: -nan
L2C TIMELY PREFETCHES:          0 LATE PREFETCHES: 0 DROPPED PREFETCHES: 0
L2C PREFETCHES SAME FILL-ORIGIN LEVEL: 0 DIFFERENT FILL-ORIGIN LEVEL: 0
L2C AVERAGE MISS LATENCY: 557.503 cycles
L2C RQ	ACCESS:    1250026	FORWARD:          0	MERGED:          0	TO_CACHE:    1250022
L2C WQ	ACCESS:     313585	FORWARD:          4	MERGED:          0	TO_CACHE:     313585

L2C Instructions Evicting Data 0
L2C Translations Evicting Data 5036
L2C Data Evicting Data 1187307
L2C Instructions Evicting Instructions 0
L2C Translations Evicting Instructions 0
L2C Data Evicting Instructions 0
L2C Instructions Evicting Translations 0
L2C Translations Evicting Translations 15
L2C Data Evicting Translations 5038
L2C Dense regions hint from L2: 0
PSCL5 TOTAL     ACCESS:      34507  HIT:      34507  MISS:          0  HIT %:        100  MISS %:          0   MPKI: 0
PSCL5 LOAD TRANSLATION ACCESS:      34507  HIT:      34507  MISS:          0  HIT %:        100  MISS %:          0   MPKI: 0
PSCL5 PREFETCH  REQUESTED:          0  ISSUED:          0  USEFUL:          0  USELESS:          0
PSCL5 USEFUL LOAD PREFETCHES:          0 PREFETCH ISSUED TO LOWER LEVEL:          0  ACCURACY: -nan
PSCL5 TIMELY PREFETCHES:          0 LATE PREFETCHES: 0 DROPPED PREFETCHES: 0
PSCL5 PREFETCHES SAME FILL-ORIGIN LEVEL: 0 DIFFERENT FILL-ORIGIN LEVEL: 0

PSCL4 TOTAL     ACCESS:      34507  HIT:      34507  MISS:          0  HIT %:        100  MISS %:          0   MPKI: 0
PSCL4 LOAD TRANSLATION ACCESS:      34507  HIT:      34507  MISS:          0  HIT %:        100  MISS %:          0   MPKI: 0
PSCL4 PREFETCH  REQUESTED:          0  ISSUED:          0  USEFUL:          0  USELESS:          0
PSCL4 USEFUL LOAD PREFETCHES:          0 PREFETCH ISSUED TO LOWER LEVEL:          0  ACCURACY: -nan
PSCL4 TIMELY PREFETCHES:          0 LATE PREFETCHES: 0 DROPPED PREFETCHES: 0
PSCL4 PREFETCHES SAME FILL-ORIGIN LEVEL: 0 DIFFERENT FILL-ORIGIN LEVEL: 0

PSCL3 TOTAL     ACCESS:      34507  HIT:      34507  MISS:          0  HIT %:        100  MISS %:          0   MPKI: 0
PSCL3 LOAD TRANSLATION ACCESS:      34507  HIT:      34507  MISS:          0  HIT %:        100  MISS %:          0   MPKI: 0
PSCL3 PREFETCH  REQUESTED:          0  ISSUED:          0  USEFUL:          0  USELESS:          0
PSCL3 USEFUL LOAD PREFETCHES:          0 PREFETCH ISSUED TO LOWER LEVEL:          0  ACCURACY: -nan
PSCL3 TIMELY PREFETCHES:          0 LATE PREFETCHES: 0 DROPPED PREFETCHES: 0
PSCL3 PREFETCHES SAME FILL-ORIGIN LEVEL: 0 DIFFERENT FILL-ORIGIN LEVEL: 0

PSCL2 TOTAL     ACCESS:      34507  HIT:      34394  MISS:        113  HIT %:    99.6725  MISS %:    0.32747   MPKI: 0.00226
PSCL2 LOAD TRANSLATION ACCESS:      34507  HIT:      34394  MISS:        113  HIT %:    99.6725  MISS %:    0.32747   MPKI: 0.00226
PSCL2 PREFETCH  REQUESTED:          0  ISSUED:          0  USEFUL:          0  USELESS:          0
PSCL2 USEFUL LOAD PREFETCHES:          0 PREFETCH ISSUED TO LOWER LEVEL:          0  ACCURACY: -nan
PSCL2 TIMELY PREFETCHES:          0 LATE PREFETCHES: 0 DROPPED PREFETCHES: 0
PSCL2 PREFETCHES SAME FILL-ORIGIN LEVEL: 0 DIFFERENT FILL-ORIGIN LEVEL: 0

LLC TOTAL     ACCESS:    1496283  HIT:     300505  MISS:    1195778  HIT %:    20.0834  MISS %:    79.9166   MPKI: 23.9156
LLC LOAD      ACCESS:    1084593  HIT:       1857  MISS:    1082736  HIT %:   0.171216  MISS %:    99.8288   MPKI: 21.6547
LLC RFO       ACCESS:     107752  HIT:         19  MISS:     107733  HIT %:  0.0176331  MISS %:    99.9824   MPKI: 2.15466
LLC WRITEBACK ACCESS:     298887  HIT:     298416  MISS:        471  HIT %:    99.8424  MISS %:   0.157585   MPKI: 0.00942
LLC LOAD TRANSLATION ACCESS:       5051  HIT:        213  MISS:       4838  HIT %:    4.21699  MISS %:     95.783   MPKI: 0.09676
LLC PREFETCH  REQUESTED:          0  ISSUED:          0  USEFUL:          0  USELESS:          0
LLC USEFUL LOAD PREFETCHES:          0 PREFETCH ISSUED TO LOWER LEVEL:          0  ACCURACY: -nan
LLC TIMELY PREFETCHES:          0 LATE PREFETCHES: 0 DROPPED PREFETCHES: 0
LLC PREFETCHES SAME FILL-ORIGIN LEVEL: 0 DIFFERENT FILL-ORIGIN LEVEL: 0
LLC AVERAGE MISS LATENCY: 528.569 cycles
LLC RQ	ACCESS:    1197399	FORWARD:          0	MERGED:          0	TO_CACHE:    1197399
LLC WQ	ACCESS:     298887	FORWARD:          0	MERGED:          0	TO_CACHE:     298887

LLC Dense regions hint to LLC: 0

RAW hits: 266058
Loads Generated: 15821568
Loads sent to L1D: 15555507
Stores Generated: 14570735
Stores sent to L1D: 14570723
Major fault: 0 Minor fault: 18248
Allocated PAGES: 18248

DRAM Statistics
 CHANNEL 0
 RQ ROW_BUFFER_HIT:     420061  ROW_BUFFER_MISS:     775229
 DBUS_CONGESTED:    1359386
 WQ ROW_BUFFER_HIT:     132943  ROW_BUFFER_MISS:     173132  FULL:          0

 AVG_CONGESTED_CYCLE: 136
 All warmup complete: 2
Channel 0 Bank busy for read cycles: 0
Channel 0 Bank busy for write cycles: 0
Channel 0
Rank 0
0banks busy for read cycles: 28977688
0banks busy for write cycles: 11095
1banks busy for read cycles: 76044665
1banks busy for write cycles: 4402381
2banks busy for read cycles: 31380745
2banks busy for write cycles: 3290691
3banks busy for read cycles: 30166051
3banks busy for write cycles: 2774773
4banks busy for read cycles: 28687632
4banks busy for write cycles: 2454922
5banks busy for read cycles: 14568916
5banks busy for write cycles: 2319062
6banks busy for read cycles: 4330168
6banks busy for write cycles: 2834958
7banks busy for read cycles: 535752
7banks busy for write cycles: 8381760
8banks busy for read cycles: 6757
8banks busy for write cycles: 47350405

CPU 0 Branch Prediction Accuracy: 98.133% MPKI: 1.81274 Average ROB Occupancy at Mispredict: 211.779
Branch types
NOT_BRANCH: 45145344 90.2907%
BRANCH_DIRECT_JUMP: 215829 0.431658%
BRANCH_INDIRECT: 0 0%
BRANCH_CONDITIONAL: 4638791 9.27758%
BRANCH_DIRECT_CALL: 20 4e-05%
BRANCH_INDIRECT_CALL: 0 0%
BRANCH_RETURN: 20 4e-05%
BRANCH_OTHER: 0 0%

@sumon_overall_L1D         0         0         0         0         0         0
@Sumon_Early_by_class_L1D         0         0         0         0
@Sumon_Late_by_class_L1D         0         0         0         0

@Sumon_Early_by_cycle_L1D         0         0         0         0         0         0         0         0         0         0         0         0
@Sumon_Late_by_cycle_L1D         0         0         0         0         0         0         0         0         0         0         0         0
@Sumon_Early_stream_L1D         0         0         0         0         0         0         0         0         0         0         0         0
@Sumon_Early_CS_L1D         0         0         0         0         0         0         0         0         0         0         0         0
@Sumon_Early_CPLX_L1D         0         0         0         0         0         0         0         0         0         0         0         0
@Sumon_Late_stream_L1D         0         0         0         0         0         0         0         0         0         0         0         0
@Sumon_Late_CS_L1D         0         0         0         0         0         0         0         0         0         0         0         0
@Sumon_Late_CPLX_L1D         0         0         0         0         0         0         0         0         0         0         0         0
@sumon_overall_L2C         0         0         0         0         0         0
@Sumon_Early_by_class_L2C         0         0         0         0
@Sumon_Late_by_class_L2C         0         0         0         0

@Sumon_Early_by_cycle_L2C         0         0         0         0         0         0         0         0         0         0         0         0
@Sumon_Late_by_cycle_L2C         0         0         0         0         0         0         0         0         0         0         0         0
@Sumon_Early_stream_L2C         0         0         0         0         0         0         0         0         0         0         0         0
@Sumon_Early_CS_L2C         0         0         0         0         0         0         0         0         0         0         0         0
@Sumon_Early_CPLX_L2C         0         0         0         0         0         0         0         0         0         0         0         0
@Sumon_Late_stream_L2C         0         0         0         0         0         0         0         0         0         0         0         0
@Sumon_Late_CS_L2C         0         0         0         0         0         0         0         0         0         0         0         0
@Sumon_Late_CPLX_L2C         0         0         0         0         0         0         0         0         0         0         0         0
DRAM PAGES: 1048576
Allocated PAGES: 18248
