
*** ChampSim Multicore Out-of-Order Simulator ***

Warmup Instructions: 10000000
Simulation Instructions: 50000000
Number of CPUs: 1
LLC sets: 2048
LLC ways: 16
Off-chip DRAM Size: 4096 MB Channels: 1 Width: 64-bit Data Rate: 6400 MT/s
CPU 0 runs dpc3_traces/605.mcf_s-484B.champsimtrace.xz
.xz
CPU 0 Bimodal branch predictor
BTB has LRU replacement policy
ITLB has LRU replacement policy
DTLB has LRU replacement policy
STLB has LRU replacement policy
L1I has LRU replacement policy
IP Table Entries: 256
L1D has LRU replacement policy
IP_Table L2 entries: 256
L2C has LRU replacement policy
LLC has LRU replacement policy
Heartbeat CPU 0 instructions: 10000001 cycles: 3165151 heartbeat IPC: 3.15941 cumulative IPC: 3.15941 (Simulation time: 0 hr 7 min 51 sec) 

Warmup complete CPU 0 instructions: 10000001 cycles: 3165151 (Simulation time: 0 hr 7 min 51 sec) 

Heartbeat CPU 0 instructions: 20000000 cycles: 31996804 heartbeat IPC: 0.346841 cumulative IPC: 0.346841 (Simulation time: 0 hr 17 min 33 sec) 
Heartbeat CPU 0 instructions: 30000000 cycles: 57745454 heartbeat IPC: 0.38837 cumulative IPC: 0.366433 (Simulation time: 0 hr 27 min 11 sec) 
Heartbeat CPU 0 instructions: 40000000 cycles: 84012198 heartbeat IPC: 0.38071 cumulative IPC: 0.371071 (Simulation time: 0 hr 35 min 22 sec) 
Heartbeat CPU 0 instructions: 50000000 cycles: 111437369 heartbeat IPC: 0.364629 cumulative IPC: 0.369439 (Simulation time: 0 hr 40 min 39 sec) 
Heartbeat CPU 0 instructions: 60000003 cycles: 137883587 heartbeat IPC: 0.378126 cumulative IPC: 0.371144 (Simulation time: 0 hr 43 min 55 sec) 
Finished CPU 0 instructions: 50000002 cycles: 134718436 cumulative IPC: 0.371144 (Simulation time: 0 hr 43 min 55 sec) 

ChampSim completed all CPUs

Region of Interest Statistics

CPU 0 cumulative IPC: 0.371144 instructions: 50000002 cycles: 134718436
ITLB TOTAL     ACCESS:    8205046  HIT:    8205046  MISS:          0  HIT %:        100  MISS %:          0   MPKI: 0
ITLB LOAD TRANSLATION ACCESS:    8205046  HIT:    8205046  MISS:          0  HIT %:        100  MISS %:          0   MPKI: 0
ITLB PREFETCH  REQUESTED:          0  ISSUED:          0  USEFUL:          0  USELESS:          0
ITLB USEFUL LOAD PREFETCHES:          0 PREFETCH ISSUED TO LOWER LEVEL:          0  ACCURACY: -nan
ITLB TIMELY PREFETCHES:          0 LATE PREFETCHES: 0 DROPPED PREFETCHES: 0
ITLB PREFETCHES SAME FILL-ORIGIN LEVEL: 0 DIFFERENT FILL-ORIGIN LEVEL: 0
ITLB AVERAGE MISS LATENCY: -nan cycles
ITLB RQ	ACCESS:   10686994	FORWARD:          0	MERGED:    2481949	TO_CACHE:    8205045

DTLB TOTAL     ACCESS:   13228059  HIT:   13121089  MISS:     106970  HIT %:    99.1913  MISS %:    0.80866   MPKI: 2.1394
DTLB LOAD TRANSLATION ACCESS:   13228059  HIT:   13121089  MISS:     106970  HIT %:    99.1913  MISS %:    0.80866   MPKI: 2.1394
DTLB PREFETCH  REQUESTED:          0  ISSUED:          0  USEFUL:          0  USELESS:          0
DTLB USEFUL LOAD PREFETCHES:          0 PREFETCH ISSUED TO LOWER LEVEL:          0  ACCURACY: -nan
DTLB TIMELY PREFETCHES:          0 LATE PREFETCHES: 0 DROPPED PREFETCHES: 0
DTLB PREFETCHES SAME FILL-ORIGIN LEVEL: 0 DIFFERENT FILL-ORIGIN LEVEL: 0
DTLB AVERAGE MISS LATENCY: 37.1566 cycles
DTLB RQ	ACCESS:   23508155	FORWARD:          0	MERGED:   10266501	TO_CACHE:   13241654

STLB TOTAL     ACCESS:    3956400  HIT:    3921952  MISS:      34448  HIT %:    99.1293  MISS %:   0.870691   MPKI: 0.68896
STLB LOAD TRANSLATION ACCESS:     106970  HIT:      72530  MISS:      34440  HIT %:    67.8041  MISS %:    32.1959   MPKI: 0.6888
STLB TRANSLATION FROM L1D PREFETCHER ACCESS:    3849430  HIT:    3849422  MISS:          8  HIT %:    99.9998  MISS %: 0.000207823   MPKI: 0.00016
STLB PREFETCH  REQUESTED:          0  ISSUED:          0  USEFUL:          4  USELESS:          4
STLB USEFUL LOAD PREFETCHES:          4 PREFETCH ISSUED TO LOWER LEVEL:          0  ACCURACY: inf
STLB TIMELY PREFETCHES:          4 LATE PREFETCHES: 0 DROPPED PREFETCHES: 0
STLB PREFETCHES SAME FILL-ORIGIN LEVEL: 0 DIFFERENT FILL-ORIGIN LEVEL: 0
STLB AVERAGE MISS LATENCY: 87.4635 cycles
STLB RQ	ACCESS:    6340878	FORWARD:          0	MERGED:    2384478	TO_CACHE:    3956400

STLB Hit, L1D data hit: 0
STLB Hit, L2C data hit: 0
STLB Hit, LLC data hit: 0
STLB Hit, LLC data miss: 0
STLB STLB hints to L2: 0
L1D TOTAL     ACCESS:   29063238  HIT:   27133636  MISS:    1929602  HIT %:    93.3607  MISS %:    6.63932   MPKI: 38.592
L1D LOAD      ACCESS:    8965425  HIT:    8188616  MISS:     776809  HIT %:    91.3355  MISS %:     8.6645   MPKI: 15.5362
L1D RFO       ACCESS:   14126771  HIT:   14025287  MISS:     101484  HIT %:    99.2816  MISS %:   0.718381   MPKI: 2.02968
L1D PREFETCH  ACCESS:    5971042  HIT:    4919733  MISS:    1051309  HIT %:    82.3932  MISS %:    17.6068   MPKI: 21.0262
L1D PREFETCH  REQUESTED:   12467900  ISSUED:   12467821  USEFUL:     352651  USELESS:     698790
L1D USEFUL LOAD PREFETCHES:     352651 PREFETCH ISSUED TO LOWER LEVEL:    1239293  ACCURACY: 28.4558
L1D TIMELY PREFETCHES:     352651 LATE PREFETCHES: 186307 DROPPED PREFETCHES: 0
L1D PREFETCHES SAME FILL-ORIGIN LEVEL: 1239293 DIFFERENT FILL-ORIGIN LEVEL: 0
L1D AVERAGE MISS LATENCY: 6.55343e+06 cycles
L1D RQ	ACCESS:   15557973	FORWARD:          0	MERGED:    6506414	TO_CACHE:    9047330
L1D WQ	ACCESS:   14570723	FORWARD:       4234	MERGED:     109898	TO_CACHE:   14460825
L1D PQ	ACCESS:    6233913	FORWARD:          0	MERGED:          0	TO_CACHE:    6233908

L1D UNIQUE REGIONS ACCESSED: 0
L1D REGIONS CONFLICTS: 0
L1D Cross Page Prefetch Requests: 0
L1D Same Page Prefetch Requests: 7431558
L1D ROI Sum of L1D PQ occupancy: 81402915
L1D PREFETCHES PUSHED FROM L2C: 0
L1I TOTAL     ACCESS:   10686993  HIT:   10686993  MISS:          0  HIT %:        100  MISS %:          0   MPKI: 0
L1I LOAD      ACCESS:   10686993  HIT:   10686993  MISS:          0  HIT %:        100  MISS %:          0   MPKI: 0
L1I PREFETCH  REQUESTED:          0  ISSUED:          0  USEFUL:          0  USELESS:          0
L1I USEFUL LOAD PREFETCHES:          0 PREFETCH ISSUED TO LOWER LEVEL:          0  ACCURACY: -nan
L1I TIMELY PREFETCHES:          0 LATE PREFETCHES: 0 DROPPED PREFETCHES: 0
L1I PREFETCHES SAME FILL-ORIGIN LEVEL: 0 DIFFERENT FILL-ORIGIN LEVEL: 0
L1I AVERAGE MISS LATENCY: -nan cycles
L1I RQ	ACCESS:   14483089	FORWARD:          0	MERGED:    3796095	TO_CACHE:   10686994

BTB TOTAL     ACCESS:    4772229  HIT:    4772195  MISS:         34  HIT %:    99.9993  MISS %: 0.000712455   MPKI: 0.00068
BTB BRANCH_DIRECT_JUMP	ACCESS:     215829  HIT:     215823  MISS:          6
BTB BRANCH_INDIRECT	ACCESS:          0  HIT:          0  MISS:          0
BTB BRANCH_CONDITIONAL	ACCESS:    4556360  HIT:    4556336  MISS:         24
BTB BRANCH_DIRECT_CALL	ACCESS:         20  HIT:         18  MISS:          2
BTB BRANCH_INDIRECT_CALL	ACCESS:          0  HIT:          0  MISS:          0
BTB BRANCH_RETURN	ACCESS:         20  HIT:         18  MISS:          2
BTB BRANCH_OTHER ACCESS:          0  HIT:          0  MISS:          0

L2C TOTAL     ACCESS:    2574194  HIT:     883928  MISS:    1690266  HIT %:     34.338  MISS %:     65.662   MPKI: 33.8053
L2C LOAD      ACCESS:     590497  HIT:      41945  MISS:     548552  HIT %:    7.10334  MISS %:    92.8967   MPKI: 10.971
L2C DATA LOAD MPKI: 10.971
L2C INSTRUCTION LOAD MPKI: 0
L2C RFO       ACCESS:      99809  HIT:       1902  MISS:      97907  HIT %:    1.90564  MISS %:    98.0944   MPKI: 1.95814
L2C PREFETCH  ACCESS:    1521983  HIT:     484292  MISS:    1037691  HIT %:    31.8198  MISS %:    68.1802   MPKI: 20.7538
L2C DATA PREFETCH MPKI: 20.7538
L2C INSTRUCTION PREFETCH MPKI: 0
L2C WRITEBACK ACCESS:     327374  HIT:     326339  MISS:       1035  HIT %:    99.6838  MISS %:   0.316152   MPKI: 0.0207
L2C LOAD TRANSLATION ACCESS:      34523  HIT:      29449  MISS:       5074  HIT %:    85.3026  MISS %:    14.6974   MPKI: 0.10148
L2C TRANSLATION FROM L1D PREFETCHER ACCESS:          8  HIT:          1  MISS:          7  HIT %:       12.5  MISS %:       87.5   MPKI: 0.00014
L2C PREFETCH  REQUESTED:     362024  ISSUED:     362024  USEFUL:      18932  USELESS:    1018190
L2C USEFUL LOAD PREFETCHES:      18932 PREFETCH ISSUED TO LOWER LEVEL:    1037752  ACCURACY: 1.82433
L2C TIMELY PREFETCHES:      18932 LATE PREFETCHES: 56 DROPPED PREFETCHES: 0
L2C PREFETCHES SAME FILL-ORIGIN LEVEL: 129567 DIFFERENT FILL-ORIGIN LEVEL: 0
L2C AVERAGE MISS LATENCY: 181.568 cycles
L2C RQ	ACCESS:     724847	FORWARD:          0	MERGED:          0	TO_CACHE:     724839
L2C WQ	ACCESS:     327374	FORWARD:         16	MERGED:          0	TO_CACHE:     327374
L2C PQ	ACCESS:    1601317	FORWARD:          0	MERGED:      14967	TO_CACHE:    1586342

L2C Instructions Evicting Data 0
L2C Translations Evicting Data 5077
L2C Data Evicting Data 1679076
L2C Instructions Evicting Instructions 0
L2C Translations Evicting Instructions 0
L2C Data Evicting Instructions 0
L2C Instructions Evicting Translations 0
L2C Translations Evicting Translations 4
L2C Data Evicting Translations 5074
L2C Dense regions hint from L2: 0
PSCL5 TOTAL     ACCESS:      34448  HIT:      34448  MISS:          0  HIT %:        100  MISS %:          0   MPKI: 0
PSCL5 LOAD TRANSLATION ACCESS:      34440  HIT:      34440  MISS:          0  HIT %:        100  MISS %:          0   MPKI: 0
PSCL5 TRANSLATION FROM L1D PREFETCHER ACCESS:          8  HIT:          8  MISS:          0  HIT %:        100  MISS %:          0   MPKI: 0
PSCL5 PREFETCH  REQUESTED:          0  ISSUED:          0  USEFUL:          0  USELESS:          0
PSCL5 USEFUL LOAD PREFETCHES:          0 PREFETCH ISSUED TO LOWER LEVEL:          0  ACCURACY: -nan
PSCL5 TIMELY PREFETCHES:          0 LATE PREFETCHES: 0 DROPPED PREFETCHES: 0
PSCL5 PREFETCHES SAME FILL-ORIGIN LEVEL: 0 DIFFERENT FILL-ORIGIN LEVEL: 0

PSCL4 TOTAL     ACCESS:      34448  HIT:      34448  MISS:          0  HIT %:        100  MISS %:          0   MPKI: 0
PSCL4 LOAD TRANSLATION ACCESS:      34440  HIT:      34440  MISS:          0  HIT %:        100  MISS %:          0   MPKI: 0
PSCL4 TRANSLATION FROM L1D PREFETCHER ACCESS:          8  HIT:          8  MISS:          0  HIT %:        100  MISS %:          0   MPKI: 0
PSCL4 PREFETCH  REQUESTED:          0  ISSUED:          0  USEFUL:          0  USELESS:          0
PSCL4 USEFUL LOAD PREFETCHES:          0 PREFETCH ISSUED TO LOWER LEVEL:          0  ACCURACY: -nan
PSCL4 TIMELY PREFETCHES:          0 LATE PREFETCHES: 0 DROPPED PREFETCHES: 0
PSCL4 PREFETCHES SAME FILL-ORIGIN LEVEL: 0 DIFFERENT FILL-ORIGIN LEVEL: 0

PSCL3 TOTAL     ACCESS:      34448  HIT:      34448  MISS:          0  HIT %:        100  MISS %:          0   MPKI: 0
PSCL3 LOAD TRANSLATION ACCESS:      34440  HIT:      34440  MISS:          0  HIT %:        100  MISS %:          0   MPKI: 0
PSCL3 TRANSLATION FROM L1D PREFETCHER ACCESS:          8  HIT:          8  MISS:          0  HIT %:        100  MISS %:          0   MPKI: 0
PSCL3 PREFETCH  REQUESTED:          0  ISSUED:          0  USEFUL:          0  USELESS:          0
PSCL3 USEFUL LOAD PREFETCHES:          0 PREFETCH ISSUED TO LOWER LEVEL:          0  ACCURACY: -nan
PSCL3 TIMELY PREFETCHES:          0 LATE PREFETCHES: 0 DROPPED PREFETCHES: 0
PSCL3 PREFETCHES SAME FILL-ORIGIN LEVEL: 0 DIFFERENT FILL-ORIGIN LEVEL: 0

PSCL2 TOTAL     ACCESS:      34448  HIT:      34334  MISS:        114  HIT %:    99.6691  MISS %:   0.330934   MPKI: 0.00228
PSCL2 LOAD TRANSLATION ACCESS:      34440  HIT:      34326  MISS:        114  HIT %:     99.669  MISS %:    0.33101   MPKI: 0.00228
PSCL2 TRANSLATION FROM L1D PREFETCHER ACCESS:          8  HIT:          8  MISS:          0  HIT %:        100  MISS %:          0   MPKI: 0
PSCL2 PREFETCH  REQUESTED:          0  ISSUED:          0  USEFUL:          0  USELESS:          0
PSCL2 USEFUL LOAD PREFETCHES:          0 PREFETCH ISSUED TO LOWER LEVEL:          0  ACCURACY: -nan
PSCL2 TIMELY PREFETCHES:          0 LATE PREFETCHES: 0 DROPPED PREFETCHES: 0
PSCL2 PREFETCHES SAME FILL-ORIGIN LEVEL: 0 DIFFERENT FILL-ORIGIN LEVEL: 0

LLC TOTAL     ACCESS:    1987621  HIT:     316806  MISS:    1670815  HIT %:     15.939  MISS %:     84.061   MPKI: 33.4163
LLC LOAD      ACCESS:     548496  HIT:       2060  MISS:     546436  HIT %:   0.375572  MISS %:    99.6244   MPKI: 10.9287
LLC RFO       ACCESS:      97907  HIT:         55  MISS:      97852  HIT %:  0.0561758  MISS %:    99.9438   MPKI: 1.95704
LLC PREFETCH  ACCESS:    1037747  HIT:      17321  MISS:    1020426  HIT %:     1.6691  MISS %:    98.3309   MPKI: 20.4085
LLC WRITEBACK ACCESS:     298390  HIT:     297115  MISS:       1275  HIT %:    99.5727  MISS %:   0.427293   MPKI: 0.0255
LLC LOAD TRANSLATION ACCESS:       5074  HIT:        255  MISS:       4819  HIT %:    5.02562  MISS %:    94.9744   MPKI: 0.09638
LLC TRANSLATION FROM L1D PREFETCHER ACCESS:          7  HIT:          0  MISS:          7  HIT %:          0  MISS %:        100   MPKI: 0.00014
LLC PREFETCH  REQUESTED:          0  ISSUED:          0  USEFUL:       1366  USELESS:    1015997
LLC USEFUL LOAD PREFETCHES:       1366 PREFETCH ISSUED TO LOWER LEVEL:    1020431  ACCURACY: 0.133865
LLC TIMELY PREFETCHES:       1366 LATE PREFETCHES: 0 DROPPED PREFETCHES: 0
LLC PREFETCHES SAME FILL-ORIGIN LEVEL: 0 DIFFERENT FILL-ORIGIN LEVEL: 0
LLC AVERAGE MISS LATENCY: 153.225 cycles
LLC RQ	ACCESS:     651486	FORWARD:          0	MERGED:          0	TO_CACHE:     651486
LLC WQ	ACCESS:     298390	FORWARD:          0	MERGED:          0	TO_CACHE:     298390
LLC PQ	ACCESS:    1037752	FORWARD:          0	MERGED:          0	TO_CACHE:    1037752

LLC Dense regions hint to LLC: 0

RAW hits: 263601
Loads Generated: 15821575
Loads sent to L1D: 15557973
Stores Generated: 14570745
Stores sent to L1D: 14570723
Major fault: 0 Minor fault: 18248
Allocated PAGES: 18248

stream: 
stream:times selected: 6985439
stream:pref_filled: 570426
stream:pref_useful: 122116
stream:pref_late: 70852
stream:misses: 112019
stream:misses_by_poll: 0

CS: 
CS:times selected: 206237
CS:pref_filled: 134578
CS:pref_useful: 133691
CS:pref_late: 455
CS:misses: 1116
CS:misses_by_poll: 184

CPLX: 
CPLX:times selected: 6720033
CPLX:pref_filled: 517591
CPLX:pref_useful: 155401
CPLX:pref_late: 132286
CPLX:misses: 767592
CPLX:misses_by_poll: 3878

NL_L1: 
NL:times selected: 75661
NL:pref_filled: 7943
NL:pref_useful: 4028
NL:pref_late: 808
NL:misses: 16373
NL:misses_by_poll: 4

total selections: 13987370
total_filled: 1051309
total_useful: 352651
total_late: 206654
total_polluted: 4066
total_misses_after_warmup: 858713
conflicts: 19239
Degree Incremented Times: 42142
Degree Decremented Times: 126531

L1 IP Table Write Accesses: 8966449
L1 IP Table Read Accesses: 8947210
L1 RST Write Accesses: 5798396
L1 RST Read Accesses: 11596792
L1 CSPT Write Accesses: 5798396
L1 CSPT Read Accesses: 11372575
L1 RR Filter Tag Write Accesses: 6233992
L1 RR Filter Tag Read Accesses: 280068390
L1 IP Table Tag Write Accesses: 9047329
L1 IP Table Tag Read Accesses: 9047329
L1 RST Tag Write Accesses: 0
L1 RST Tag Read Accesses: 57277149
L1 RR Filter Write Accesses: 0
L1 RR Filter Read Accesses: 9177055
test: 3966314
L2 IP Table Read Accesses: 3553809
L2 IP Table Write Accesses: 3018771
L2 IP Table Tag Read Accesses: 1804541
L2 IP Table Tag Write Accesses: 1804541

DRAM Statistics
 CHANNEL 0
 RQ ROW_BUFFER_HIT:     820421  ROW_BUFFER_MISS:     849120
 DBUS_CONGESTED:       1269
 WQ ROW_BUFFER_HIT:      78669  ROW_BUFFER_MISS:     225831  FULL:          0

 AVG_CONGESTED_CYCLE: 5
 All warmup complete: 2
Channel 0 Bank busy for read cycles: 0
Channel 0 Bank busy for write cycles: 0
Channel 0
Rank 0
0banks busy for read cycles: 40820200
0banks busy for write cycles: 53233
1banks busy for read cycles: 29133863
1banks busy for write cycles: 7554013
2banks busy for read cycles: 17387234
2banks busy for write cycles: 4986652
3banks busy for read cycles: 9876289
3banks busy for write cycles: 3479986
4banks busy for read cycles: 4785285
4banks busy for write cycles: 2295469
5banks busy for read cycles: 3025774
5banks busy for write cycles: 1412391
6banks busy for read cycles: 2418053
6banks busy for write cycles: 833579
7banks busy for read cycles: 1913476
7banks busy for write cycles: 658813
8banks busy for read cycles: 1654147
8banks busy for write cycles: 2429980

CPU 0 Branch Prediction Accuracy: 98.133% MPKI: 1.81274 Average ROB Occupancy at Mispredict: 211.457
Branch types
NOT_BRANCH: 45145344 90.2907%
BRANCH_DIRECT_JUMP: 215829 0.431658%
BRANCH_INDIRECT: 0 0%
BRANCH_CONDITIONAL: 4638791 9.27758%
BRANCH_DIRECT_CALL: 20 4e-05%
BRANCH_INDIRECT_CALL: 0 0%
BRANCH_RETURN: 20 4e-05%
BRANCH_OTHER: 0 0%

@sumon_overall_L1D    352651    186307    698790   1051309  12467821  12467900
@Sumon_Early_by_class_L1D     98273    120030    130931       763
@Sumon_Late_by_class_L1D     65529       439    117674       763

@Sumon_Early_by_cycleL1D     79554     43325     43544     24763     12199     34917     15514     21533     36328     25995     11640      3339
@Sumon_Late_by_cycleL1D     69113     97940     18282       904        63         4         0         0         0         0         0         0
@Sumon_Early_stream_L1D     48218     19730      5411       456        29      6187      4525      4445      4066      3380      1050       776
@Sumon_Early_CS_L1D      6365      6137     26542     21756     11322     15877      4671      9079     17912       367         1         1
@Sumon_Early_CPLX_L1D     23132     16663     11390      2530       847     12780      6256      7885     14208     22147     10557      2536
@Sumon_Late_stream_L1D     32628     29059      3596       235        10         1         0         0         0         0         0         0
@Sumon_Late_CS_L1D       253       163        20         3         0         0         0         0         0         0         0         0
@Sumon_Late_CPLX_L1D     33833     68488     14632       665        53         3         0         0         0         0         0         0
@sumon_overall_L2C     18932        56   1018190   1037698    362024    362024
@Sumon_Early_by_class_L2C      2309       706     13496         0
@Sumon_Late_by_class_L2C         0        47         0         0

@Sumon_Early_by_cycleL2C        40        43       121       158       106       228       105       215       453      1627      3512     12324
@Sumon_Late_by_cycleL2C        31        17         7         1         0         0         0         0         0         0         0         0
@Sumon_Early_stream_L2C         0         0         0         0         0         0         0         3        55       322       500      1429
@Sumon_Early_CS_L2C        40        42       120       158       106       146        34         9        22        24         1         4
@Sumon_Early_CPLX_L2C         0         0         0         0         0         0         0         2        37       661      2671     10125
@Sumon_Late_stream_L2C         0         0         0         0         0         0         0         0         0         0         0         0
@Sumon_Late_CS_L2C        28        11         7         1         0         0         0         0         0         0         0         0
@Sumon_Late_CPLX_L2C         0         0         0         0         0         0         0         0         0         0         0         0
DRAM PAGES: 1048576
Allocated PAGES: 18248
