
*** ChampSim Multicore Out-of-Order Simulator ***

Warmup Instructions: 10000000
Simulation Instructions: 50000000
Number of CPUs: 1
LLC sets: 2048
LLC ways: 16
Off-chip DRAM Size: 4096 MB Channels: 1 Width: 64-bit Data Rate: 6400 MT/s
CPU 0 runs dpc3_traces/620.omnetpp_s-874B.champsimtrace.xz
.xz
CPU 0 Bimodal branch predictor
BTB has LRU replacement policy
ITLB has LRU replacement policy
DTLB has LRU replacement policy
STLB has LRU replacement policy
L1I has LRU replacement policy
IP Table Entries: 256
L1D has LRU replacement policy
IP_Table L2 entries: 256
L2C has LRU replacement policy
LLC has LRU replacement policy
Heartbeat CPU 0 instructions: 10000001 cycles: 3908163 heartbeat IPC: 2.55875 cumulative IPC: 2.55875 (Simulation time: 0 hr 8 min 43 sec) 

Warmup complete CPU 0 instructions: 10000001 cycles: 3908163 (Simulation time: 0 hr 8 min 43 sec) 

Heartbeat CPU 0 instructions: 20000000 cycles: 50072091 heartbeat IPC: 0.216619 cumulative IPC: 0.216619 (Simulation time: 0 hr 18 min 34 sec) 
Heartbeat CPU 0 instructions: 30000002 cycles: 96215886 heartbeat IPC: 0.216714 cumulative IPC: 0.216667 (Simulation time: 0 hr 26 min 33 sec) 
Heartbeat CPU 0 instructions: 40000000 cycles: 142873118 heartbeat IPC: 0.214329 cumulative IPC: 0.215882 (Simulation time: 0 hr 34 min 19 sec) 
Heartbeat CPU 0 instructions: 50000001 cycles: 189569409 heartbeat IPC: 0.21415 cumulative IPC: 0.215446 (Simulation time: 0 hr 37 min 28 sec) 
Heartbeat CPU 0 instructions: 60000001 cycles: 236095128 heartbeat IPC: 0.214935 cumulative IPC: 0.215344 (Simulation time: 0 hr 38 min 55 sec) 
Finished CPU 0 instructions: 50000000 cycles: 232186965 cumulative IPC: 0.215344 (Simulation time: 0 hr 38 min 55 sec) 

ChampSim completed all CPUs

Region of Interest Statistics

CPU 0 cumulative IPC: 0.215344 instructions: 50000000 cycles: 232186965
ITLB TOTAL     ACCESS:    8266047  HIT:    8186420  MISS:      79627  HIT %:    99.0367  MISS %:   0.963302   MPKI: 1.59254
ITLB LOAD TRANSLATION ACCESS:    8266047  HIT:    8186420  MISS:      79627  HIT %:    99.0367  MISS %:   0.963302   MPKI: 1.59254
ITLB PREFETCH  REQUESTED:          0  ISSUED:          0  USEFUL:          0  USELESS:          0
ITLB USEFUL LOAD PREFETCHES:          0 PREFETCH ISSUED TO LOWER LEVEL:          0  ACCURACY: -nan
ITLB TIMELY PREFETCHES:          0 LATE PREFETCHES: 0 DROPPED PREFETCHES: 0
ITLB PREFETCHES SAME FILL-ORIGIN LEVEL: 0 DIFFERENT FILL-ORIGIN LEVEL: 0
ITLB AVERAGE MISS LATENCY: 10.2201 cycles
ITLB RQ	ACCESS:    9321266	FORWARD:          0	MERGED:    1030853	TO_CACHE:    8290413

DTLB TOTAL     ACCESS:   19550429  HIT:   18591013  MISS:     959416  HIT %:    95.0926  MISS %:    4.90739   MPKI: 19.1883
DTLB LOAD TRANSLATION ACCESS:   19550429  HIT:   18591013  MISS:     959416  HIT %:    95.0926  MISS %:    4.90739   MPKI: 19.1883
DTLB PREFETCH  REQUESTED:          0  ISSUED:          0  USEFUL:          0  USELESS:          0
DTLB USEFUL LOAD PREFETCHES:          0 PREFETCH ISSUED TO LOWER LEVEL:          0  ACCURACY: -nan
DTLB TIMELY PREFETCHES:          0 LATE PREFETCHES: 0 DROPPED PREFETCHES: 0
DTLB PREFETCHES SAME FILL-ORIGIN LEVEL: 0 DIFFERENT FILL-ORIGIN LEVEL: 0
DTLB AVERAGE MISS LATENCY: 34.8096 cycles
DTLB RQ	ACCESS:   22024130	FORWARD:          0	MERGED:    2458304	TO_CACHE:   19565826

STLB TOTAL     ACCESS:    2862385  HIT:    2646634  MISS:     215751  HIT %:    92.4625  MISS %:    7.53746   MPKI: 4.31502
STLB LOAD TRANSLATION ACCESS:    1039043  HIT:     823292  MISS:     215751  HIT %:    79.2356  MISS %:    20.7644   MPKI: 4.31502
STLB TRANSLATION FROM L1D PREFETCHER ACCESS:    1823342  HIT:    1823342  MISS:          0  HIT %:        100  MISS %:          0   MPKI: 0
STLB PREFETCH  REQUESTED:          0  ISSUED:          0  USEFUL:          0  USELESS:          0
STLB USEFUL LOAD PREFETCHES:          0 PREFETCH ISSUED TO LOWER LEVEL:          0  ACCURACY: -nan
STLB TIMELY PREFETCHES:          0 LATE PREFETCHES: 0 DROPPED PREFETCHES: 0
STLB PREFETCHES SAME FILL-ORIGIN LEVEL: 0 DIFFERENT FILL-ORIGIN LEVEL: 0
STLB AVERAGE MISS LATENCY: 114.94 cycles
STLB RQ	ACCESS:    3289804	FORWARD:          0	MERGED:     427418	TO_CACHE:    2862386

STLB Hit, L1D data hit: 0
STLB Hit, L2C data hit: 0
STLB Hit, LLC data hit: 0
STLB Hit, LLC data miss: 0
STLB STLB hints to L2: 0
L1D TOTAL     ACCESS:   23938773  HIT:   22280097  MISS:    1658676  HIT %:    93.0712  MISS %:    6.92883   MPKI: 33.1735
L1D LOAD      ACCESS:   12729831  HIT:   11972128  MISS:     757703  HIT %:    94.0478  MISS %:    5.95218   MPKI: 15.1541
L1D RFO       ACCESS:    9036076  HIT:    8929764  MISS:     106312  HIT %:    98.8235  MISS %:    1.17653   MPKI: 2.12624
L1D PREFETCH  ACCESS:    2172866  HIT:    1378205  MISS:     794661  HIT %:     63.428  MISS %:     36.572   MPKI: 15.8932
L1D PREFETCH  REQUESTED:    4501967  ISSUED:    4501963  USEFUL:     112191  USELESS:     682411
L1D USEFUL LOAD PREFETCHES:     112191 PREFETCH ISSUED TO LOWER LEVEL:     809275  ACCURACY: 13.8631
L1D TIMELY PREFETCHES:     112191 LATE PREFETCHES: 12782 DROPPED PREFETCHES: 0
L1D PREFETCHES SAME FILL-ORIGIN LEVEL: 809275 DIFFERENT FILL-ORIGIN LEVEL: 0
L1D AVERAGE MISS LATENCY: 1.07572e+06 cycles
L1D RQ	ACCESS:   16245600	FORWARD:          0	MERGED:    2802078	TO_CACHE:   12817456
L1D WQ	ACCESS:    9281775	FORWARD:     626509	MERGED:      75101	TO_CACHE:    9206674
L1D PQ	ACCESS:    2251203	FORWARD:          0	MERGED:          0	TO_CACHE:    2250760

L1D UNIQUE REGIONS ACCESSED: 0
L1D REGIONS CONFLICTS: 0
L1D Cross Page Prefetch Requests: 0
L1D Same Page Prefetch Requests: 2674579
L1D ROI Sum of L1D PQ occupancy: 29228727
L1D PREFETCHES PUSHED FROM L2C: 0
L1I TOTAL     ACCESS:    9314840  HIT:    9296266  MISS:      18574  HIT %:    99.8006  MISS %:   0.199402   MPKI: 0.37148
L1I LOAD      ACCESS:    9314840  HIT:    9296266  MISS:      18574  HIT %:    99.8006  MISS %:   0.199402   MPKI: 0.37148
L1I PREFETCH  REQUESTED:          0  ISSUED:          0  USEFUL:          0  USELESS:          0
L1I USEFUL LOAD PREFETCHES:          0 PREFETCH ISSUED TO LOWER LEVEL:          0  ACCURACY: -nan
L1I TIMELY PREFETCHES:          0 LATE PREFETCHES: 0 DROPPED PREFETCHES: 0
L1I PREFETCHES SAME FILL-ORIGIN LEVEL: 0 DIFFERENT FILL-ORIGIN LEVEL: 0
L1I AVERAGE MISS LATENCY: 32.921 cycles
L1I RQ	ACCESS:   14346928	FORWARD:          0	MERGED:    5025662	TO_CACHE:    9321266

BTB TOTAL     ACCESS:    7896296  HIT:    7421687  MISS:     474609  HIT %:    93.9895  MISS %:    6.01053   MPKI: 9.49218
BTB BRANCH_DIRECT_JUMP	ACCESS:     569513  HIT:     569409  MISS:        104
BTB BRANCH_INDIRECT	ACCESS:     168336  HIT:     146852  MISS:      21484
BTB BRANCH_CONDITIONAL	ACCESS:    4189086  HIT:    4188659  MISS:        427
BTB BRANCH_DIRECT_CALL	ACCESS:     886019  HIT:     885794  MISS:        225
BTB BRANCH_INDIRECT_CALL	ACCESS:     598662  HIT:     596661  MISS:       2001
BTB BRANCH_RETURN	ACCESS:    1484680  HIT:    1034312  MISS:     450368
BTB BRANCH_OTHER ACCESS:          0  HIT:          0  MISS:          0

L2C TOTAL     ACCESS:    2541087  HIT:    1200452  MISS:    1340635  HIT %:    47.2417  MISS %:    52.7583   MPKI: 26.8127
L2C LOAD      ACCESS:     763471  HIT:     261567  MISS:     501904  HIT %:    34.2602  MISS %:    65.7398   MPKI: 10.0381
L2C DATA LOAD MPKI: 9.92618
L2C INSTRUCTION LOAD MPKI: 0.1119
L2C RFO       ACCESS:     104477  HIT:      24117  MISS:      80360  HIT %:    23.0835  MISS %:    76.9165   MPKI: 1.6072
L2C PREFETCH  ACCESS:     889751  HIT:     271082  MISS:     618669  HIT %:    30.4672  MISS %:    69.5328   MPKI: 12.3734
L2C DATA PREFETCH MPKI: 12.3734
L2C INSTRUCTION PREFETCH MPKI: 0
L2C WRITEBACK ACCESS:     477780  HIT:     475948  MISS:       1832  HIT %:    99.6166  MISS %:    0.38344   MPKI: 0.03664
L2C LOAD TRANSLATION ACCESS:     305608  HIT:     167738  MISS:     137870  HIT %:    54.8867  MISS %:    45.1133   MPKI: 2.7574
L2C PREFETCH  REQUESTED:      85617  ISSUED:      85617  USEFUL:      42630  USELESS:     575956
L2C USEFUL LOAD PREFETCHES:      42630 PREFETCH ISSUED TO LOWER LEVEL:     619372  ACCURACY: 6.88278
L2C TIMELY PREFETCHES:      42630 LATE PREFETCHES: 703 DROPPED PREFETCHES: 0
L2C PREFETCHES SAME FILL-ORIGIN LEVEL: 47642 DIFFERENT FILL-ORIGIN LEVEL: 0
L2C AVERAGE MISS LATENCY: 147.177 cycles
L2C RQ	ACCESS:    1173582	FORWARD:          0	MERGED:          0	TO_CACHE:    1173556
L2C WQ	ACCESS:     477780	FORWARD:         35	MERGED:          0	TO_CACHE:     477780
L2C PQ	ACCESS:     894892	FORWARD:          0	MERGED:       1710	TO_CACHE:     893173

L2C Instructions Evicting Data 4756
L2C Translations Evicting Data 122978
L2C Data Evicting Data 1067575
L2C Instructions Evicting Instructions 286
L2C Translations Evicting Instructions 522
L2C Data Evicting Instructions 4798
L2C Instructions Evicting Translations 553
L2C Translations Evicting Translations 14370
L2C Data Evicting Translations 122965
L2C Dense regions hint from L2: 0
PSCL5 TOTAL     ACCESS:     215751  HIT:     215751  MISS:          0  HIT %:        100  MISS %:          0   MPKI: 0
PSCL5 LOAD TRANSLATION ACCESS:     215751  HIT:     215751  MISS:          0  HIT %:        100  MISS %:          0   MPKI: 0
PSCL5 PREFETCH  REQUESTED:          0  ISSUED:          0  USEFUL:          0  USELESS:          0
PSCL5 USEFUL LOAD PREFETCHES:          0 PREFETCH ISSUED TO LOWER LEVEL:          0  ACCURACY: -nan
PSCL5 TIMELY PREFETCHES:          0 LATE PREFETCHES: 0 DROPPED PREFETCHES: 0
PSCL5 PREFETCHES SAME FILL-ORIGIN LEVEL: 0 DIFFERENT FILL-ORIGIN LEVEL: 0

PSCL4 TOTAL     ACCESS:     215751  HIT:     215751  MISS:          0  HIT %:        100  MISS %:          0   MPKI: 0
PSCL4 LOAD TRANSLATION ACCESS:     215751  HIT:     215751  MISS:          0  HIT %:        100  MISS %:          0   MPKI: 0
PSCL4 PREFETCH  REQUESTED:          0  ISSUED:          0  USEFUL:          0  USELESS:          0
PSCL4 USEFUL LOAD PREFETCHES:          0 PREFETCH ISSUED TO LOWER LEVEL:          0  ACCURACY: -nan
PSCL4 TIMELY PREFETCHES:          0 LATE PREFETCHES: 0 DROPPED PREFETCHES: 0
PSCL4 PREFETCHES SAME FILL-ORIGIN LEVEL: 0 DIFFERENT FILL-ORIGIN LEVEL: 0

PSCL3 TOTAL     ACCESS:     215751  HIT:     215751  MISS:          0  HIT %:        100  MISS %:          0   MPKI: 0
PSCL3 LOAD TRANSLATION ACCESS:     215751  HIT:     215751  MISS:          0  HIT %:        100  MISS %:          0   MPKI: 0
PSCL3 PREFETCH  REQUESTED:          0  ISSUED:          0  USEFUL:          0  USELESS:          0
PSCL3 USEFUL LOAD PREFETCHES:          0 PREFETCH ISSUED TO LOWER LEVEL:          0  ACCURACY: -nan
PSCL3 TIMELY PREFETCHES:          0 LATE PREFETCHES: 0 DROPPED PREFETCHES: 0
PSCL3 PREFETCHES SAME FILL-ORIGIN LEVEL: 0 DIFFERENT FILL-ORIGIN LEVEL: 0

PSCL2 TOTAL     ACCESS:     215751  HIT:     125894  MISS:      89857  HIT %:    58.3515  MISS %:    41.6485   MPKI: 1.79714
PSCL2 LOAD TRANSLATION ACCESS:     215751  HIT:     125894  MISS:      89857  HIT %:    58.3515  MISS %:    41.6485   MPKI: 1.79714
PSCL2 PREFETCH  REQUESTED:          0  ISSUED:          0  USEFUL:          0  USELESS:          0
PSCL2 USEFUL LOAD PREFETCHES:          0 PREFETCH ISSUED TO LOWER LEVEL:          0  ACCURACY: -nan
PSCL2 TIMELY PREFETCHES:          0 LATE PREFETCHES: 0 DROPPED PREFETCHES: 0
PSCL2 PREFETCHES SAME FILL-ORIGIN LEVEL: 0 DIFFERENT FILL-ORIGIN LEVEL: 0

LLC TOTAL     ACCESS:    1695894  HIT:     738377  MISS:     957517  HIT %:    43.5391  MISS %:    56.4609   MPKI: 19.1503
LLC LOAD      ACCESS:     501272  HIT:     137538  MISS:     363734  HIT %:    27.4378  MISS %:    72.5622   MPKI: 7.27468
LLC RFO       ACCESS:      80288  HIT:      31233  MISS:      49055  HIT %:    38.9012  MISS %:    61.0988   MPKI: 0.9811
LLC PREFETCH  ACCESS:     619371  HIT:     135960  MISS:     483411  HIT %:    21.9513  MISS %:    78.0487   MPKI: 9.66822
LLC WRITEBACK ACCESS:     357093  HIT:     354610  MISS:       2483  HIT %:    99.3047  MISS %:   0.695337   MPKI: 0.04966
LLC LOAD TRANSLATION ACCESS:     137870  HIT:      79036  MISS:      58834  HIT %:    57.3265  MISS %:    42.6735   MPKI: 1.17668
LLC PREFETCH  REQUESTED:          0  ISSUED:          0  USEFUL:      26292  USELESS:     457035
LLC USEFUL LOAD PREFETCHES:      26292 PREFETCH ISSUED TO LOWER LEVEL:     483411  ACCURACY: 5.43885
LLC TIMELY PREFETCHES:      26292 LATE PREFETCHES: 0 DROPPED PREFETCHES: 0
LLC PREFETCHES SAME FILL-ORIGIN LEVEL: 0 DIFFERENT FILL-ORIGIN LEVEL: 0
LLC AVERAGE MISS LATENCY: 163.736 cycles
LLC RQ	ACCESS:     719431	FORWARD:          0	MERGED:          0	TO_CACHE:     719430
LLC WQ	ACCESS:     357093	FORWARD:          2	MERGED:          0	TO_CACHE:     357093
LLC PQ	ACCESS:     619372	FORWARD:          0	MERGED:          0	TO_CACHE:     619371

LLC Dense regions hint to LLC: 0

RAW hits: 643460
Loads Generated: 16889060
Loads sent to L1D: 16245600
Stores Generated: 9281774
Stores sent to L1D: 9281775
Major fault: 0 Minor fault: 45883
Allocated PAGES: 45883

stream: 
stream:times selected: 4003866
stream:pref_filled: 620543
stream:pref_useful: 113926
stream:pref_late: 14956
stream:misses: 150530
stream:misses_by_poll: 0

CS: 
CS:times selected: 32438
CS:pref_filled: 12432
CS:pref_useful: 2012
CS:pref_late: 1
CS:misses: 804
CS:misses_by_poll: 3

CPLX: 
CPLX:times selected: 3974172
CPLX:pref_filled: 302596
CPLX:pref_useful: 14229
CPLX:pref_late: 591
CPLX:misses: 485548
CPLX:misses_by_poll: 621

NL_L1: 
NL:times selected: 17452
NL:pref_filled: 6119
NL:pref_useful: 1174
NL:pref_late: 193
NL:misses: 5336
NL:misses_by_poll: 1

total selections: 8027928
total_filled: 794661
total_useful: 112191
total_late: 16126
total_polluted: 625
total_misses_after_warmup: 845326
conflicts: 1769621
Degree Incremented Times: 0
Degree Decremented Times: 314208

L1 IP Table Write Accesses: 9538761
L1 IP Table Read Accesses: 7769140
L1 RST Write Accesses: 3429740
L1 RST Read Accesses: 6859480
L1 CSPT Write Accesses: 3429740
L1 CSPT Read Accesses: 6833606
L1 RR Filter Tag Write Accesses: 2251207
L1 RR Filter Tag Read Accesses: 127809090
L1 IP Table Tag Write Accesses: 12817454
L1 IP Table Tag Read Accesses: 12817454
L1 RST Tag Write Accesses: 0
L1 RST Tag Read Accesses: 29531289
L1 RR Filter Write Accesses: 0
L1 RR Filter Read Accesses: 4409800
test: 1931056
L2 IP Table Read Accesses: 3015543
L2 IP Table Write Accesses: 2374643
L2 IP Table Tag Read Accesses: 1551079
L2 IP Table Tag Write Accesses: 1551079

DRAM Statistics
 CHANNEL 0
 RQ ROW_BUFFER_HIT:     110877  ROW_BUFFER_MISS:     844152
 DBUS_CONGESTED:        248
 WQ ROW_BUFFER_HIT:      57985  ROW_BUFFER_MISS:     197187  FULL:          0

 AVG_CONGESTED_CYCLE: 4
 All warmup complete: 2
Channel 0 Bank busy for read cycles: 0
Channel 0 Bank busy for write cycles: 0
Channel 0
Rank 0
0banks busy for read cycles: 119589510
0banks busy for write cycles: 133108
1banks busy for read cycles: 44173948
1banks busy for write cycles: 19837787
2banks busy for read cycles: 24084402
2banks busy for write cycles: 8124724
3banks busy for read cycles: 7852275
3banks busy for write cycles: 3057626
4banks busy for read cycles: 2806644
4banks busy for write cycles: 1060789
5banks busy for read cycles: 775316
5banks busy for write cycles: 358072
6banks busy for read cycles: 162030
6banks busy for write cycles: 111032
7banks busy for read cycles: 23623
7banks busy for write cycles: 27957
8banks busy for read cycles: 3473
8banks busy for write cycles: 4650

CPU 0 Branch Prediction Accuracy: 95.851% MPKI: 8.63412 Average ROB Occupancy at Mispredict: 29.4412
Branch types
NOT_BRANCH: 39594523 79.189%
BRANCH_DIRECT_JUMP: 569513 1.13903%
BRANCH_INDIRECT: 168336 0.336672%
BRANCH_CONDITIONAL: 6697939 13.3959%
BRANCH_DIRECT_CALL: 886019 1.77204%
BRANCH_INDIRECT_CALL: 598662 1.19732%
BRANCH_RETURN: 1484680 2.96936%
BRANCH_OTHER: 0 0%

@sumon_overall_L1D    112191     12782    682411    794661   4501963   4501967
@Sumon_Early_by_class_L1D     96601      1615     12180       133
@Sumon_Late_by_class_L1D     11829         0       515       133

@Sumon_Early_by_cycleL1D     20489      7928      5314      4753      1942     15254     16870      8151      5627     11466      8259      6138
@Sumon_Late_by_cycleL1D      3156      9602        24         0         0         0         0         0         0         0         0         0
@Sumon_Early_stream_L1D     19509      7145      4538      4141      1593     13317     14774      6651      4350      9059      6462      5062
@Sumon_Early_CS_L1D         3        18        51        27         9         2       771       164       280       216        29        45
@Sumon_Early_CPLX_L1D       527       457       653       480       308      1693      1070      1247       957      2087      1707       994
@Sumon_Late_stream_L1D      2615      9192        22         0         0         0         0         0         0         0         0         0
@Sumon_Late_CS_L1D         0         0         0         0         0         0         0         0         0         0         0         0
@Sumon_Late_CPLX_L1D       227       286         2         0         0         0         0         0         0         0         0         0
@sumon_overall_L2C     42630       703    575956    618669     85617     85617
@Sumon_Early_by_class_L2C     23800        89      7317         0
@Sumon_Late_by_class_L2C         0         0         0         0

@Sumon_Early_by_cycleL2C       933       984       426       623       384      2502      2587       541      1181       316      1826     30327
@Sumon_Late_by_cycleL2C       381       303        19         0         0         0         0         0         0         0         0         0
@Sumon_Early_stream_L2C         0         0         0         0         0         0         0         0         1        86      1232     22481
@Sumon_Early_CS_L2C         0         0         0         0         0         0         0         0         0         0        13        76
@Sumon_Early_CPLX_L2C         0         0         0         0         0         0         0         0         0        19       368      6930
@Sumon_Late_stream_L2C         0         0         0         0         0         0         0         0         0         0         0         0
@Sumon_Late_CS_L2C         0         0         0         0         0         0         0         0         0         0         0         0
@Sumon_Late_CPLX_L2C         0         0         0         0         0         0         0         0         0         0         0         0
DRAM PAGES: 1048576
Allocated PAGES: 45883
