Initialize SIGNATURE TABLE
ST_SET: 1
ST_WAY: 256
ST_TAG_BIT: 16
ST_TAG_MASK: ffff

Initialize PATTERN TABLE
PT_SET: 512
PT_WAY: 4
SIG_DELTA_BIT: 7
C_SIG_BIT: 4
C_DELTA_BIT: 4

Initialize PREFETCH FILTER
FILTER_SET: 1024

*** ChampSim Multicore Out-of-Order Simulator ***

Warmup Instructions: 50000000
Simulation Instructions: 50000000
Number of CPUs: 1
LLC sets: 2048
LLC ways: 16
Off-chip DRAM Size: 4096 MB Channels: 1 Width: 64-bit Data Rate: 6400 MT/s
CPU 0 runs ../../biswa/SPEC2017Traces/605.mcf_s-1152B.champsimtrace.xz
.xz
CPU 0 Bimodal branch predictor
BTB has LRU replacement policy
ITLB has LRU replacement policy
DTLB has LRU replacement policy
STLB has LRU replacement policy
L1I has LRU replacement policy
L1D has LRU replacement policy
ST_WAYS: 256
PT_SETS: 512
Initialize DRRIP state for L2C
LLC has LRU replacement policy
Heartbeat CPU 0 instructions: 10000001 cycles: 3325349 heartbeat IPC: 3.0072 cumulative IPC: 3.0072 (Simulation time: 0 hr 3 min 15 sec) 
Heartbeat CPU 0 instructions: 20000000 cycles: 6651771 heartbeat IPC: 3.00623 cumulative IPC: 3.00672 (Simulation time: 0 hr 6 min 30 sec) 
Heartbeat CPU 0 instructions: 30000001 cycles: 9975744 heartbeat IPC: 3.00845 cumulative IPC: 3.00729 (Simulation time: 0 hr 10 min 7 sec) 
Heartbeat CPU 0 instructions: 40000001 cycles: 13302146 heartbeat IPC: 3.00625 cumulative IPC: 3.00703 (Simulation time: 0 hr 13 min 24 sec) 
Heartbeat CPU 0 instructions: 50000001 cycles: 16631600 heartbeat IPC: 3.0035 cumulative IPC: 3.00633 (Simulation time: 0 hr 16 min 16 sec) 

Warmup complete CPU 0 instructions: 50000001 cycles: 16631600 (Simulation time: 0 hr 16 min 16 sec) 

Heartbeat CPU 0 instructions: 60000001 cycles: 56198845 heartbeat IPC: 0.252734 cumulative IPC: 0.252734 (Simulation time: 0 hr 19 min 55 sec) 
Heartbeat CPU 0 instructions: 70000001 cycles: 95838036 heartbeat IPC: 0.252276 cumulative IPC: 0.252505 (Simulation time: 0 hr 23 min 26 sec) 
Heartbeat CPU 0 instructions: 80000000 cycles: 134999360 heartbeat IPC: 0.255354 cumulative IPC: 0.253447 (Simulation time: 0 hr 26 min 38 sec) 
Heartbeat CPU 0 instructions: 90000003 cycles: 174379693 heartbeat IPC: 0.253934 cumulative IPC: 0.253569 (Simulation time: 0 hr 28 min 43 sec) 
Heartbeat CPU 0 instructions: 100000001 cycles: 213820704 heartbeat IPC: 0.253543 cumulative IPC: 0.253564 (Simulation time: 0 hr 30 min 1 sec) 
Finished CPU 0 instructions: 50000000 cycles: 197189104 cumulative IPC: 0.253564 (Simulation time: 0 hr 30 min 1 sec) 

ChampSim completed all CPUs

Region of Interest Statistics

CPU 0 cumulative IPC: 0.253564 instructions: 50000000 cycles: 197189104
ITLB TOTAL     ACCESS:    8878607  HIT:    8878607  MISS:          0  HIT %:        100  MISS %:          0   MPKI: 0
ITLB LOAD TRANSLATION ACCESS:    8878607  HIT:    8878607  MISS:          0  HIT %:        100  MISS %:          0   MPKI: 0
ITLB PREFETCH  REQUESTED:          0  ISSUED:          0  USEFUL:          0  USELESS:          0
ITLB USEFUL LOAD PREFETCHES:          0 PREFETCH ISSUED TO LOWER LEVEL:          0  ACCURACY: -nan
ITLB TIMELY PREFETCHES:          0 LATE PREFETCHES: 0 DROPPED PREFETCHES: 0
ITLB PREFETCHES SAME FILL-ORIGIN LEVEL: 0 DIFFERENT FILL-ORIGIN LEVEL: 0
ITLB AVERAGE MISS LATENCY: -nan cycles
ITLB RQ	ACCESS:    9293236	FORWARD:          0	MERGED:     414629	TO_CACHE:    8878607

Revised Interactions: positive negative neutral
ITLB_interactions 0 0 0 -nan -nan -nan
ITLB_positive -nan -nan -nan
ITLB_negative -nan -nan -nan -nan -nan
ITLB_neutral -nan -nan -nan
DTLB TOTAL     ACCESS:   14775084  HIT:   13430580  MISS:    1344504  HIT %:    90.9002  MISS %:    9.09981   MPKI: 26.8901
DTLB LOAD TRANSLATION ACCESS:   14775084  HIT:   13430580  MISS:    1344504  HIT %:    90.9002  MISS %:    9.09981   MPKI: 26.8901
DTLB PREFETCH  REQUESTED:          0  ISSUED:          0  USEFUL:          0  USELESS:          0
DTLB USEFUL LOAD PREFETCHES:          0 PREFETCH ISSUED TO LOWER LEVEL:          0  ACCURACY: -nan
DTLB TIMELY PREFETCHES:          0 LATE PREFETCHES: 0 DROPPED PREFETCHES: 0
DTLB PREFETCHES SAME FILL-ORIGIN LEVEL: 0 DIFFERENT FILL-ORIGIN LEVEL: 0
DTLB AVERAGE MISS LATENCY: 10.6404 cycles
DTLB RQ	ACCESS:   18048744	FORWARD:          0	MERGED:    3169205	TO_CACHE:   14879539

Revised Interactions: positive negative neutral
DTLB_interactions 0 0 0 -nan -nan -nan
DTLB_positive -nan -nan -nan
DTLB_negative -nan -nan -nan -nan -nan
DTLB_neutral -nan -nan -nan
STLB TOTAL     ACCESS:    1344504  HIT:    1327795  MISS:      16709  HIT %:    98.7572  MISS %:    1.24276   MPKI: 0.33418
STLB LOAD TRANSLATION ACCESS:    1344504  HIT:    1327795  MISS:      16709  HIT %:    98.7572  MISS %:    1.24276   MPKI: 0.33418
STLB PREFETCH  REQUESTED:          0  ISSUED:          0  USEFUL:          0  USELESS:          0
STLB USEFUL LOAD PREFETCHES:          0 PREFETCH ISSUED TO LOWER LEVEL:          0  ACCURACY: -nan
STLB TIMELY PREFETCHES:          0 LATE PREFETCHES: 0 DROPPED PREFETCHES: 0
STLB PREFETCHES SAME FILL-ORIGIN LEVEL: 0 DIFFERENT FILL-ORIGIN LEVEL: 0
STLB AVERAGE MISS LATENCY: 120.634 cycles
STLB RQ	ACCESS:    1344504	FORWARD:          0	MERGED:          0	TO_CACHE:    1344504

Revised Interactions: positive negative neutral
STLB_interactions 0 0 0 -nan -nan -nan
STLB_positive -nan -nan -nan
STLB_negative -nan -nan -nan -nan -nan
STLB_neutral -nan -nan -nan
STLB Hit, L1D data hit: 0
STLB Hit, L2C data hit: 0
STLB Hit, LLC data hit: 0
STLB Hit, LLC data miss: 0
STLB STLB hints to L2: 0
L1D TOTAL     ACCESS:   17675033  HIT:   15015476  MISS:    2659557  HIT %:     84.953  MISS %:     15.047   MPKI: 53.1911
L1D LOAD      ACCESS:   12866322  HIT:   10380750  MISS:    2485572  HIT %:    80.6816  MISS %:    19.3184   MPKI: 49.7114
L1D RFO       ACCESS:    4808711  HIT:    4634726  MISS:     173985  HIT %:    96.3819  MISS %:    3.61812   MPKI: 3.4797
L1D PREFETCH  REQUESTED:          0  ISSUED:          0  USEFUL:          0  USELESS:          0
L1D USEFUL LOAD PREFETCHES:          0 PREFETCH ISSUED TO LOWER LEVEL:          0  ACCURACY: -nan
L1D TIMELY PREFETCHES:          0 LATE PREFETCHES: 0 DROPPED PREFETCHES: 0
L1D PREFETCHES SAME FILL-ORIGIN LEVEL: 0 DIFFERENT FILL-ORIGIN LEVEL: 0
L1D AVERAGE MISS LATENCY: 53.5848 cycles
L1D RQ	ACCESS:   17092361	FORWARD:          0	MERGED:    3648376	TO_CACHE:   12956783
L1D WQ	ACCESS:    5115293	FORWARD:     487202	MERGED:      23332	TO_CACHE:    5091961

Revised Interactions: positive negative neutral
L1D_interactions 0 0 0 -nan -nan -nan
L1D_positive -nan -nan -nan
L1D_negative -nan -nan -nan -nan -nan
L1D_neutral -nan -nan -nan
L1D UNIQUE REGIONS ACCESSED: 0
L1D REGIONS CONFLICTS: 0
L1D Cross Page Prefetch Requests: 0
L1D Same Page Prefetch Requests: 0
L1D ROI Sum of L1D PQ occupancy: 0
L1D PREFETCHES PUSHED FROM L2C: 0
L1I TOTAL     ACCESS:    9293236  HIT:    9293236  MISS:          0  HIT %:        100  MISS %:          0   MPKI: 0
L1I LOAD      ACCESS:    9293236  HIT:    9293236  MISS:          0  HIT %:        100  MISS %:          0   MPKI: 0
L1I PREFETCH  REQUESTED:          0  ISSUED:          0  USEFUL:          0  USELESS:          0
L1I USEFUL LOAD PREFETCHES:          0 PREFETCH ISSUED TO LOWER LEVEL:          0  ACCURACY: -nan
L1I TIMELY PREFETCHES:          0 LATE PREFETCHES: 0 DROPPED PREFETCHES: 0
L1I PREFETCHES SAME FILL-ORIGIN LEVEL: 0 DIFFERENT FILL-ORIGIN LEVEL: 0
L1I AVERAGE MISS LATENCY: -nan cycles
L1I RQ	ACCESS:   14375857	FORWARD:          0	MERGED:    5082621	TO_CACHE:    9293236

Revised Interactions: positive negative neutral
L1I_interactions 0 0 0 -nan -nan -nan
L1I_positive -nan -nan -nan
L1I_negative -nan -nan -nan -nan -nan
L1I_neutral -nan -nan -nan
BTB TOTAL     ACCESS:   11925168  HIT:   11434425  MISS:     490743  HIT %:    95.8848  MISS %:    4.11519   MPKI: 9.81486
BTB BRANCH_DIRECT_JUMP	ACCESS:    1334802  HIT:    1334766  MISS:         36
BTB BRANCH_INDIRECT	ACCESS:          0  HIT:          0  MISS:          0
BTB BRANCH_CONDITIONAL	ACCESS:    8291483  HIT:    8291408  MISS:         75
BTB BRANCH_DIRECT_CALL	ACCESS:    1079832  HIT:    1079814  MISS:         18
BTB BRANCH_INDIRECT_CALL	ACCESS:      69608  HIT:      69600  MISS:          8
BTB BRANCH_RETURN	ACCESS:    1149443  HIT:     658837  MISS:     490606
BTB BRANCH_OTHER ACCESS:          0  HIT:          0  MISS:          0

L2C TOTAL     ACCESS:    3108731  HIT:    1410950  MISS:    1697781  HIT %:    45.3867  MISS %:    54.6133   MPKI: 33.9556
L2C LOAD      ACCESS:    2485567  HIT:     903646  MISS:    1581921  HIT %:    36.3557  MISS %:    63.6443   MPKI: 31.6384
L2C DATA LOAD MPKI: 31.6384
L2C INSTRUCTION LOAD MPKI: 0
L2C RFO       ACCESS:     173985  HIT:     161297  MISS:      12688  HIT %:    92.7074  MISS %:    7.29258   MPKI: 0.25376
L2C PREFETCH  ACCESS:     188821  HIT:      99320  MISS:      89501  HIT %:    52.6001  MISS %:    47.3999   MPKI: 1.79002
L2C DATA PREFETCH MPKI: 1.79002
L2C INSTRUCTION PREFETCH MPKI: 0
L2C WRITEBACK ACCESS:     243571  HIT:     235122  MISS:       8449  HIT %:    96.5312  MISS %:     3.4688   MPKI: 0.16898
L2C LOAD TRANSLATION ACCESS:      16787  HIT:      11565  MISS:       5222  HIT %:    68.8926  MISS %:    31.1074   MPKI: 0.10444
L2C PREFETCH  REQUESTED:    3189515  ISSUED:    3189434  USEFUL:      74621  USELESS:      14834
L2C USEFUL LOAD PREFETCHES:      74621 PREFETCH ISSUED TO LOWER LEVEL:    2445016  ACCURACY: 3.05196
L2C TIMELY PREFETCHES:      74621 LATE PREFETCHES: 114072 DROPPED PREFETCHES: 0
L2C PREFETCHES SAME FILL-ORIGIN LEVEL: 203573 DIFFERENT FILL-ORIGIN LEVEL: 2241443
L2C AVERAGE MISS LATENCY: 64.1095 cycles
L2C RQ	ACCESS:    2676344	FORWARD:          0	MERGED:          0	TO_CACHE:    2676339
L2C WQ	ACCESS:     243571	FORWARD:          5	MERGED:          0	TO_CACHE:     243571
L2C PQ	ACCESS:    3189434	FORWARD:          0	MERGED:     493152	TO_CACHE:    2696282

Revised Interactions: positive negative neutral
L2C_interactions 73025 15085 14650 71.0636 14.6798 14.2565
L2C_positive 0.549127 98.5005 0.950359
L2C_negative 1.75008 0.0729201 3.52005 89.8774 4.77958
L2C_neutral 86.5324 13.4403 0.0273038
L2C Instructions Evicting Data 0
L2C Translations Evicting Data 5192
L2C Data Evicting Data 1679032
L2C Instructions Evicting Instructions 0
L2C Translations Evicting Instructions 0
L2C Data Evicting Instructions 0
L2C Instructions Evicting Translations 0
L2C Translations Evicting Translations 30
L2C Data Evicting Translations 5078
L2C Dense regions hint from L2: 0
PSCL5 TOTAL     ACCESS:      16709  HIT:      16709  MISS:          0  HIT %:        100  MISS %:          0   MPKI: 0
PSCL5 LOAD TRANSLATION ACCESS:      16709  HIT:      16709  MISS:          0  HIT %:        100  MISS %:          0   MPKI: 0
PSCL5 PREFETCH  REQUESTED:          0  ISSUED:          0  USEFUL:          0  USELESS:          0
PSCL5 USEFUL LOAD PREFETCHES:          0 PREFETCH ISSUED TO LOWER LEVEL:          0  ACCURACY: -nan
PSCL5 TIMELY PREFETCHES:          0 LATE PREFETCHES: 0 DROPPED PREFETCHES: 0
PSCL5 PREFETCHES SAME FILL-ORIGIN LEVEL: 0 DIFFERENT FILL-ORIGIN LEVEL: 0

Revised Interactions: positive negative neutral
PSCL5_interactions 0 0 0 -nan -nan -nan
PSCL5_positive -nan -nan -nan
PSCL5_negative -nan -nan -nan -nan -nan
PSCL5_neutral -nan -nan -nan
PSCL4 TOTAL     ACCESS:      16709  HIT:      16709  MISS:          0  HIT %:        100  MISS %:          0   MPKI: 0
PSCL4 LOAD TRANSLATION ACCESS:      16709  HIT:      16709  MISS:          0  HIT %:        100  MISS %:          0   MPKI: 0
PSCL4 PREFETCH  REQUESTED:          0  ISSUED:          0  USEFUL:          0  USELESS:          0
PSCL4 USEFUL LOAD PREFETCHES:          0 PREFETCH ISSUED TO LOWER LEVEL:          0  ACCURACY: -nan
PSCL4 TIMELY PREFETCHES:          0 LATE PREFETCHES: 0 DROPPED PREFETCHES: 0
PSCL4 PREFETCHES SAME FILL-ORIGIN LEVEL: 0 DIFFERENT FILL-ORIGIN LEVEL: 0

Revised Interactions: positive negative neutral
PSCL4_interactions 0 0 0 -nan -nan -nan
PSCL4_positive -nan -nan -nan
PSCL4_negative -nan -nan -nan -nan -nan
PSCL4_neutral -nan -nan -nan
PSCL3 TOTAL     ACCESS:      16709  HIT:      16709  MISS:          0  HIT %:        100  MISS %:          0   MPKI: 0
PSCL3 LOAD TRANSLATION ACCESS:      16709  HIT:      16709  MISS:          0  HIT %:        100  MISS %:          0   MPKI: 0
PSCL3 PREFETCH  REQUESTED:          0  ISSUED:          0  USEFUL:          0  USELESS:          0
PSCL3 USEFUL LOAD PREFETCHES:          0 PREFETCH ISSUED TO LOWER LEVEL:          0  ACCURACY: -nan
PSCL3 TIMELY PREFETCHES:          0 LATE PREFETCHES: 0 DROPPED PREFETCHES: 0
PSCL3 PREFETCHES SAME FILL-ORIGIN LEVEL: 0 DIFFERENT FILL-ORIGIN LEVEL: 0

Revised Interactions: positive negative neutral
PSCL3_interactions 0 0 0 -nan -nan -nan
PSCL3_positive -nan -nan -nan
PSCL3_negative -nan -nan -nan -nan -nan
PSCL3_neutral -nan -nan -nan
PSCL2 TOTAL     ACCESS:      16709  HIT:      16534  MISS:        175  HIT %:    98.9527  MISS %:    1.04734   MPKI: 0.0035
PSCL2 LOAD TRANSLATION ACCESS:      16709  HIT:      16534  MISS:        175  HIT %:    98.9527  MISS %:    1.04734   MPKI: 0.0035
PSCL2 PREFETCH  REQUESTED:          0  ISSUED:          0  USEFUL:          0  USELESS:          0
PSCL2 USEFUL LOAD PREFETCHES:          0 PREFETCH ISSUED TO LOWER LEVEL:          0  ACCURACY: -nan
PSCL2 TIMELY PREFETCHES:          0 LATE PREFETCHES: 0 DROPPED PREFETCHES: 0
PSCL2 PREFETCHES SAME FILL-ORIGIN LEVEL: 0 DIFFERENT FILL-ORIGIN LEVEL: 0

Revised Interactions: positive negative neutral
PSCL2_interactions 0 0 0 -nan -nan -nan
PSCL2_positive -nan -nan -nan
PSCL2_negative -nan -nan -nan -nan -nan
PSCL2_neutral -nan -nan -nan
LLC TOTAL     ACCESS:    3222716  HIT:    2193642  MISS:    1029074  HIT %:    68.0681  MISS %:    31.9319   MPKI: 20.5815
LLC LOAD      ACCESS:    1467849  HIT:    1104751  MISS:     363098  HIT %:    75.2633  MISS %:    24.7367   MPKI: 7.26196
LLC RFO       ACCESS:      12688  HIT:      11945  MISS:        743  HIT %:    94.1441  MISS %:    5.85593   MPKI: 0.01486
LLC PREFETCH  ACCESS:    1703541  HIT:    1051971  MISS:     651570  HIT %:     61.752  MISS %:     38.248   MPKI: 13.0314
LLC WRITEBACK ACCESS:      33416  HIT:      22238  MISS:      11178  HIT %:     66.549  MISS %:     33.451   MPKI: 0.22356
LLC LOAD TRANSLATION ACCESS:       5222  HIT:       2737  MISS:       2485  HIT %:    52.4129  MISS %:    47.5871   MPKI: 0.0497
LLC PREFETCH  REQUESTED:          0  ISSUED:          0  USEFUL:     407248  USELESS:     241253
LLC USEFUL LOAD PREFETCHES:     407248 PREFETCH ISSUED TO LOWER LEVEL:     754575  ACCURACY: 53.9705
LLC TIMELY PREFETCHES:     407248 LATE PREFETCHES: 103005 DROPPED PREFETCHES: 0
LLC PREFETCHES SAME FILL-ORIGIN LEVEL: 736727 DIFFERENT FILL-ORIGIN LEVEL: 0
LLC AVERAGE MISS LATENCY: 125.808 cycles
LLC RQ	ACCESS:    1485759	FORWARD:          0	MERGED:          0	TO_CACHE:    1485759
LLC WQ	ACCESS:      33416	FORWARD:          0	MERGED:          0	TO_CACHE:      33416
LLC PQ	ACCESS:    2445016	FORWARD:          0	MERGED:     124928	TO_CACHE:    2320088

Revised Interactions: positive negative neutral
LLC_interactions 388883 260090 82667 53.1522 35.5489 11.2989
LLC_positive 0.432007 76.7856 22.7824
LLC_negative 0.0261448 0.0372948 0.997347 72.661 26.2782
LLC_neutral 96.1496 3.77418 0.0762094
LLC Dense regions hint to LLC: 0

RAW hits: 639574
Loads Generated: 17731939
Loads sent to L1D: 17092361
Stores Generated: 5115295
Stores sent to L1D: 5115293
Major fault: 0 Minor fault: 24460
Allocated PAGES: 24460
 All Calls: 4884329
 Critical Calls: 4884329
------------------
Depth Distribution
------------------
depth 0: 0
depth 1: 1802782
depth 2: 1486664
depth 3: 1117896
depth 4: 747070
depth 5: 411923
depth 6: 107019
depth 7: 4342
depth 8: 153
depth 9: 2
depth 10: 0
depth 11: 0
depth 12: 0
depth 13: 0
depth 14: 0
depth 15: 0
depth 16: 0
depth 17: 0
depth 18: 0
depth 19: 0
depth 20: 0
depth 21: 0
depth 22: 0
depth 23: 0
depth 24: 0
depth 25: 0
depth 26: 0
depth 27: 0
depth 28: 0
depth 29: 0
Total: 5677851
-----------------------------
-----------------------------
	Captured at Filter
-----------------------------
depth 0: 0
depth 1: 12993
depth 2: 3149
depth 3: 2347
depth 4: 1576
depth 5: 890
depth 6: 237
depth 7: 6
depth 8: 0
depth 9: 0
depth 10: 0
depth 11: 0
depth 12: 0
depth 13: 0
depth 14: 0
depth 15: 0
depth 16: 0
depth 17: 0
depth 18: 0
depth 19: 0
depth 20: 0
depth 21: 0
depth 22: 0
depth 23: 0
depth 24: 0
depth 25: 0
depth 26: 0
depth 27: 0
depth 28: 0
depth 29: 0
-----------------------------
-----------------------------
		Lost at Page
-----------------------------
depth 0: 0
depth 1: 31884
depth 2: 46572
depth 3: 52308
depth 4: 48134
depth 5: 33420
depth 6: 9836
depth 7: 509
depth 8: 20
depth 9: 0
depth 10: 0
depth 11: 0
depth 12: 0
depth 13: 0
depth 14: 0
depth 15: 0
depth 16: 0
depth 17: 0
depth 18: 0
depth 19: 0
depth 20: 0
depth 21: 0
depth 22: 0
depth 23: 0
depth 24: 0
depth 25: 0
depth 26: 0
depth 27: 0
depth 28: 0
depth 29: 0
-----------------------------
-----------------------------
	Lost due to PQ Size
-----------------------------
51489
-----------------------------
ST read accesses: 1706571
ST write accesses: 778996
PT read accesses: 32717901
PT write accesses: 2138805
FILTER read accesses: 7388475
FILTER write accesses: 2239140
GHR read accesses: 6988913
GHR write accesses: 131104
GHR counter read accesses: 28247718
GHR counter write accesses: 3013652
ST tag read accesses: 1355265390
ST tag write accesses: 266319388

DRAM Statistics
 CHANNEL 0
 RQ ROW_BUFFER_HIT:     507673  ROW_BUFFER_MISS:     510222
 DBUS_CONGESTED:        336
 WQ ROW_BUFFER_HIT:       2358  ROW_BUFFER_MISS:      12224  FULL:          0

 AVG_CONGESTED_CYCLE: 5
 All warmup complete: 2
Channel 0 Bank busy for read cycles: 0
Channel 0 Bank busy for write cycles: 0
Channel 0
Rank 0
0banks busy for read cycles: 147329939
0banks busy for write cycles: 12877
1banks busy for read cycles: 21847994
1banks busy for write cycles: 2292428
2banks busy for read cycles: 11240983
2banks busy for write cycles: 243858
3banks busy for read cycles: 6394495
3banks busy for write cycles: 26034
4banks busy for read cycles: 3710743
4banks busy for write cycles: 3326
5banks busy for read cycles: 2120621
5banks busy for write cycles: 538
6banks busy for read cycles: 1115683
6banks busy for write cycles: 145
7banks busy for read cycles: 528653
7banks busy for write cycles: 0
8banks busy for read cycles: 320788
8banks busy for write cycles: 0

CPU 0 Branch Prediction Accuracy: 90.2682% MPKI: 24.3487 Average ROB Occupancy at Mispredict: 15.2039
Branch types
NOT_BRANCH: 37489794 74.9796%
BRANCH_DIRECT_JUMP: 1334802 2.6696%
BRANCH_INDIRECT: 0 0%
BRANCH_CONDITIONAL: 8876182 17.7524%
BRANCH_DIRECT_CALL: 1079832 2.15966%
BRANCH_INDIRECT_CALL: 69608 0.139216%
BRANCH_RETURN: 1149443 2.29889%
BRANCH_OTHER: 0 0%

@sumon_overall_L1D         0         0         0         0         0         0         0
@Sumon_Early_by_class_L1D         0         0         0         0
@Sumon_Late_by_class_L1D         0         0         0         0

@Sumon_Early_by_cycle_L1D         0         0         0         0         0         0         0         0         0         0         0         0
@Sumon_Late_by_cycle_L1D         0         0         0         0         0         0
@Sumon_Early_stream_L1D         0         0         0         0         0         0         0         0         0         0         0         0
@Sumon_Early_CS_L1D         0         0         0         0         0         0         0         0         0         0         0         0
@Sumon_Early_CPLX_L1D         0         0         0         0         0         0         0         0         0         0         0         0
@Sumon_Late_stream_L1D         0         0         0         0         0         0
@Sumon_Late_CS_L1D         0         0         0         0         0         0
@Sumon_Late_CPLX_L1D         0         0         0         0         0         0
@sumon_overall_L2C     74621    114072         0     14834     89501   3189434   3189515
@Sumon_Early_by_class_L2C         0         0         0         0
@Sumon_Late_by_class_L2C         0         0         0         0

@Sumon_Early_by_cycle_L2C      6277     34356     31927      1617        37        44       143        92        23        24        25        56
@Sumon_Late_by_cycle_L2C      5237     75905      7678     12349     12902         1
@Sumon_Early_stream_L2C         0         0         0         0         0         0         0         0         0         0         0         0
@Sumon_Early_CS_L2C         0         0         0         0         0         0         0         0         0         0         0         0
@Sumon_Early_CPLX_L2C         0         0         0         0         0         0         0         0         0         0         0         0
@Sumon_Late_stream_L2C         0         0         0         0         0         0
@Sumon_Late_CS_L2C         0         0         0         0         0         0
@Sumon_Late_CPLX_L2C         0         0         0         0         0         0
DRAM PAGES: 1048576
Allocated PAGES: 24460
