Initialize SIGNATURE TABLE
ST_SET: 1
ST_WAY: 256
ST_TAG_BIT: 16
ST_TAG_MASK: ffff

Initialize PATTERN TABLE
PT_SET: 512
PT_WAY: 4
SIG_DELTA_BIT: 7
C_SIG_BIT: 4
C_DELTA_BIT: 4

Initialize PREFETCH FILTER
FILTER_SET: 1024

*** ChampSim Multicore Out-of-Order Simulator ***

Warmup Instructions: 50000000
Simulation Instructions: 50000000
Number of CPUs: 1
LLC sets: 2048
LLC ways: 16
Off-chip DRAM Size: 4096 MB Channels: 1 Width: 64-bit Data Rate: 6400 MT/s
CPU 0 runs ../../biswa/SPEC2017Traces/605.mcf_s-1536B.champsimtrace.xz
.xz
CPU 0 Bimodal branch predictor
BTB has LRU replacement policy
ITLB has LRU replacement policy
DTLB has LRU replacement policy
STLB has LRU replacement policy
L1I has LRU replacement policy
L1D has LRU replacement policy
ST_WAYS: 256
PT_SETS: 512
Initialize DRRIP state for L2C
LLC has LRU replacement policy
Heartbeat CPU 0 instructions: 10000003 cycles: 2827223 heartbeat IPC: 3.53704 cumulative IPC: 3.53704 (Simulation time: 0 hr 2 min 54 sec) 
Heartbeat CPU 0 instructions: 20000003 cycles: 5642776 heartbeat IPC: 3.5517 cumulative IPC: 3.54436 (Simulation time: 0 hr 6 min 4 sec) 
Heartbeat CPU 0 instructions: 30000001 cycles: 8469803 heartbeat IPC: 3.53728 cumulative IPC: 3.542 (Simulation time: 0 hr 9 min 12 sec) 
Heartbeat CPU 0 instructions: 40000002 cycles: 11311717 heartbeat IPC: 3.51876 cumulative IPC: 3.53616 (Simulation time: 0 hr 12 min 15 sec) 
Heartbeat CPU 0 instructions: 50000003 cycles: 14161804 heartbeat IPC: 3.50867 cumulative IPC: 3.53062 (Simulation time: 0 hr 15 min 11 sec) 

Warmup complete CPU 0 instructions: 50000003 cycles: 14161804 (Simulation time: 0 hr 15 min 11 sec) 

Heartbeat CPU 0 instructions: 60000003 cycles: 47677353 heartbeat IPC: 0.298369 cumulative IPC: 0.298369 (Simulation time: 0 hr 20 min 38 sec) 
Heartbeat CPU 0 instructions: 70000000 cycles: 80618587 heartbeat IPC: 0.303571 cumulative IPC: 0.300947 (Simulation time: 0 hr 25 min 43 sec) 
Heartbeat CPU 0 instructions: 80000003 cycles: 113622724 heartbeat IPC: 0.302992 cumulative IPC: 0.301626 (Simulation time: 0 hr 28 min 57 sec) 
Heartbeat CPU 0 instructions: 90000000 cycles: 146740424 heartbeat IPC: 0.301953 cumulative IPC: 0.301708 (Simulation time: 0 hr 30 min 32 sec) 
Heartbeat CPU 0 instructions: 100000002 cycles: 180096737 heartbeat IPC: 0.299793 cumulative IPC: 0.301323 (Simulation time: 0 hr 31 min 34 sec) 
Finished CPU 0 instructions: 50000003 cycles: 165934934 cumulative IPC: 0.301323 (Simulation time: 0 hr 31 min 34 sec) 

ChampSim completed all CPUs

Region of Interest Statistics

CPU 0 cumulative IPC: 0.301323 instructions: 50000003 cycles: 165934934
ITLB TOTAL     ACCESS:    8829046  HIT:    8829046  MISS:          0  HIT %:        100  MISS %:          0   MPKI: 0
ITLB LOAD TRANSLATION ACCESS:    8829046  HIT:    8829046  MISS:          0  HIT %:        100  MISS %:          0   MPKI: 0
ITLB PREFETCH  REQUESTED:          0  ISSUED:          0  USEFUL:          0  USELESS:          0
ITLB USEFUL LOAD PREFETCHES:          0 PREFETCH ISSUED TO LOWER LEVEL:          0  ACCURACY: -nan
ITLB TIMELY PREFETCHES:          0 LATE PREFETCHES: 0 DROPPED PREFETCHES: 0
ITLB PREFETCHES SAME FILL-ORIGIN LEVEL: 0 DIFFERENT FILL-ORIGIN LEVEL: 0
ITLB AVERAGE MISS LATENCY: -nan cycles
ITLB RQ	ACCESS:    9544152	FORWARD:          0	MERGED:     715106	TO_CACHE:    8829046

Revised Interactions: positive negative neutral
ITLB_interactions 0 0 0 -nan -nan -nan
ITLB_positive -nan -nan -nan
ITLB_negative -nan -nan -nan -nan -nan
ITLB_neutral -nan -nan -nan
DTLB TOTAL     ACCESS:    7431879  HIT:    6214981  MISS:    1216898  HIT %:     83.626  MISS %:     16.374   MPKI: 24.338
DTLB LOAD TRANSLATION ACCESS:    7431879  HIT:    6214981  MISS:    1216898  HIT %:     83.626  MISS %:     16.374   MPKI: 24.338
DTLB PREFETCH  REQUESTED:          0  ISSUED:          0  USEFUL:          0  USELESS:          0
DTLB USEFUL LOAD PREFETCHES:          0 PREFETCH ISSUED TO LOWER LEVEL:          0  ACCURACY: -nan
DTLB TIMELY PREFETCHES:          0 LATE PREFETCHES: 0 DROPPED PREFETCHES: 0
DTLB PREFETCHES SAME FILL-ORIGIN LEVEL: 0 DIFFERENT FILL-ORIGIN LEVEL: 0
DTLB AVERAGE MISS LATENCY: 48.2019 cycles
DTLB RQ	ACCESS:    8632285	FORWARD:          0	MERGED:    1180338	TO_CACHE:    7451947

Revised Interactions: positive negative neutral
DTLB_interactions 0 0 0 -nan -nan -nan
DTLB_positive -nan -nan -nan
DTLB_negative -nan -nan -nan -nan -nan
DTLB_neutral -nan -nan -nan
STLB TOTAL     ACCESS:    1216898  HIT:      98809  MISS:    1118089  HIT %:    8.11974  MISS %:    91.8803   MPKI: 22.3618
STLB LOAD TRANSLATION ACCESS:    1216898  HIT:      98809  MISS:    1118089  HIT %:    8.11974  MISS %:    91.8803   MPKI: 22.3618
STLB PREFETCH  REQUESTED:          0  ISSUED:          0  USEFUL:          0  USELESS:          0
STLB USEFUL LOAD PREFETCHES:          0 PREFETCH ISSUED TO LOWER LEVEL:          0  ACCURACY: -nan
STLB TIMELY PREFETCHES:          0 LATE PREFETCHES: 0 DROPPED PREFETCHES: 0
STLB PREFETCHES SAME FILL-ORIGIN LEVEL: 0 DIFFERENT FILL-ORIGIN LEVEL: 0
STLB AVERAGE MISS LATENCY: 42.4987 cycles
STLB RQ	ACCESS:    1216898	FORWARD:          0	MERGED:          0	TO_CACHE:    1216898

Revised Interactions: positive negative neutral
STLB_interactions 0 0 0 -nan -nan -nan
STLB_positive -nan -nan -nan
STLB_negative -nan -nan -nan -nan -nan
STLB_neutral -nan -nan -nan
STLB Hit, L1D data hit: 0
STLB Hit, L2C data hit: 0
STLB Hit, LLC data hit: 0
STLB Hit, LLC data miss: 0
STLB STLB hints to L2: 0
L1D TOTAL     ACCESS:    8606461  HIT:    5833816  MISS:    2772645  HIT %:    67.7841  MISS %:    32.2159   MPKI: 55.4529
L1D LOAD      ACCESS:    6389320  HIT:    3755273  MISS:    2634047  HIT %:    58.7742  MISS %:    41.2258   MPKI: 52.6809
L1D RFO       ACCESS:    2217141  HIT:    2078543  MISS:     138598  HIT %:    93.7488  MISS %:     6.2512   MPKI: 2.77196
L1D PREFETCH  REQUESTED:          0  ISSUED:          0  USEFUL:          0  USELESS:          0
L1D USEFUL LOAD PREFETCHES:          0 PREFETCH ISSUED TO LOWER LEVEL:          0  ACCURACY: -nan
L1D TIMELY PREFETCHES:          0 LATE PREFETCHES: 0 DROPPED PREFETCHES: 0
L1D PREFETCHES SAME FILL-ORIGIN LEVEL: 0 DIFFERENT FILL-ORIGIN LEVEL: 0
L1D AVERAGE MISS LATENCY: 109.912 cycles
L1D RQ	ACCESS:   12333273	FORWARD:          0	MERGED:    5779844	TO_CACHE:    6415142
L1D WQ	ACCESS:    2217146	FORWARD:     138287	MERGED:          3	TO_CACHE:    2217143

Revised Interactions: positive negative neutral
L1D_interactions 0 0 0 -nan -nan -nan
L1D_positive -nan -nan -nan
L1D_negative -nan -nan -nan -nan -nan
L1D_neutral -nan -nan -nan
L1D UNIQUE REGIONS ACCESSED: 0
L1D REGIONS CONFLICTS: 0
L1D Cross Page Prefetch Requests: 0
L1D Same Page Prefetch Requests: 0
L1D ROI Sum of L1D PQ occupancy: 0
L1D PREFETCHES PUSHED FROM L2C: 0
L1I TOTAL     ACCESS:    9544151  HIT:    9544151  MISS:          0  HIT %:        100  MISS %:          0   MPKI: 0
L1I LOAD      ACCESS:    9544151  HIT:    9544151  MISS:          0  HIT %:        100  MISS %:          0   MPKI: 0
L1I PREFETCH  REQUESTED:          0  ISSUED:          0  USEFUL:          0  USELESS:          0
L1I USEFUL LOAD PREFETCHES:          0 PREFETCH ISSUED TO LOWER LEVEL:          0  ACCURACY: -nan
L1I TIMELY PREFETCHES:          0 LATE PREFETCHES: 0 DROPPED PREFETCHES: 0
L1I PREFETCHES SAME FILL-ORIGIN LEVEL: 0 DIFFERENT FILL-ORIGIN LEVEL: 0
L1I AVERAGE MISS LATENCY: -nan cycles
L1I RQ	ACCESS:   14095726	FORWARD:          0	MERGED:    4551574	TO_CACHE:    9544152

Revised Interactions: positive negative neutral
L1I_interactions 0 0 0 -nan -nan -nan
L1I_positive -nan -nan -nan
L1I_negative -nan -nan -nan -nan -nan
L1I_neutral -nan -nan -nan
BTB TOTAL     ACCESS:    6608312  HIT:    6608304  MISS:          8  HIT %:    99.9999  MISS %: 0.00012106   MPKI: 0.00016
BTB BRANCH_DIRECT_JUMP	ACCESS:    1137286  HIT:    1137284  MISS:          2
BTB BRANCH_INDIRECT	ACCESS:          0  HIT:          0  MISS:          0
BTB BRANCH_CONDITIONAL	ACCESS:    3253882  HIT:    3253878  MISS:          4
BTB BRANCH_DIRECT_CALL	ACCESS:    1108572  HIT:    1108571  MISS:          1
BTB BRANCH_INDIRECT_CALL	ACCESS:          0  HIT:          0  MISS:          0
BTB BRANCH_RETURN	ACCESS:    1108572  HIT:    1108571  MISS:          1
BTB BRANCH_OTHER ACCESS:          0  HIT:          0  MISS:          0

L2C TOTAL     ACCESS:    5710976  HIT:    3430177  MISS:    2280799  HIT %:    60.0629  MISS %:    39.9371   MPKI: 45.616
L2C LOAD      ACCESS:    2634047  HIT:    1108133  MISS:    1525914  HIT %:    42.0696  MISS %:    57.9304   MPKI: 30.5183
L2C DATA LOAD MPKI: 30.5183
L2C INSTRUCTION LOAD MPKI: 0
L2C RFO       ACCESS:     138598  HIT:      11804  MISS:     126794  HIT %:    8.51672  MISS %:    91.4833   MPKI: 2.53588
L2C PREFETCH  ACCESS:     559198  HIT:     558414  MISS:        784  HIT %:    99.8598  MISS %:   0.140201   MPKI: 0.01568
L2C DATA PREFETCH MPKI: 0.01568
L2C INSTRUCTION PREFETCH MPKI: 0
L2C WRITEBACK ACCESS:    1108572  HIT:     780273  MISS:     328299  HIT %:    70.3854  MISS %:    29.6146   MPKI: 6.56598
L2C LOAD TRANSLATION ACCESS:    1270561  HIT:     971553  MISS:     299008  HIT %:    76.4665  MISS %:    23.5335   MPKI: 5.98016
L2C PREFETCH  REQUESTED:    1713939  ISSUED:    1713939  USEFUL:        203  USELESS:        745
L2C USEFUL LOAD PREFETCHES:        203 PREFETCH ISSUED TO LOWER LEVEL:    1017183  ACCURACY: 0.0199571
L2C TIMELY PREFETCHES:        203 LATE PREFETCHES: 2 DROPPED PREFETCHES: 0
L2C PREFETCHES SAME FILL-ORIGIN LEVEL: 786 DIFFERENT FILL-ORIGIN LEVEL: 1016397
L2C AVERAGE MISS LATENCY: 119.336 cycles
L2C RQ	ACCESS:    4043206	FORWARD:          0	MERGED:          0	TO_CACHE:    4043206
L2C WQ	ACCESS:    1108572	FORWARD:          0	MERGED:          0	TO_CACHE:    1108572
L2C PQ	ACCESS:    1713939	FORWARD:          0	MERGED:      27150	TO_CACHE:    1686789

Revised Interactions: positive negative neutral
L2C_interactions 194 592 593 14.0682 42.9297 43.0022
L2C_positive 0.515464 96.9072 2.57732
L2C_negative 0.168919 0 2.19595 95.2703 2.36486
L2C_neutral 100 0 0
L2C Instructions Evicting Data 0
L2C Translations Evicting Data 231671
L2C Data Evicting Data 1477413
L2C Instructions Evicting Instructions 0
L2C Translations Evicting Instructions 0
L2C Data Evicting Instructions 0
L2C Instructions Evicting Translations 0
L2C Translations Evicting Translations 67337
L2C Data Evicting Translations 176079
L2C Dense regions hint from L2: 0
PSCL5 TOTAL     ACCESS:    1118089  HIT:    1118089  MISS:          0  HIT %:        100  MISS %:          0   MPKI: 0
PSCL5 LOAD TRANSLATION ACCESS:    1118089  HIT:    1118089  MISS:          0  HIT %:        100  MISS %:          0   MPKI: 0
PSCL5 PREFETCH  REQUESTED:          0  ISSUED:          0  USEFUL:          0  USELESS:          0
PSCL5 USEFUL LOAD PREFETCHES:          0 PREFETCH ISSUED TO LOWER LEVEL:          0  ACCURACY: -nan
PSCL5 TIMELY PREFETCHES:          0 LATE PREFETCHES: 0 DROPPED PREFETCHES: 0
PSCL5 PREFETCHES SAME FILL-ORIGIN LEVEL: 0 DIFFERENT FILL-ORIGIN LEVEL: 0

Revised Interactions: positive negative neutral
PSCL5_interactions 0 0 0 -nan -nan -nan
PSCL5_positive -nan -nan -nan
PSCL5_negative -nan -nan -nan -nan -nan
PSCL5_neutral -nan -nan -nan
PSCL4 TOTAL     ACCESS:    1118089  HIT:    1118089  MISS:          0  HIT %:        100  MISS %:          0   MPKI: 0
PSCL4 LOAD TRANSLATION ACCESS:    1118089  HIT:    1118089  MISS:          0  HIT %:        100  MISS %:          0   MPKI: 0
PSCL4 PREFETCH  REQUESTED:          0  ISSUED:          0  USEFUL:          0  USELESS:          0
PSCL4 USEFUL LOAD PREFETCHES:          0 PREFETCH ISSUED TO LOWER LEVEL:          0  ACCURACY: -nan
PSCL4 TIMELY PREFETCHES:          0 LATE PREFETCHES: 0 DROPPED PREFETCHES: 0
PSCL4 PREFETCHES SAME FILL-ORIGIN LEVEL: 0 DIFFERENT FILL-ORIGIN LEVEL: 0

Revised Interactions: positive negative neutral
PSCL4_interactions 0 0 0 -nan -nan -nan
PSCL4_positive -nan -nan -nan
PSCL4_negative -nan -nan -nan -nan -nan
PSCL4_neutral -nan -nan -nan
PSCL3 TOTAL     ACCESS:    1118089  HIT:    1118089  MISS:          0  HIT %:        100  MISS %:          0   MPKI: 0
PSCL3 LOAD TRANSLATION ACCESS:    1118089  HIT:    1118089  MISS:          0  HIT %:        100  MISS %:          0   MPKI: 0
PSCL3 PREFETCH  REQUESTED:          0  ISSUED:          0  USEFUL:          0  USELESS:          0
PSCL3 USEFUL LOAD PREFETCHES:          0 PREFETCH ISSUED TO LOWER LEVEL:          0  ACCURACY: -nan
PSCL3 TIMELY PREFETCHES:          0 LATE PREFETCHES: 0 DROPPED PREFETCHES: 0
PSCL3 PREFETCHES SAME FILL-ORIGIN LEVEL: 0 DIFFERENT FILL-ORIGIN LEVEL: 0

Revised Interactions: positive negative neutral
PSCL3_interactions 0 0 0 -nan -nan -nan
PSCL3_positive -nan -nan -nan
PSCL3_negative -nan -nan -nan -nan -nan
PSCL3_neutral -nan -nan -nan
PSCL2 TOTAL     ACCESS:    1118089  HIT:     965617  MISS:     152472  HIT %:    86.3632  MISS %:    13.6368   MPKI: 3.04944
PSCL2 LOAD TRANSLATION ACCESS:    1118089  HIT:     965617  MISS:     152472  HIT %:    86.3632  MISS %:    13.6368   MPKI: 3.04944
PSCL2 PREFETCH  REQUESTED:          0  ISSUED:          0  USEFUL:          0  USELESS:          0
PSCL2 USEFUL LOAD PREFETCHES:          0 PREFETCH ISSUED TO LOWER LEVEL:          0  ACCURACY: -nan
PSCL2 TIMELY PREFETCHES:          0 LATE PREFETCHES: 0 DROPPED PREFETCHES: 0
PSCL2 PREFETCHES SAME FILL-ORIGIN LEVEL: 0 DIFFERENT FILL-ORIGIN LEVEL: 0

Revised Interactions: positive negative neutral
PSCL2_interactions 0 0 0 -nan -nan -nan
PSCL2_positive -nan -nan -nan
PSCL2_negative -nan -nan -nan -nan -nan
PSCL2_neutral -nan -nan -nan
LLC TOTAL     ACCESS:    4072298  HIT:    2780665  MISS:    1291633  HIT %:    68.2825  MISS %:    31.7175   MPKI: 25.8327
LLC LOAD      ACCESS:    1525912  HIT:     278992  MISS:    1246920  HIT %:    18.2836  MISS %:    81.7164   MPKI: 24.9384
LLC RFO       ACCESS:     126794  HIT:     126794  MISS:          0  HIT %:        100  MISS %:          0   MPKI: 0
LLC PREFETCH  ACCESS:    1013150  HIT:     976953  MISS:      36197  HIT %:    96.4273  MISS %:    3.57272   MPKI: 0.72394
LLC WRITEBACK ACCESS:    1107434  HIT:    1103530  MISS:       3904  HIT %:    99.6475  MISS %:   0.352527   MPKI: 0.07808
LLC LOAD TRANSLATION ACCESS:     299008  HIT:     294396  MISS:       4612  HIT %:    98.4576  MISS %:    1.54243   MPKI: 0.09224
LLC PREFETCH  REQUESTED:          0  ISSUED:          0  USEFUL:      12782  USELESS:      22749
LLC USEFUL LOAD PREFETCHES:      12782 PREFETCH ISSUED TO LOWER LEVEL:      37520  ACCURACY: 34.0672
LLC TIMELY PREFETCHES:      12782 LATE PREFETCHES: 1323 DROPPED PREFETCHES: 0
LLC PREFETCHES SAME FILL-ORIGIN LEVEL: 37485 DIFFERENT FILL-ORIGIN LEVEL: 0
LLC AVERAGE MISS LATENCY: 170.039 cycles
LLC RQ	ACCESS:    1951714	FORWARD:          0	MERGED:          0	TO_CACHE:    1951714
LLC WQ	ACCESS:    1107434	FORWARD:          0	MERGED:          0	TO_CACHE:    1107434
LLC PQ	ACCESS:    1017183	FORWARD:          0	MERGED:       2470	TO_CACHE:    1014713

Revised Interactions: positive negative neutral
LLC_interactions 7104 29039 21841 12.2517 50.0811 37.6673
LLC_positive 0.182995 98.353 1.46396
LLC_negative 0.134302 0.00688729 0.00688729 97.8753 1.97665
LLC_neutral 99.9817 0.00915709 0.00915709
LLC Dense regions hint to LLC: 0

RAW hits: 968671
Loads Generated: 13301944
Loads sent to L1D: 12333273
Stores Generated: 2217144
Stores sent to L1D: 2217146
Major fault: 0 Minor fault: 42623
Allocated PAGES: 42623
 All Calls: 4625796
 Critical Calls: 4625796
------------------
Depth Distribution
------------------
depth 0: 0
depth 1: 2939352
depth 2: 23604
depth 3: 588
depth 4: 0
depth 5: 0
depth 6: 0
depth 7: 0
depth 8: 0
depth 9: 0
depth 10: 0
depth 11: 0
depth 12: 0
depth 13: 0
depth 14: 0
depth 15: 0
depth 16: 0
depth 17: 0
depth 18: 0
depth 19: 0
depth 20: 0
depth 21: 0
depth 22: 0
depth 23: 0
depth 24: 0
depth 25: 0
depth 26: 0
depth 27: 0
depth 28: 0
depth 29: 0
Total: 2963544
-----------------------------
-----------------------------
	Captured at Filter
-----------------------------
depth 0: 0
depth 1: 9122
depth 2: 999
depth 3: 62
depth 4: 0
depth 5: 0
depth 6: 0
depth 7: 0
depth 8: 0
depth 9: 0
depth 10: 0
depth 11: 0
depth 12: 0
depth 13: 0
depth 14: 0
depth 15: 0
depth 16: 0
depth 17: 0
depth 18: 0
depth 19: 0
depth 20: 0
depth 21: 0
depth 22: 0
depth 23: 0
depth 24: 0
depth 25: 0
depth 26: 0
depth 27: 0
depth 28: 0
depth 29: 0
-----------------------------
-----------------------------
		Lost at Page
-----------------------------
depth 0: 0
depth 1: 144771
depth 2: 2039
depth 3: 90
depth 4: 0
depth 5: 0
depth 6: 0
depth 7: 0
depth 8: 0
depth 9: 0
depth 10: 0
depth 11: 0
depth 12: 0
depth 13: 0
depth 14: 0
depth 15: 0
depth 16: 0
depth 17: 0
depth 18: 0
depth 19: 0
depth 20: 0
depth 21: 0
depth 22: 0
depth 23: 0
depth 24: 0
depth 25: 0
depth 26: 0
depth 27: 0
depth 28: 0
depth 29: 0
-----------------------------
-----------------------------
	Lost due to PQ Size
-----------------------------
0
-----------------------------
ST read accesses: 1418531
ST write accesses: 1215516
PT read accesses: 23362477
PT write accesses: 1515572
FILTER read accesses: 6630371
FILTER write accesses: 2323363
GHR read accesses: 10265341
GHR write accesses: 64514
GHR counter read accesses: 22406358
GHR counter write accesses: 2636880
ST tag read accesses: 1635007381
ST tag write accesses: 313822893

DRAM Statistics
 CHANNEL 0
 RQ ROW_BUFFER_HIT:       2475  ROW_BUFFER_MISS:    1285254
 DBUS_CONGESTED:         10
 WQ ROW_BUFFER_HIT:     338092  ROW_BUFFER_MISS:     772567  FULL:          0

 AVG_CONGESTED_CYCLE: 3
 All warmup complete: 2
Channel 0 Bank busy for read cycles: 0
Channel 0 Bank busy for write cycles: 0
Channel 0
Rank 0
0banks busy for read cycles: 5146581
0banks busy for write cycles: 132855
1banks busy for read cycles: 32384385
1banks busy for write cycles: 9438998
2banks busy for read cycles: 26241111
2banks busy for write cycles: 14102572
3banks busy for read cycles: 23777679
3banks busy for write cycles: 20427496
4banks busy for read cycles: 8999081
4banks busy for write cycles: 15662956
5banks busy for read cycles: 136571
5banks busy for write cycles: 5556361
6banks busy for read cycles: 5833
6banks busy for write cycles: 2027381
7banks busy for read cycles: 198
7banks busy for write cycles: 987116
8banks busy for read cycles: 23
8banks busy for write cycles: 907738

CPU 0 Branch Prediction Accuracy: 99.9768% MPKI: 0.03616 Average ROB Occupancy at Mispredict: 179.467
Branch types
NOT_BRANCH: 42211281 84.4226%
BRANCH_DIRECT_JUMP: 1137286 2.27457%
BRANCH_INDIRECT: 0 0%
BRANCH_CONDITIONAL: 4434288 8.86858%
BRANCH_DIRECT_CALL: 1108572 2.21714%
BRANCH_INDIRECT_CALL: 0 0%
BRANCH_RETURN: 1108572 2.21714%
BRANCH_OTHER: 0 0%

@sumon_overall_L1D         0         0         0         0         0         0         0
@Sumon_Early_by_class_L1D         0         0         0         0
@Sumon_Late_by_class_L1D         0         0         0         0

@Sumon_Early_by_cycle_L1D         0         0         0         0         0         0         0         0         0         0         0         0
@Sumon_Late_by_cycle_L1D         0         0         0         0         0         0
@Sumon_Early_stream_L1D         0         0         0         0         0         0         0         0         0         0         0         0
@Sumon_Early_CS_L1D         0         0         0         0         0         0         0         0         0         0         0         0
@Sumon_Early_CPLX_L1D         0         0         0         0         0         0         0         0         0         0         0         0
@Sumon_Late_stream_L1D         0         0         0         0         0         0
@Sumon_Late_CS_L1D         0         0         0         0         0         0
@Sumon_Late_CPLX_L1D         0         0         0         0         0         0
@sumon_overall_L2C       203         2         0       745       784   1713939   1713939
@Sumon_Early_by_class_L2C         0         0         0         0
@Sumon_Late_by_class_L2C         0         0         0         0

@Sumon_Early_by_cycle_L2C         8       144        38         3         0         0         0         0         0         0         0        10
@Sumon_Late_by_cycle_L2C         0         2         0         0         0         0
@Sumon_Early_stream_L2C         0         0         0         0         0         0         0         0         0         0         0         0
@Sumon_Early_CS_L2C         0         0         0         0         0         0         0         0         0         0         0         0
@Sumon_Early_CPLX_L2C         0         0         0         0         0         0         0         0         0         0         0         0
@Sumon_Late_stream_L2C         0         0         0         0         0         0
@Sumon_Late_CS_L2C         0         0         0         0         0         0
@Sumon_Late_CPLX_L2C         0         0         0         0         0         0
DRAM PAGES: 1048576
Allocated PAGES: 42623
