
*** ChampSim Multicore Out-of-Order Simulator ***

Warmup Instructions: 10000000
Simulation Instructions: 50000000
Number of CPUs: 1
LLC sets: 2048
LLC ways: 16
Off-chip DRAM Size: 4096 MB Channels: 1 Width: 64-bit Data Rate: 200 MT/s
CPU 0 runs traces/clientserver/client_004.champsimtrace.xz
.xz
CPU 0 Bimodal branch predictor
BTB has LRU replacement policy
ITLB has LRU replacement policy
DTLB has LRU replacement policy
STLB has LRU replacement policy
L1I has LRU replacement policy
IP Table Entries: 256
L1D has LRU replacement policy
IP_Table L2 entries: 256
L2C has LRU replacement policy
LLC has LRU replacement policy
Heartbeat CPU 0 instructions: 10000000 cycles: 3024327 heartbeat IPC: 3.30652 cumulative IPC: 3.30652 (Simulation time: 0 hr 20 min 5 sec) 

Warmup complete CPU 0 instructions: 10000004 cycles: 3024328 (Simulation time: 0 hr 20 min 5 sec) 

Heartbeat CPU 0 instructions: 20000003 cycles: 21673746 heartbeat IPC: 0.53621 cumulative IPC: 0.53621 (Simulation time: 0 hr 37 min 16 sec) 
Heartbeat CPU 0 instructions: 30000002 cycles: 43972270 heartbeat IPC: 0.44846 cumulative IPC: 0.488425 (Simulation time: 0 hr 55 min 15 sec) 
Heartbeat CPU 0 instructions: 40000000 cycles: 65926901 heartbeat IPC: 0.455485 cumulative IPC: 0.476928 (Simulation time: 1 hr 13 min 47 sec) 
Heartbeat CPU 0 instructions: 50000001 cycles: 85045412 heartbeat IPC: 0.523053 cumulative IPC: 0.487679 (Simulation time: 1 hr 32 min 37 sec) 
Heartbeat CPU 0 instructions: 60000000 cycles: 104311159 heartbeat IPC: 0.519056 cumulative IPC: 0.493648 (Simulation time: 1 hr 46 min 26 sec) 
Finished CPU 0 instructions: 50000000 cycles: 101286832 cumulative IPC: 0.493648 (Simulation time: 1 hr 46 min 26 sec) 

ChampSim completed all CPUs

Region of Interest Statistics

CPU 0 cumulative IPC: 0.493648 instructions: 50000000 cycles: 101286832
ITLB TOTAL     ACCESS:    8480823  HIT:    8394498  MISS:      86325  HIT %:    98.9821  MISS %:    1.01788   MPKI: 1.7265
ITLB LOAD TRANSLATION ACCESS:    8480823  HIT:    8394498  MISS:      86325  HIT %:    98.9821  MISS %:    1.01788   MPKI: 1.7265
ITLB PREFETCH  REQUESTED:          0  ISSUED:          0  USEFUL:          0  USELESS:          0
ITLB USEFUL LOAD PREFETCHES:          0 PREFETCH ISSUED TO LOWER LEVEL:          0  ACCURACY: -nan
ITLB TIMELY PREFETCHES:          0 LATE PREFETCHES: 0 DROPPED PREFETCHES: 0
ITLB PREFETCHES SAME FILL-ORIGIN LEVEL: 0 DIFFERENT FILL-ORIGIN LEVEL: 0
ITLB AVERAGE MISS LATENCY: 12.6811 cycles
ITLB RQ	ACCESS:    9780708	FORWARD:          0	MERGED:    1279620	TO_CACHE:    8501088

DTLB TOTAL     ACCESS:   12125163  HIT:   11935087  MISS:     190076  HIT %:    98.4324  MISS %:    1.56762   MPKI: 3.80152
DTLB LOAD TRANSLATION ACCESS:   12125163  HIT:   11935087  MISS:     190076  HIT %:    98.4324  MISS %:    1.56762   MPKI: 3.80152
DTLB PREFETCH  REQUESTED:          0  ISSUED:          0  USEFUL:          0  USELESS:          0
DTLB USEFUL LOAD PREFETCHES:          0 PREFETCH ISSUED TO LOWER LEVEL:          0  ACCURACY: -nan
DTLB TIMELY PREFETCHES:          0 LATE PREFETCHES: 0 DROPPED PREFETCHES: 0
DTLB PREFETCHES SAME FILL-ORIGIN LEVEL: 0 DIFFERENT FILL-ORIGIN LEVEL: 0
DTLB AVERAGE MISS LATENCY: 13.1723 cycles
DTLB RQ	ACCESS:   14556156	FORWARD:          0	MERGED:    2421317	TO_CACHE:   12134839

STLB TOTAL     ACCESS:     898880  HIT:     889647  MISS:       9233  HIT %:    98.9728  MISS %:    1.02717   MPKI: 0.18466
STLB LOAD TRANSLATION ACCESS:     276401  HIT:     267168  MISS:       9233  HIT %:    96.6596  MISS %:    3.34044   MPKI: 0.18466
STLB TRANSLATION FROM L1D PREFETCHER ACCESS:     622479  HIT:     622479  MISS:          0  HIT %:        100  MISS %:          0   MPKI: 0
STLB PREFETCH  REQUESTED:          0  ISSUED:          0  USEFUL:          0  USELESS:          0
STLB USEFUL LOAD PREFETCHES:          0 PREFETCH ISSUED TO LOWER LEVEL:          0  ACCURACY: -nan
STLB TIMELY PREFETCHES:          0 LATE PREFETCHES: 0 DROPPED PREFETCHES: 0
STLB PREFETCHES SAME FILL-ORIGIN LEVEL: 0 DIFFERENT FILL-ORIGIN LEVEL: 0
STLB AVERAGE MISS LATENCY: 119.586 cycles
STLB RQ	ACCESS:    1076701	FORWARD:          0	MERGED:     177821	TO_CACHE:     898880

STLB Hit, L1D data hit: 0
STLB Hit, L2C data hit: 0
STLB Hit, LLC data hit: 0
STLB Hit, LLC data miss: 0
STLB STLB hints to L2: 0
L1D TOTAL     ACCESS:   15118069  HIT:   14540050  MISS:     578019  HIT %:    96.1766  MISS %:    3.82337   MPKI: 11.5604
L1D LOAD      ACCESS:    9139387  HIT:    8834760  MISS:     304627  HIT %:    96.6669  MISS %:    3.33312   MPKI: 6.09254
L1D RFO       ACCESS:    5199070  HIT:    5099530  MISS:      99540  HIT %:    98.0854  MISS %:    1.91457   MPKI: 1.9908
L1D PREFETCH  ACCESS:     779612  HIT:     605760  MISS:     173852  HIT %:    77.7002  MISS %:    22.2998   MPKI: 3.47704
L1D PREFETCH  REQUESTED:    1601089  ISSUED:    1601005  USEFUL:      62832  USELESS:     110885
L1D USEFUL LOAD PREFETCHES:      62832 PREFETCH ISSUED TO LOWER LEVEL:     179724  ACCURACY: 34.9603
L1D TIMELY PREFETCHES:      62832 LATE PREFETCHES: 5411 DROPPED PREFETCHES: 0
L1D PREFETCHES SAME FILL-ORIGIN LEVEL: 179724 DIFFERENT FILL-ORIGIN LEVEL: 0
L1D AVERAGE MISS LATENCY: 569177 cycles
L1D RQ	ACCESS:   12709323	FORWARD:          0	MERGED:    3435188	TO_CACHE:    9161407
L1D WQ	ACCESS:    5608672	FORWARD:     113133	MERGED:     213923	TO_CACHE:    5394749
L1D PQ	ACCESS:     800705	FORWARD:          0	MERGED:          0	TO_CACHE:     800300

L1D UNIQUE REGIONS ACCESSED: 0
L1D REGIONS CONFLICTS: 0
L1D Cross Page Prefetch Requests: 0
L1D Same Page Prefetch Requests: 892187
L1D ROI Sum of L1D PQ occupancy: 11418156
L1D PREFETCHES PUSHED FROM L2C: 0
L1I TOTAL     ACCESS:    9670226  HIT:    9158131  MISS:     512095  HIT %:    94.7044  MISS %:    5.29558   MPKI: 10.2419
L1I LOAD      ACCESS:    9670226  HIT:    9158131  MISS:     512095  HIT %:    94.7044  MISS %:    5.29558   MPKI: 10.2419
L1I PREFETCH  REQUESTED:          0  ISSUED:          0  USEFUL:          0  USELESS:          0
L1I USEFUL LOAD PREFETCHES:          0 PREFETCH ISSUED TO LOWER LEVEL:          0  ACCURACY: -nan
L1I TIMELY PREFETCHES:          0 LATE PREFETCHES: 0 DROPPED PREFETCHES: 0
L1I PREFETCHES SAME FILL-ORIGIN LEVEL: 0 DIFFERENT FILL-ORIGIN LEVEL: 0
L1I AVERAGE MISS LATENCY: 41.5995 cycles
L1I RQ	ACCESS:   14345533	FORWARD:          0	MERGED:    4564825	TO_CACHE:    9780708

BTB TOTAL     ACCESS:    7103804  HIT:    6262901  MISS:     840903  HIT %:    88.1626  MISS %:    11.8374   MPKI: 16.8181
BTB BRANCH_DIRECT_JUMP	ACCESS:     684327  HIT:     652259  MISS:      32068
BTB BRANCH_INDIRECT	ACCESS:     441278  HIT:     206647  MISS:     234631
BTB BRANCH_CONDITIONAL	ACCESS:    4304333  HIT:    4222726  MISS:      81607
BTB BRANCH_DIRECT_CALL	ACCESS:     559763  HIT:     506973  MISS:      52790
BTB BRANCH_INDIRECT_CALL	ACCESS:     263528  HIT:     188816  MISS:      74712
BTB BRANCH_RETURN	ACCESS:     850575  HIT:     485480  MISS:     365095
BTB BRANCH_OTHER ACCESS:          0  HIT:          0  MISS:          0

L2C TOTAL     ACCESS:    1429069  HIT:    1075031  MISS:     354038  HIT %:     75.226  MISS %:     24.774   MPKI: 7.08076
L2C LOAD      ACCESS:     811294  HIT:     598673  MISS:     212621  HIT %:    73.7924  MISS %:    26.2076   MPKI: 4.25242
L2C DATA LOAD MPKI: 1.26098
L2C INSTRUCTION LOAD MPKI: 2.99144
L2C RFO       ACCESS:      99075  HIT:      38520  MISS:      60555  HIT %:    38.8796  MISS %:    61.1204   MPKI: 1.2111
L2C PREFETCH  ACCESS:     338583  HIT:     263376  MISS:      75207  HIT %:    77.7877  MISS %:    22.2123   MPKI: 1.50414
L2C DATA PREFETCH MPKI: 1.50414
L2C INSTRUCTION PREFETCH MPKI: 0
L2C WRITEBACK ACCESS:     170284  HIT:     169552  MISS:        732  HIT %:    99.5701  MISS %:    0.42987   MPKI: 0.01464
L2C LOAD TRANSLATION ACCESS:       9833  HIT:       4910  MISS:       4923  HIT %:    49.9339  MISS %:    50.0661   MPKI: 0.09846
L2C PREFETCH  REQUESTED:     166817  ISSUED:     166817  USEFUL:      18523  USELESS:      57545
L2C USEFUL LOAD PREFETCHES:      18523 PREFETCH ISSUED TO LOWER LEVEL:      76556  ACCURACY: 24.1954
L2C TIMELY PREFETCHES:      18523 LATE PREFETCHES: 1349 DROPPED PREFETCHES: 0
L2C PREFETCHES SAME FILL-ORIGIN LEVEL: 38181 DIFFERENT FILL-ORIGIN LEVEL: 0
L2C AVERAGE MISS LATENCY: 216.248 cycles
L2C RQ	ACCESS:     920222	FORWARD:          0	MERGED:          0	TO_CACHE:     920202
L2C WQ	ACCESS:     170284	FORWARD:         22	MERGED:          0	TO_CACHE:     170284
L2C PQ	ACCESS:     346541	FORWARD:          0	MERGED:       3345	TO_CACHE:     343194

L2C Instructions Evicting Data 81456
L2C Translations Evicting Data 2854
L2C Data Evicting Data 112604
L2C Instructions Evicting Instructions 66029
L2C Translations Evicting Instructions 1978
L2C Data Evicting Instructions 83322
L2C Instructions Evicting Translations 2087
L2C Translations Evicting Translations 91
L2C Data Evicting Translations 2885
L2C Dense regions hint from L2: 0
PSCL5 TOTAL     ACCESS:       9233  HIT:       9233  MISS:          0  HIT %:        100  MISS %:          0   MPKI: 0
PSCL5 LOAD TRANSLATION ACCESS:       9233  HIT:       9233  MISS:          0  HIT %:        100  MISS %:          0   MPKI: 0
PSCL5 PREFETCH  REQUESTED:          0  ISSUED:          0  USEFUL:          0  USELESS:          0
PSCL5 USEFUL LOAD PREFETCHES:          0 PREFETCH ISSUED TO LOWER LEVEL:          0  ACCURACY: -nan
PSCL5 TIMELY PREFETCHES:          0 LATE PREFETCHES: 0 DROPPED PREFETCHES: 0
PSCL5 PREFETCHES SAME FILL-ORIGIN LEVEL: 0 DIFFERENT FILL-ORIGIN LEVEL: 0

PSCL4 TOTAL     ACCESS:       7454  HIT:       7441  MISS:         13  HIT %:    99.8256  MISS %:   0.174403   MPKI: 0.00026
PSCL4 LOAD TRANSLATION ACCESS:       7454  HIT:       7441  MISS:         13  HIT %:    99.8256  MISS %:   0.174403   MPKI: 0.00026
PSCL4 PREFETCH  REQUESTED:          0  ISSUED:          0  USEFUL:          0  USELESS:          0
PSCL4 USEFUL LOAD PREFETCHES:          0 PREFETCH ISSUED TO LOWER LEVEL:          0  ACCURACY: -nan
PSCL4 TIMELY PREFETCHES:          0 LATE PREFETCHES: 0 DROPPED PREFETCHES: 0
PSCL4 PREFETCHES SAME FILL-ORIGIN LEVEL: 0 DIFFERENT FILL-ORIGIN LEVEL: 0

PSCL3 TOTAL     ACCESS:       9002  HIT:       8956  MISS:         46  HIT %:     99.489  MISS %:   0.510998   MPKI: 0.00092
PSCL3 LOAD TRANSLATION ACCESS:       9002  HIT:       8956  MISS:         46  HIT %:     99.489  MISS %:   0.510998   MPKI: 0.00092
PSCL3 PREFETCH  REQUESTED:          0  ISSUED:          0  USEFUL:          0  USELESS:          0
PSCL3 USEFUL LOAD PREFETCHES:          0 PREFETCH ISSUED TO LOWER LEVEL:          0  ACCURACY: -nan
PSCL3 TIMELY PREFETCHES:          0 LATE PREFETCHES: 0 DROPPED PREFETCHES: 0
PSCL3 PREFETCHES SAME FILL-ORIGIN LEVEL: 0 DIFFERENT FILL-ORIGIN LEVEL: 0

PSCL2 TOTAL     ACCESS:       9233  HIT:       8686  MISS:        547  HIT %:    94.0756  MISS %:     5.9244   MPKI: 0.01094
PSCL2 LOAD TRANSLATION ACCESS:       9233  HIT:       8686  MISS:        547  HIT %:    94.0756  MISS %:     5.9244   MPKI: 0.01094
PSCL2 PREFETCH  REQUESTED:          0  ISSUED:          0  USEFUL:          0  USELESS:          0
PSCL2 USEFUL LOAD PREFETCHES:          0 PREFETCH ISSUED TO LOWER LEVEL:          0  ACCURACY: -nan
PSCL2 TIMELY PREFETCHES:          0 LATE PREFETCHES: 0 DROPPED PREFETCHES: 0
PSCL2 PREFETCHES SAME FILL-ORIGIN LEVEL: 0 DIFFERENT FILL-ORIGIN LEVEL: 0

LLC TOTAL     ACCESS:     431617  HIT:     299030  MISS:     132587  HIT %:    69.2813  MISS %:    30.7187   MPKI: 2.65174
LLC LOAD      ACCESS:     211412  HIT:     145477  MISS:      65935  HIT %:    68.8121  MISS %:    31.1879   MPKI: 1.3187
LLC RFO       ACCESS:      60415  HIT:      27552  MISS:      32863  HIT %:    45.6046  MISS %:    54.3954   MPKI: 0.65726
LLC PREFETCH  ACCESS:      76556  HIT:      44498  MISS:      32058  HIT %:    58.1248  MISS %:    41.8752   MPKI: 0.64116
LLC WRITEBACK ACCESS:      78311  HIT:      78237  MISS:         74  HIT %:    99.9055  MISS %:   0.094495   MPKI: 0.00148
LLC LOAD TRANSLATION ACCESS:       4923  HIT:       3266  MISS:       1657  HIT %:    66.3417  MISS %:    33.6583   MPKI: 0.03314
LLC PREFETCH  REQUESTED:          0  ISSUED:          0  USEFUL:       4216  USELESS:      30007
LLC USEFUL LOAD PREFETCHES:       4216 PREFETCH ISSUED TO LOWER LEVEL:      32058  ACCURACY: 13.1512
LLC TIMELY PREFETCHES:       4216 LATE PREFETCHES: 0 DROPPED PREFETCHES: 0
LLC PREFETCHES SAME FILL-ORIGIN LEVEL: 0 DIFFERENT FILL-ORIGIN LEVEL: 0
LLC AVERAGE MISS LATENCY: 499.128 cycles
LLC RQ	ACCESS:     276750	FORWARD:          0	MERGED:          0	TO_CACHE:     276750
LLC WQ	ACCESS:      78311	FORWARD:          0	MERGED:          0	TO_CACHE:      78311
LLC PQ	ACCESS:      76556	FORWARD:          0	MERGED:          0	TO_CACHE:      76556

LLC Dense regions hint to LLC: 0

RAW hits: 880746
Loads Generated: 13590069
Loads sent to L1D: 12709323
Stores Generated: 5608673
Stores sent to L1D: 5608672
Major fault: 0 Minor fault: 3859
Allocated PAGES: 3859

stream: 
stream:times selected: 1390500
stream:pref_filled: 126481
stream:pref_useful: 43772
stream:pref_late: 3608
stream:misses: 15761
stream:misses_by_poll: 0

CS: 
CS:times selected: 80087
CS:pref_filled: 14951
CS:pref_useful: 10493
CS:pref_late: 969
CS:misses: 2564
CS:misses_by_poll: 15

CPLX: 
CPLX:times selected: 1301340
CPLX:pref_filled: 51414
CPLX:pref_useful: 12922
CPLX:pref_late: 416
CPLX:misses: 73817
CPLX:misses_by_poll: 98

NL_L1: 
NL:times selected: 12480
NL:pref_filled: 1304
NL:pref_useful: 535
NL:pref_late: 28
NL:misses: 950
NL:misses_by_poll: 0

total selections: 2784407
total_filled: 173852
total_useful: 62832
total_late: 5839
total_polluted: 113
total_misses_after_warmup: 326647
conflicts: 2071132
Degree Incremented Times: 0
Degree Decremented Times: 103486

L1 IP Table Write Accesses: 6424682
L1 IP Table Read Accesses: 4353550
L1 RST Write Accesses: 1219806
L1 RST Read Accesses: 2439612
L1 CSPT Write Accesses: 1219806
L1 CSPT Read Accesses: 2359647
L1 RR Filter Tag Write Accesses: 800789
L1 RR Filter Tag Read Accesses: 45626149
L1 IP Table Tag Write Accesses: 9161407
L1 IP Table Tag Read Accesses: 9161407
L1 RST Tag Write Accesses: 0
L1 RST Tag Read Accesses: 11094382
L1 RR Filter Write Accesses: 0
L1 RR Filter Read Accesses: 1701840
test: 432818
L2 IP Table Read Accesses: 781975
L2 IP Table Write Accesses: 746566
L2 IP Table Tag Read Accesses: 475645
L2 IP Table Tag Write Accesses: 475645

DRAM Statistics
 CHANNEL 0
 RQ ROW_BUFFER_HIT:      30780  ROW_BUFFER_MISS:     101717
 DBUS_CONGESTED:     137062
 WQ ROW_BUFFER_HIT:      12469  ROW_BUFFER_MISS:      23574  FULL:          0

 AVG_CONGESTED_CYCLE: 126
 All warmup complete: 2
Channel 0 Bank busy for read cycles: 0
Channel 0 Bank busy for write cycles: 0
Channel 0
Rank 0
0banks busy for read cycles: 71991910
0banks busy for write cycles: 11138
1banks busy for read cycles: 11028946
1banks busy for write cycles: 2598213
2banks busy for read cycles: 4059713
2banks busy for write cycles: 1252376
3banks busy for read cycles: 1680066
3banks busy for write cycles: 862385
4banks busy for read cycles: 738136
4banks busy for write cycles: 693767
5banks busy for read cycles: 390754
5banks busy for write cycles: 611113
6banks busy for read cycles: 249737
6banks busy for write cycles: 638493
7banks busy for read cycles: 237916
7banks busy for write cycles: 777761
8banks busy for read cycles: 1571051
8banks busy for write cycles: 1893358

CPU 0 Branch Prediction Accuracy: 92.6971% MPKI: 13.3583 Average ROB Occupancy at Mispredict: 33.1774
Branch types
NOT_BRANCH: 40853728 81.7075%
BRANCH_DIRECT_JUMP: 684327 1.36865%
BRANCH_INDIRECT: 441278 0.882556%
BRANCH_CONDITIONAL: 6346442 12.6929%
BRANCH_DIRECT_CALL: 559763 1.11953%
BRANCH_INDIRECT_CALL: 263528 0.527056%
BRANCH_RETURN: 850575 1.70115%
BRANCH_OTHER: 0 0%

@sumon_overall_L1D     62832      5411    110885    173852   1601005   1601089
@Sumon_Early_by_class_L1D     39373      9715     11979        28
@Sumon_Late_by_class_L1D      3212       966       396        28

@Sumon_Early_by_cycle_L1D     14107      6926      6286      3624      2230      6507      4532      4520      3831      5287      2943      2039
@Sumon_Late_by_cycle_L1D      4418       516       295        69        31        78         4         0         0         0         0         0
@Sumon_Early_stream_L1D     10106      4032      3411      2115      1287      3875      2963      2908      2265      3284      1815      1312
@Sumon_Early_CS_L1D      1404      1808      1916       838       498      1254       535       441       406       327       177       111
@Sumon_Early_CPLX_L1D      2231       907       791       574       397      1145       899      1043      1054      1526       855       557
@Sumon_Late_stream_L1D      2514       368       204        50        28        44         4         0         0         0         0         0
@Sumon_Late_CS_L1D       769       103        53        13         1        27         0         0         0         0         0         0
@Sumon_Late_CPLX_L1D       329        24        31         4         2         6         0         0         0         0         0         0
@sumon_overall_L2C     18523      1349     57545     75207    166817    166817
@Sumon_Early_by_class_L2C      3972       682      1766         0
@Sumon_Late_by_class_L2C         0         0         0         0

@Sumon_Early_by_cycle_L2C      1442       889       811       514       403      1114       725       714       625       889       946      9451
@Sumon_Late_by_cycle_L2C       563       497       224        45        15         5         0         0         0         0         0         0
@Sumon_Early_stream_L2C         0         0         0         0         0         0         0         2         3        50       201      3716
@Sumon_Early_CS_L2C         0         0         0         0         0         0         0         2         0         8        21       651
@Sumon_Early_CPLX_L2C         0         0         0         0         0         0         0         0         2        25        91      1648
@Sumon_Late_stream_L2C         0         0         0         0         0         0         0         0         0         0         0         0
@Sumon_Late_CS_L2C         0         0         0         0         0         0         0         0         0         0         0         0
@Sumon_Late_CPLX_L2C         0         0         0         0         0         0         0         0         0         0         0         0
DRAM PAGES: 1048576
Allocated PAGES: 3859
