
*** ChampSim Multicore Out-of-Order Simulator ***

Warmup Instructions: 10000000
Simulation Instructions: 50000000
Number of CPUs: 1
LLC sets: 2048
LLC ways: 16
Off-chip DRAM Size: 4096 MB Channels: 1 Width: 64-bit Data Rate: 200 MT/s
CPU 0 runs traces/clientserver/server_012.champsimtrace.xz
.xz
CPU 0 Bimodal branch predictor
BTB has LRU replacement policy
ITLB has LRU replacement policy
DTLB has LRU replacement policy
STLB has LRU replacement policy
L1I has LRU replacement policy
IP Table Entries: 256
L1D has LRU replacement policy
IP_Table L2 entries: 256
L2C has LRU replacement policy
LLC has LRU replacement policy
Heartbeat CPU 0 instructions: 10000002 cycles: 2771715 heartbeat IPC: 3.60788 cumulative IPC: 3.60788 (Simulation time: 0 hr 16 min 33 sec) 

Warmup complete CPU 0 instructions: 10000002 cycles: 2771715 (Simulation time: 0 hr 16 min 33 sec) 

Heartbeat CPU 0 instructions: 20000002 cycles: 23929245 heartbeat IPC: 0.472645 cumulative IPC: 0.472645 (Simulation time: 0 hr 33 min 39 sec) 
Heartbeat CPU 0 instructions: 30000001 cycles: 44816277 heartbeat IPC: 0.478766 cumulative IPC: 0.475686 (Simulation time: 0 hr 50 min 56 sec) 
Heartbeat CPU 0 instructions: 40000001 cycles: 66136721 heartbeat IPC: 0.469033 cumulative IPC: 0.473447 (Simulation time: 1 hr 7 min 59 sec) 
Heartbeat CPU 0 instructions: 50000000 cycles: 87152003 heartbeat IPC: 0.475844 cumulative IPC: 0.474044 (Simulation time: 1 hr 24 min 56 sec) 
Heartbeat CPU 0 instructions: 60000000 cycles: 107873531 heartbeat IPC: 0.48259 cumulative IPC: 0.475729 (Simulation time: 1 hr 41 min 25 sec) 
Finished CPU 0 instructions: 50000002 cycles: 105101817 cumulative IPC: 0.475729 (Simulation time: 1 hr 41 min 25 sec) 

ChampSim completed all CPUs

Region of Interest Statistics

CPU 0 cumulative IPC: 0.475729 instructions: 50000002 cycles: 105101817
ITLB TOTAL     ACCESS:    7881473  HIT:    7683662  MISS:     197811  HIT %:    97.4902  MISS %:    2.50982   MPKI: 3.95622
ITLB LOAD TRANSLATION ACCESS:    7881473  HIT:    7683662  MISS:     197811  HIT %:    97.4902  MISS %:    2.50982   MPKI: 3.95622
ITLB PREFETCH  REQUESTED:          0  ISSUED:          0  USEFUL:          0  USELESS:          0
ITLB USEFUL LOAD PREFETCHES:          0 PREFETCH ISSUED TO LOWER LEVEL:          0  ACCURACY: -nan
ITLB TIMELY PREFETCHES:          0 LATE PREFETCHES: 0 DROPPED PREFETCHES: 0
ITLB PREFETCHES SAME FILL-ORIGIN LEVEL: 0 DIFFERENT FILL-ORIGIN LEVEL: 0
ITLB AVERAGE MISS LATENCY: 17.5103 cycles
ITLB RQ	ACCESS:    9688561	FORWARD:          0	MERGED:    1755728	TO_CACHE:    7932833

DTLB TOTAL     ACCESS:   10014678  HIT:    9371537  MISS:     643141  HIT %:     93.578  MISS %:    6.42198   MPKI: 12.8628
DTLB LOAD TRANSLATION ACCESS:   10014678  HIT:    9371537  MISS:     643141  HIT %:     93.578  MISS %:    6.42198   MPKI: 12.8628
DTLB PREFETCH  REQUESTED:          0  ISSUED:          0  USEFUL:          0  USELESS:          0
DTLB USEFUL LOAD PREFETCHES:          0 PREFETCH ISSUED TO LOWER LEVEL:          0  ACCURACY: -nan
DTLB TIMELY PREFETCHES:          0 LATE PREFETCHES: 0 DROPPED PREFETCHES: 0
DTLB PREFETCHES SAME FILL-ORIGIN LEVEL: 0 DIFFERENT FILL-ORIGIN LEVEL: 0
DTLB AVERAGE MISS LATENCY: 15.3072 cycles
DTLB RQ	ACCESS:   12372027	FORWARD:          0	MERGED:    2320481	TO_CACHE:   10051546

STLB TOTAL     ACCESS:    1029609  HIT:     913388  MISS:     116221  HIT %:    88.7121  MISS %:    11.2879   MPKI: 2.32442
STLB LOAD TRANSLATION ACCESS:     840952  HIT:     724731  MISS:     116221  HIT %:    86.1798  MISS %:    13.8202   MPKI: 2.32442
STLB TRANSLATION FROM L1D PREFETCHER ACCESS:     188657  HIT:     188657  MISS:          0  HIT %:        100  MISS %:          0   MPKI: 0
STLB PREFETCH  REQUESTED:          0  ISSUED:          0  USEFUL:          0  USELESS:          0
STLB USEFUL LOAD PREFETCHES:          0 PREFETCH ISSUED TO LOWER LEVEL:          0  ACCURACY: -nan
STLB TIMELY PREFETCHES:          0 LATE PREFETCHES: 0 DROPPED PREFETCHES: 0
STLB PREFETCHES SAME FILL-ORIGIN LEVEL: 0 DIFFERENT FILL-ORIGIN LEVEL: 0
STLB AVERAGE MISS LATENCY: 49.2561 cycles
STLB RQ	ACCESS:    1079495	FORWARD:          0	MERGED:      49885	TO_CACHE:    1029610

STLB Hit, L1D data hit: 0
STLB Hit, L2C data hit: 0
STLB Hit, LLC data hit: 0
STLB Hit, LLC data miss: 0
STLB STLB hints to L2: 0
L1D TOTAL     ACCESS:   12455786  HIT:   11728662  MISS:     727124  HIT %:    94.1624  MISS %:    5.83764   MPKI: 14.5425
L1D LOAD      ACCESS:    7225209  HIT:    6688360  MISS:     536849  HIT %:    92.5698  MISS %:    7.43022   MPKI: 10.737
L1D RFO       ACCESS:    5007757  HIT:    4915948  MISS:      91809  HIT %:    98.1667  MISS %:    1.83334   MPKI: 1.83618
L1D PREFETCH  ACCESS:     222820  HIT:     124354  MISS:      98466  HIT %:    55.8092  MISS %:    44.1908   MPKI: 1.96932
L1D PREFETCH  REQUESTED:     477415  ISSUED:     477294  USEFUL:      28436  USELESS:      70063
L1D USEFUL LOAD PREFETCHES:      28436 PREFETCH ISSUED TO LOWER LEVEL:     104869  ACCURACY: 27.1157
L1D TIMELY PREFETCHES:      28436 LATE PREFETCHES: 6264 DROPPED PREFETCHES: 0
L1D PREFETCHES SAME FILL-ORIGIN LEVEL: 104869 DIFFERENT FILL-ORIGIN LEVEL: 0
L1D AVERAGE MISS LATENCY: 499752 cycles
L1D RQ	ACCESS:   10638174	FORWARD:          0	MERGED:    3306395	TO_CACHE:    7252307
L1D WQ	ACCESS:    5207903	FORWARD:      79682	MERGED:      88183	TO_CACHE:    5119720
L1D PQ	ACCESS:     238752	FORWARD:          0	MERGED:          0	TO_CACHE:     238542

L1D UNIQUE REGIONS ACCESSED: 0
L1D REGIONS CONFLICTS: 0
L1D Cross Page Prefetch Requests: 0
L1D Same Page Prefetch Requests: 287844
L1D ROI Sum of L1D PQ occupancy: 4073356
L1D PREFETCHES PUSHED FROM L2C: 0
L1I TOTAL     ACCESS:    9266669  HIT:    7968283  MISS:    1298386  HIT %:    85.9886  MISS %:    14.0114   MPKI: 25.9677
L1I LOAD      ACCESS:    9266669  HIT:    7968283  MISS:    1298386  HIT %:    85.9886  MISS %:    14.0114   MPKI: 25.9677
L1I PREFETCH  REQUESTED:          0  ISSUED:          0  USEFUL:          0  USELESS:          0
L1I USEFUL LOAD PREFETCHES:          0 PREFETCH ISSUED TO LOWER LEVEL:          0  ACCURACY: -nan
L1I TIMELY PREFETCHES:          0 LATE PREFETCHES: 0 DROPPED PREFETCHES: 0
L1I PREFETCHES SAME FILL-ORIGIN LEVEL: 0 DIFFERENT FILL-ORIGIN LEVEL: 0
L1I AVERAGE MISS LATENCY: 30.8061 cycles
L1I RQ	ACCESS:   13856387	FORWARD:          0	MERGED:    4167826	TO_CACHE:    9688561

BTB TOTAL     ACCESS:    4469993  HIT:    3684879  MISS:     785114  HIT %:    82.4359  MISS %:    17.5641   MPKI: 15.7023
BTB BRANCH_DIRECT_JUMP	ACCESS:     461138  HIT:     398477  MISS:      62661
BTB BRANCH_INDIRECT	ACCESS:     153421  HIT:     119718  MISS:      33703
BTB BRANCH_CONDITIONAL	ACCESS:    2143626  HIT:    1887593  MISS:     256033
BTB BRANCH_DIRECT_CALL	ACCESS:     670236  HIT:     552215  MISS:     118021
BTB BRANCH_INDIRECT_CALL	ACCESS:     168700  HIT:     156363  MISS:      12337
BTB BRANCH_RETURN	ACCESS:     872872  HIT:     570513  MISS:     302359
BTB BRANCH_OTHER ACCESS:          0  HIT:          0  MISS:          0

L2C TOTAL     ACCESS:    2858667  HIT:    1550770  MISS:    1307897  HIT %:     54.248  MISS %:     45.752   MPKI: 26.1579
L2C LOAD      ACCESS:    1828956  HIT:     930129  MISS:     898827  HIT %:    50.8557  MISS %:    49.1443   MPKI: 17.9765
L2C DATA LOAD MPKI: 5.01946
L2C INSTRUCTION LOAD MPKI: 12.9571
L2C RFO       ACCESS:      91669  HIT:      38996  MISS:      52673  HIT %:      42.54  MISS %:      57.46   MPKI: 1.05346
L2C PREFETCH  ACCESS:     530065  HIT:     244634  MISS:     285431  HIT %:    46.1517  MISS %:    53.8483   MPKI: 5.70862
L2C DATA PREFETCH MPKI: 5.70862
L2C INSTRUCTION PREFETCH MPKI: 0
L2C WRITEBACK ACCESS:     260670  HIT:     257795  MISS:       2875  HIT %:    98.8971  MISS %:    1.10293   MPKI: 0.0575
L2C LOAD TRANSLATION ACCESS:     147307  HIT:      79216  MISS:      68091  HIT %:    53.7761  MISS %:    46.2239   MPKI: 1.36182
L2C PREFETCH  REQUESTED:     454141  ISSUED:     454141  USEFUL:      71182  USELESS:     214299
L2C USEFUL LOAD PREFETCHES:      71182 PREFETCH ISSUED TO LOWER LEVEL:     293428  ACCURACY: 24.2588
L2C TIMELY PREFETCHES:      71182 LATE PREFETCHES: 7997 DROPPED PREFETCHES: 0
L2C PREFETCHES SAME FILL-ORIGIN LEVEL: 221081 DIFFERENT FILL-ORIGIN LEVEL: 0
L2C AVERAGE MISS LATENCY: 52.5805 cycles
L2C RQ	ACCESS:    2067948	FORWARD:          0	MERGED:          0	TO_CACHE:    2067932
L2C WQ	ACCESS:     260670	FORWARD:         18	MERGED:          0	TO_CACHE:     260670
L2C PQ	ACCESS:     559010	FORWARD:          0	MERGED:       4939	TO_CACHE:     554069

L2C Instructions Evicting Data 293143
L2C Translations Evicting Data 30481
L2C Data Evicting Data 266905
L2C Instructions Evicting Instructions 319854
L2C Translations Evicting Instructions 34590
L2C Data Evicting Instructions 292148
L2C Instructions Evicting Translations 34857
L2C Translations Evicting Translations 3020
L2C Data Evicting Translations 30024
L2C Dense regions hint from L2: 0
PSCL5 TOTAL     ACCESS:     116221  HIT:     116221  MISS:          0  HIT %:        100  MISS %:          0   MPKI: 0
PSCL5 LOAD TRANSLATION ACCESS:     116221  HIT:     116221  MISS:          0  HIT %:        100  MISS %:          0   MPKI: 0
PSCL5 PREFETCH  REQUESTED:          0  ISSUED:          0  USEFUL:          0  USELESS:          0
PSCL5 USEFUL LOAD PREFETCHES:          0 PREFETCH ISSUED TO LOWER LEVEL:          0  ACCURACY: -nan
PSCL5 TIMELY PREFETCHES:          0 LATE PREFETCHES: 0 DROPPED PREFETCHES: 0
PSCL5 PREFETCHES SAME FILL-ORIGIN LEVEL: 0 DIFFERENT FILL-ORIGIN LEVEL: 0

PSCL4 TOTAL     ACCESS:     111996  HIT:     111658  MISS:        338  HIT %:    99.6982  MISS %:   0.301796   MPKI: 0.00676
PSCL4 LOAD TRANSLATION ACCESS:     111996  HIT:     111658  MISS:        338  HIT %:    99.6982  MISS %:   0.301796   MPKI: 0.00676
PSCL4 PREFETCH  REQUESTED:          0  ISSUED:          0  USEFUL:          0  USELESS:          0
PSCL4 USEFUL LOAD PREFETCHES:          0 PREFETCH ISSUED TO LOWER LEVEL:          0  ACCURACY: -nan
PSCL4 TIMELY PREFETCHES:          0 LATE PREFETCHES: 0 DROPPED PREFETCHES: 0
PSCL4 PREFETCHES SAME FILL-ORIGIN LEVEL: 0 DIFFERENT FILL-ORIGIN LEVEL: 0

PSCL3 TOTAL     ACCESS:     115174  HIT:     114205  MISS:        969  HIT %:    99.1587  MISS %:   0.841336   MPKI: 0.01938
PSCL3 LOAD TRANSLATION ACCESS:     115174  HIT:     114205  MISS:        969  HIT %:    99.1587  MISS %:   0.841336   MPKI: 0.01938
PSCL3 PREFETCH  REQUESTED:          0  ISSUED:          0  USEFUL:          0  USELESS:          0
PSCL3 USEFUL LOAD PREFETCHES:          0 PREFETCH ISSUED TO LOWER LEVEL:          0  ACCURACY: -nan
PSCL3 TIMELY PREFETCHES:          0 LATE PREFETCHES: 0 DROPPED PREFETCHES: 0
PSCL3 PREFETCHES SAME FILL-ORIGIN LEVEL: 0 DIFFERENT FILL-ORIGIN LEVEL: 0

PSCL2 TOTAL     ACCESS:     116221  HIT:      86366  MISS:      29855  HIT %:    74.3119  MISS %:    25.6881   MPKI: 0.5971
PSCL2 LOAD TRANSLATION ACCESS:     116221  HIT:      86366  MISS:      29855  HIT %:    74.3119  MISS %:    25.6881   MPKI: 0.5971
PSCL2 PREFETCH  REQUESTED:          0  ISSUED:          0  USEFUL:          0  USELESS:          0
PSCL2 USEFUL LOAD PREFETCHES:          0 PREFETCH ISSUED TO LOWER LEVEL:          0  ACCURACY: -nan
PSCL2 TIMELY PREFETCHES:          0 LATE PREFETCHES: 0 DROPPED PREFETCHES: 0
PSCL2 PREFETCHES SAME FILL-ORIGIN LEVEL: 0 DIFFERENT FILL-ORIGIN LEVEL: 0

LLC TOTAL     ACCESS:    1470321  HIT:    1384018  MISS:      86303  HIT %:    94.1303  MISS %:    5.86967   MPKI: 1.72606
LLC LOAD      ACCESS:     891258  HIT:     865336  MISS:      25922  HIT %:    97.0915  MISS %:    2.90847   MPKI: 0.51844
LLC RFO       ACCESS:      52237  HIT:      42622  MISS:       9615  HIT %:    81.5935  MISS %:    18.4065   MPKI: 0.1923
LLC PREFETCH  ACCESS:     293428  HIT:     244296  MISS:      49132  HIT %:    83.2559  MISS %:    16.7441   MPKI: 0.98264
LLC WRITEBACK ACCESS:     165307  HIT:     165256  MISS:         51  HIT %:    99.9691  MISS %:  0.0308517   MPKI: 0.00102
LLC LOAD TRANSLATION ACCESS:      68091  HIT:      66508  MISS:       1583  HIT %:    97.6752  MISS %:    2.32483   MPKI: 0.03166
LLC PREFETCH  REQUESTED:          0  ISSUED:          0  USEFUL:       3924  USELESS:      44394
LLC USEFUL LOAD PREFETCHES:       3924 PREFETCH ISSUED TO LOWER LEVEL:      49132  ACCURACY: 7.98665
LLC TIMELY PREFETCHES:       3924 LATE PREFETCHES: 0 DROPPED PREFETCHES: 0
LLC PREFETCHES SAME FILL-ORIGIN LEVEL: 0 DIFFERENT FILL-ORIGIN LEVEL: 0
LLC AVERAGE MISS LATENCY: 354.443 cycles
LLC RQ	ACCESS:    1011594	FORWARD:          0	MERGED:          0	TO_CACHE:    1011586
LLC WQ	ACCESS:     165307	FORWARD:          8	MERGED:          0	TO_CACHE:     165307
LLC PQ	ACCESS:     293428	FORWARD:          0	MERGED:          0	TO_CACHE:     293428

LLC Dense regions hint to LLC: 0

RAW hits: 793320
Loads Generated: 11431494
Loads sent to L1D: 10638174
Stores Generated: 5207898
Stores sent to L1D: 5207903
Major fault: 0 Minor fault: 4938
Allocated PAGES: 4938

stream: 
stream:times selected: 430056
stream:pref_filled: 71013
stream:pref_useful: 19844
stream:pref_late: 3388
stream:misses: 6320
stream:misses_by_poll: 0

CS: 
CS:times selected: 25515
CS:pref_filled: 13345
CS:pref_useful: 9441
CS:pref_late: 2720
CS:misses: 4592
CS:misses_by_poll: 0

CPLX: 
CPLX:times selected: 401385
CPLX:pref_filled: 29167
CPLX:pref_useful: 4001
CPLX:pref_late: 433
CPLX:misses: 33601
CPLX:misses_by_poll: 1

NL_L1: 
NL:times selected: 3075
NL:pref_filled: 1137
NL:pref_useful: 177
NL:pref_late: 24
NL:misses: 381
NL:misses_by_poll: 0

total selections: 860031
total_filled: 98466
total_useful: 28436
total_late: 6986
total_polluted: 1
total_misses_after_warmup: 563945
conflicts: 2436503
Degree Incremented Times: 8866
Degree Decremented Times: 162821

L1 IP Table Write Accesses: 4292125
L1 IP Table Read Accesses: 1855622
L1 RST Write Accesses: 361598
L1 RST Read Accesses: 723196
L1 CSPT Write Accesses: 361598
L1 CSPT Read Accesses: 700795
L1 RR Filter Tag Write Accesses: 238873
L1 RR Filter Tag Read Accesses: 14674176
L1 IP Table Tag Write Accesses: 7252305
L1 IP Table Tag Read Accesses: 7252305
L1 RST Tag Write Accesses: 0
L1 RST Tag Read Accesses: 3463963
L1 RR Filter Write Accesses: 0
L1 RR Filter Read Accesses: 531644
test: 114828
L2 IP Table Read Accesses: 796889
L2 IP Table Write Accesses: 1119478
L2 IP Table Tag Read Accesses: 629979
L2 IP Table Tag Write Accesses: 629979

DRAM Statistics
 CHANNEL 0
 RQ ROW_BUFFER_HIT:      16644  ROW_BUFFER_MISS:      69605
 DBUS_CONGESTED:     106064
 WQ ROW_BUFFER_HIT:      14073  ROW_BUFFER_MISS:      38379  FULL:          0

 AVG_CONGESTED_CYCLE: 113
 All warmup complete: 2
Channel 0 Bank busy for read cycles: 0
Channel 0 Bank busy for write cycles: 0
Channel 0
Rank 0
0banks busy for read cycles: 81946973
0banks busy for write cycles: 22045
1banks busy for read cycles: 8090007
1banks busy for write cycles: 4239207
2banks busy for read cycles: 2507426
2banks busy for write cycles: 1643717
3banks busy for read cycles: 924395
3banks busy for write cycles: 855469
4banks busy for read cycles: 433771
4banks busy for write cycles: 594712
5banks busy for read cycles: 211786
5banks busy for write cycles: 526225
6banks busy for read cycles: 139748
6banks busy for write cycles: 509905
7banks busy for read cycles: 127858
7banks busy for write cycles: 665922
8banks busy for read cycles: 394586
8banks busy for write cycles: 1268066

CPU 0 Branch Prediction Accuracy: 93.0432% MPKI: 12.9126 Average ROB Occupancy at Mispredict: 22.1023
Branch types
NOT_BRANCH: 40719347 81.4387%
BRANCH_DIRECT_JUMP: 461138 0.922276%
BRANCH_INDIRECT: 153421 0.306842%
BRANCH_CONDITIONAL: 6954241 13.9085%
BRANCH_DIRECT_CALL: 670236 1.34047%
BRANCH_INDIRECT_CALL: 168700 0.3374%
BRANCH_RETURN: 872872 1.74574%
BRANCH_OTHER: 0 0%

@sumon_overall_L1D     28436      6264     70063     98466    477294    477415
@Sumon_Early_by_class_L1D     16160      7008      3264        22
@Sumon_Late_by_class_L1D      3162      2341       389        22

@Sumon_Early_by_cycle_L1D      6774      2327      4903      1823      1854      3455      1402      1430      2029      1687       641       111
@Sumon_Late_by_cycle_L1D      5548       532       151        17         6         8         2         0         0         0         0         0
@Sumon_Early_stream_L1D      3138      1597      1607      1289      1228      2107      1039      1104      1454      1152       370        75
@Sumon_Early_CS_L1D      2886       177      2515       128       244       701       121        92        55        19        67         3
@Sumon_Early_CPLX_L1D       349       265       479       167       166       441       216       217       386       418       136        24
@Sumon_Late_stream_L1D      2705       319       113        13         5         5         2         0         0         0         0         0
@Sumon_Late_CS_L1D      2198       134         9         0         0         0         0         0         0         0         0         0
@Sumon_Late_CPLX_L1D       341        29        14         2         1         2         0         0         0         0         0         0
@sumon_overall_L2C     71182      7997    214299    285431    454141    454141
@Sumon_Early_by_class_L2C      1370       543       555         0
@Sumon_Late_by_class_L2C         0         0         0         0

@Sumon_Early_by_cycle_L2C     11645      7915      8302      5591      3979     10235      5069      3622      2516      2622      1758      7928
@Sumon_Late_by_cycle_L2C      4858      2336       659        91        30        23         0         0         0         0         0         0
@Sumon_Early_stream_L2C         0         0         0         0         0         0         0         0         1        10        82      1277
@Sumon_Early_CS_L2C         0         0         0         0         0         0         0         0         0         1        42       500
@Sumon_Early_CPLX_L2C         0         0         0         0         0         0         0         0         0         6        40       509
@Sumon_Late_stream_L2C         0         0         0         0         0         0         0         0         0         0         0         0
@Sumon_Late_CS_L2C         0         0         0         0         0         0         0         0         0         0         0         0
@Sumon_Late_CPLX_L2C         0         0         0         0         0         0         0         0         0         0         0         0
DRAM PAGES: 1048576
Allocated PAGES: 4938
