
*** ChampSim Multicore Out-of-Order Simulator ***

Warmup Instructions: 10000000
Simulation Instructions: 50000000
Number of CPUs: 1
LLC sets: 2048
LLC ways: 16
Off-chip DRAM Size: 4096 MB Channels: 1 Width: 64-bit Data Rate: 200 MT/s
CPU 0 runs traces/clientserver/server_026.champsimtrace.xz
.xz
CPU 0 Bimodal branch predictor
BTB has LRU replacement policy
ITLB has LRU replacement policy
DTLB has LRU replacement policy
STLB has LRU replacement policy
L1I has LRU replacement policy
IP Table Entries: 256
L1D has LRU replacement policy
IP_Table L2 entries: 256
L2C has LRU replacement policy
LLC has LRU replacement policy
Heartbeat CPU 0 instructions: 10000000 cycles: 2885978 heartbeat IPC: 3.46503 cumulative IPC: 3.46503 (Simulation time: 0 hr 19 min 3 sec) 

Warmup complete CPU 0 instructions: 10000001 cycles: 2885979 (Simulation time: 0 hr 19 min 3 sec) 

Heartbeat CPU 0 instructions: 20000002 cycles: 28626365 heartbeat IPC: 0.388495 cumulative IPC: 0.388495 (Simulation time: 0 hr 37 min 13 sec) 
Heartbeat CPU 0 instructions: 30000000 cycles: 53920466 heartbeat IPC: 0.395349 cumulative IPC: 0.391892 (Simulation time: 0 hr 54 min 56 sec) 
Heartbeat CPU 0 instructions: 40000002 cycles: 79492791 heartbeat IPC: 0.391048 cumulative IPC: 0.39161 (Simulation time: 1 hr 12 min 48 sec) 
Heartbeat CPU 0 instructions: 50000000 cycles: 104635077 heartbeat IPC: 0.397736 cumulative IPC: 0.393124 (Simulation time: 1 hr 30 min 18 sec) 
*** Reached end of trace for Core: 0 Repeating trace: traces/clientserver/server_026.champsimtrace.xz
Heartbeat CPU 0 instructions: 60000000 cycles: 130390504 heartbeat IPC: 0.388268 cumulative IPC: 0.392143 (Simulation time: 1 hr 45 min 42 sec) 
Finished CPU 0 instructions: 50000001 cycles: 127504533 cumulative IPC: 0.392143 (Simulation time: 1 hr 45 min 42 sec) 

ChampSim completed all CPUs

Region of Interest Statistics

CPU 0 cumulative IPC: 0.392143 instructions: 50000001 cycles: 127504533
ITLB TOTAL     ACCESS:    8447884  HIT:    7960737  MISS:     487147  HIT %:    94.2335  MISS %:     5.7665   MPKI: 9.74294
ITLB LOAD TRANSLATION ACCESS:    8447884  HIT:    7960737  MISS:     487147  HIT %:    94.2335  MISS %:     5.7665   MPKI: 9.74294
ITLB PREFETCH  REQUESTED:          0  ISSUED:          0  USEFUL:          0  USELESS:          0
ITLB USEFUL LOAD PREFETCHES:          0 PREFETCH ISSUED TO LOWER LEVEL:          0  ACCURACY: -nan
ITLB TIMELY PREFETCHES:          0 LATE PREFETCHES: 0 DROPPED PREFETCHES: 0
ITLB PREFETCHES SAME FILL-ORIGIN LEVEL: 0 DIFFERENT FILL-ORIGIN LEVEL: 0
ITLB AVERAGE MISS LATENCY: 9.07768 cycles
ITLB RQ	ACCESS:   10075606	FORWARD:          0	MERGED:    1504208	TO_CACHE:    8571398

DTLB TOTAL     ACCESS:   12577134  HIT:   12100133  MISS:     477001  HIT %:    96.2074  MISS %:     3.7926   MPKI: 9.54002
DTLB LOAD TRANSLATION ACCESS:   12577134  HIT:   12100133  MISS:     477001  HIT %:    96.2074  MISS %:     3.7926   MPKI: 9.54002
DTLB PREFETCH  REQUESTED:          0  ISSUED:          0  USEFUL:          0  USELESS:          0
DTLB USEFUL LOAD PREFETCHES:          0 PREFETCH ISSUED TO LOWER LEVEL:          0  ACCURACY: -nan
DTLB TIMELY PREFETCHES:          0 LATE PREFETCHES: 0 DROPPED PREFETCHES: 0
DTLB PREFETCHES SAME FILL-ORIGIN LEVEL: 0 DIFFERENT FILL-ORIGIN LEVEL: 0
DTLB AVERAGE MISS LATENCY: 9.47454 cycles
DTLB RQ	ACCESS:   15690969	FORWARD:          0	MERGED:    3093475	TO_CACHE:   12597494

STLB TOTAL     ACCESS:    1397578  HIT:    1395342  MISS:       2236  HIT %:      99.84  MISS %:   0.159991   MPKI: 0.04472
STLB LOAD TRANSLATION ACCESS:     964148  HIT:     961912  MISS:       2236  HIT %:    99.7681  MISS %:   0.231915   MPKI: 0.04472
STLB TRANSLATION FROM L1D PREFETCHER ACCESS:     433430  HIT:     433430  MISS:          0  HIT %:        100  MISS %:          0   MPKI: 0
STLB PREFETCH  REQUESTED:          0  ISSUED:          0  USEFUL:          0  USELESS:          0
STLB USEFUL LOAD PREFETCHES:          0 PREFETCH ISSUED TO LOWER LEVEL:          0  ACCURACY: -nan
STLB TIMELY PREFETCHES:          0 LATE PREFETCHES: 0 DROPPED PREFETCHES: 0
STLB PREFETCHES SAME FILL-ORIGIN LEVEL: 0 DIFFERENT FILL-ORIGIN LEVEL: 0
STLB AVERAGE MISS LATENCY: 113.593 cycles
STLB RQ	ACCESS:    1525984	FORWARD:          0	MERGED:     128406	TO_CACHE:    1397578

STLB Hit, L1D data hit: 0
STLB Hit, L2C data hit: 0
STLB Hit, LLC data hit: 0
STLB Hit, LLC data miss: 0
STLB STLB hints to L2: 0
L1D TOTAL     ACCESS:   15698816  HIT:   14502027  MISS:    1196789  HIT %:    92.3766  MISS %:    7.62343   MPKI: 23.9358
L1D LOAD      ACCESS:    8804778  HIT:    8061345  MISS:     743433  HIT %:    91.5565  MISS %:    8.44352   MPKI: 14.8687
L1D RFO       ACCESS:    6392283  HIT:    6095264  MISS:     297019  HIT %:    95.3535  MISS %:    4.64652   MPKI: 5.94038
L1D PREFETCH  ACCESS:     501755  HIT:     345418  MISS:     156337  HIT %:     68.842  MISS %:     31.158   MPKI: 3.12674
L1D PREFETCH  REQUESTED:    1124003  ISSUED:    1123910  USEFUL:      52485  USELESS:     103844
L1D USEFUL LOAD PREFETCHES:      52485 PREFETCH ISSUED TO LOWER LEVEL:     198022  ACCURACY: 26.5046
L1D TIMELY PREFETCHES:      52485 LATE PREFETCHES: 41249 DROPPED PREFETCHES: 0
L1D PREFETCHES SAME FILL-ORIGIN LEVEL: 198022 DIFFERENT FILL-ORIGIN LEVEL: 0
L1D AVERAGE MISS LATENCY: 2.31367e+06 cycles
L1D RQ	ACCESS:   12101470	FORWARD:          0	MERGED:    3150694	TO_CACHE:    8837571
L1D WQ	ACCESS:    6899106	FORWARD:     113443	MERGED:      45708	TO_CACHE:    6853398
L1D PQ	ACCESS:     562074	FORWARD:          0	MERGED:          0	TO_CACHE:     561836

L1D UNIQUE REGIONS ACCESSED: 0
L1D REGIONS CONFLICTS: 0
L1D Cross Page Prefetch Requests: 0
L1D Same Page Prefetch Requests: 666317
L1D ROI Sum of L1D PQ occupancy: 10744573
L1D PREFETCHES PUSHED FROM L2C: 0
L1I TOTAL     ACCESS:    9614356  HIT:    6879845  MISS:    2734511  HIT %:     71.558  MISS %:     28.442   MPKI: 54.6902
L1I LOAD      ACCESS:    9614356  HIT:    6879845  MISS:    2734511  HIT %:     71.558  MISS %:     28.442   MPKI: 54.6902
L1I PREFETCH  REQUESTED:          0  ISSUED:          0  USEFUL:          0  USELESS:          0
L1I USEFUL LOAD PREFETCHES:          0 PREFETCH ISSUED TO LOWER LEVEL:          0  ACCURACY: -nan
L1I TIMELY PREFETCHES:          0 LATE PREFETCHES: 0 DROPPED PREFETCHES: 0
L1I PREFETCHES SAME FILL-ORIGIN LEVEL: 0 DIFFERENT FILL-ORIGIN LEVEL: 0
L1I AVERAGE MISS LATENCY: 18.9709 cycles
L1I RQ	ACCESS:   13821127	FORWARD:          0	MERGED:    3745521	TO_CACHE:   10075606

BTB TOTAL     ACCESS:    5982230  HIT:    3991090  MISS:    1991140  HIT %:    66.7158  MISS %:    33.2842   MPKI: 39.8228
BTB BRANCH_DIRECT_JUMP	ACCESS:     522633  HIT:     348042  MISS:     174591
BTB BRANCH_INDIRECT	ACCESS:     204723  HIT:     167232  MISS:      37491
BTB BRANCH_CONDITIONAL	ACCESS:    3049093  HIT:    2491585  MISS:     557508
BTB BRANCH_DIRECT_CALL	ACCESS:     929734  HIT:     525672  MISS:     404062
BTB BRANCH_INDIRECT_CALL	ACCESS:     173167  HIT:      95072  MISS:      78095
BTB BRANCH_RETURN	ACCESS:    1102880  HIT:     363487  MISS:     739393
BTB BRANCH_OTHER ACCESS:          0  HIT:          0  MISS:          0

L2C TOTAL     ACCESS:    5050012  HIT:    4219629  MISS:     830383  HIT %:    83.5568  MISS %:    16.4432   MPKI: 16.6077
L2C LOAD      ACCESS:    3436686  HIT:    2874866  MISS:     561820  HIT %:    83.6523  MISS %:    16.3477   MPKI: 11.2364
L2C DATA LOAD MPKI: 2.49994
L2C INSTRUCTION LOAD MPKI: 8.73646
L2C RFO       ACCESS:     296583  HIT:     196082  MISS:     100501  HIT %:    66.1137  MISS %:    33.8863   MPKI: 2.01002
L2C PREFETCH  ACCESS:     785672  HIT:     626243  MISS:     159429  HIT %:    79.7079  MISS %:    20.2921   MPKI: 3.18858
L2C DATA PREFETCH MPKI: 3.18858
L2C INSTRUCTION PREFETCH MPKI: 0
L2C WRITEBACK ACCESS:     528684  HIT:     521687  MISS:       6997  HIT %:    98.6765  MISS %:    1.32347   MPKI: 0.13994
L2C LOAD TRANSLATION ACCESS:       2387  HIT:        751  MISS:       1636  HIT %:    31.4621  MISS %:    68.5379   MPKI: 0.03272
L2C PREFETCH  REQUESTED:     603888  ISSUED:     603888  USEFUL:      31451  USELESS:     127922
L2C USEFUL LOAD PREFETCHES:      31451 PREFETCH ISSUED TO LOWER LEVEL:     162214  ACCURACY: 19.3886
L2C TIMELY PREFETCHES:      31451 LATE PREFETCHES: 2785 DROPPED PREFETCHES: 0
L2C PREFETCHES SAME FILL-ORIGIN LEVEL: 98807 DIFFERENT FILL-ORIGIN LEVEL: 0
L2C AVERAGE MISS LATENCY: 75.522 cycles
L2C RQ	ACCESS:    3735665	FORWARD:          0	MERGED:          0	TO_CACHE:    3735656
L2C WQ	ACCESS:     528684	FORWARD:         11	MERGED:          0	TO_CACHE:     528684
L2C PQ	ACCESS:     801910	FORWARD:          0	MERGED:       5686	TO_CACHE:     796222

L2C Instructions Evicting Data 187224
L2C Translations Evicting Data 1193
L2C Data Evicting Data 201378
L2C Instructions Evicting Instructions 249106
L2C Translations Evicting Instructions 401
L2C Data Evicting Instructions 182428
L2C Instructions Evicting Translations 492
L2C Translations Evicting Translations 42
L2C Data Evicting Translations 1103
L2C Dense regions hint from L2: 0
PSCL5 TOTAL     ACCESS:       2236  HIT:       2236  MISS:          0  HIT %:        100  MISS %:          0   MPKI: 0
PSCL5 LOAD TRANSLATION ACCESS:       2236  HIT:       2236  MISS:          0  HIT %:        100  MISS %:          0   MPKI: 0
PSCL5 PREFETCH  REQUESTED:          0  ISSUED:          0  USEFUL:          0  USELESS:          0
PSCL5 USEFUL LOAD PREFETCHES:          0 PREFETCH ISSUED TO LOWER LEVEL:          0  ACCURACY: -nan
PSCL5 TIMELY PREFETCHES:          0 LATE PREFETCHES: 0 DROPPED PREFETCHES: 0
PSCL5 PREFETCHES SAME FILL-ORIGIN LEVEL: 0 DIFFERENT FILL-ORIGIN LEVEL: 0

PSCL4 TOTAL     ACCESS:       2081  HIT:       2069  MISS:         12  HIT %:    99.4234  MISS %:   0.576646   MPKI: 0.00024
PSCL4 LOAD TRANSLATION ACCESS:       2081  HIT:       2069  MISS:         12  HIT %:    99.4234  MISS %:   0.576646   MPKI: 0.00024
PSCL4 PREFETCH  REQUESTED:          0  ISSUED:          0  USEFUL:          0  USELESS:          0
PSCL4 USEFUL LOAD PREFETCHES:          0 PREFETCH ISSUED TO LOWER LEVEL:          0  ACCURACY: -nan
PSCL4 TIMELY PREFETCHES:          0 LATE PREFETCHES: 0 DROPPED PREFETCHES: 0
PSCL4 PREFETCHES SAME FILL-ORIGIN LEVEL: 0 DIFFERENT FILL-ORIGIN LEVEL: 0

PSCL3 TOTAL     ACCESS:       2120  HIT:       2107  MISS:         13  HIT %:    99.3868  MISS %:   0.613208   MPKI: 0.00026
PSCL3 LOAD TRANSLATION ACCESS:       2120  HIT:       2107  MISS:         13  HIT %:    99.3868  MISS %:   0.613208   MPKI: 0.00026
PSCL3 PREFETCH  REQUESTED:          0  ISSUED:          0  USEFUL:          0  USELESS:          0
PSCL3 USEFUL LOAD PREFETCHES:          0 PREFETCH ISSUED TO LOWER LEVEL:          0  ACCURACY: -nan
PSCL3 TIMELY PREFETCHES:          0 LATE PREFETCHES: 0 DROPPED PREFETCHES: 0
PSCL3 PREFETCHES SAME FILL-ORIGIN LEVEL: 0 DIFFERENT FILL-ORIGIN LEVEL: 0

PSCL2 TOTAL     ACCESS:       2236  HIT:       2101  MISS:        135  HIT %:    93.9624  MISS %:    6.03757   MPKI: 0.0027
PSCL2 LOAD TRANSLATION ACCESS:       2236  HIT:       2101  MISS:        135  HIT %:    93.9624  MISS %:    6.03757   MPKI: 0.0027
PSCL2 PREFETCH  REQUESTED:          0  ISSUED:          0  USEFUL:          0  USELESS:          0
PSCL2 USEFUL LOAD PREFETCHES:          0 PREFETCH ISSUED TO LOWER LEVEL:          0  ACCURACY: -nan
PSCL2 TIMELY PREFETCHES:          0 LATE PREFETCHES: 0 DROPPED PREFETCHES: 0
PSCL2 PREFETCHES SAME FILL-ORIGIN LEVEL: 0 DIFFERENT FILL-ORIGIN LEVEL: 0

LLC TOTAL     ACCESS:     985345  HIT:     952933  MISS:      32412  HIT %:    96.7106  MISS %:    3.28941   MPKI: 0.64824
LLC LOAD      ACCESS:     559170  HIT:     554444  MISS:       4726  HIT %:    99.1548  MISS %:   0.845181   MPKI: 0.09452
LLC RFO       ACCESS:     100363  HIT:      84803  MISS:      15560  HIT %:    84.4963  MISS %:    15.5037   MPKI: 0.3112
LLC PREFETCH  ACCESS:     162214  HIT:     150356  MISS:      11858  HIT %:    92.6899  MISS %:     7.3101   MPKI: 0.23716
LLC WRITEBACK ACCESS:     161962  HIT:     161878  MISS:         84  HIT %:    99.9481  MISS %:   0.051864   MPKI: 0.00168
LLC LOAD TRANSLATION ACCESS:       1636  HIT:       1452  MISS:        184  HIT %:    88.7531  MISS %:    11.2469   MPKI: 0.00368
LLC PREFETCH  REQUESTED:          0  ISSUED:          0  USEFUL:        949  USELESS:       6482
LLC USEFUL LOAD PREFETCHES:        949 PREFETCH ISSUED TO LOWER LEVEL:      11858  ACCURACY: 8.00304
LLC TIMELY PREFETCHES:        949 LATE PREFETCHES: 0 DROPPED PREFETCHES: 0
LLC PREFETCHES SAME FILL-ORIGIN LEVEL: 0 DIFFERENT FILL-ORIGIN LEVEL: 0
LLC AVERAGE MISS LATENCY: 1175.07 cycles
LLC RQ	ACCESS:     661172	FORWARD:          0	MERGED:          0	TO_CACHE:     661169
LLC WQ	ACCESS:     161962	FORWARD:          3	MERGED:          0	TO_CACHE:     161962
LLC PQ	ACCESS:     162214	FORWARD:          0	MERGED:          0	TO_CACHE:     162214

LLC Dense regions hint to LLC: 0

RAW hits: 516033
Loads Generated: 12617505
Loads sent to L1D: 12101470
Stores Generated: 6899109
Stores sent to L1D: 6899106
Major fault: 0 Minor fault: 2264
Allocated PAGES: 2264

stream: 
stream:times selected: 1047920
stream:pref_filled: 102515
stream:pref_useful: 19468
stream:pref_late: 33518
stream:misses: 6991
stream:misses_by_poll: 0

CS: 
CS:times selected: 140487
CS:pref_filled: 56985
CS:pref_useful: 38697
CS:pref_late: 5156
CS:misses: 13453
CS:misses_by_poll: 5

CPLX: 
CPLX:times selected: 905663
CPLX:pref_filled: 24395
CPLX:pref_useful: 5417
CPLX:pref_late: 2602
CPLX:misses: 88933
CPLX:misses_by_poll: 1

NL_L1: 
NL:times selected: 6191
NL:pref_filled: 542
NL:pref_useful: 62
NL:pref_late: 18
NL:misses: 348
NL:misses_by_poll: 0

total selections: 2100261
total_filled: 156337
total_useful: 52485
total_late: 42859
total_polluted: 6
total_misses_after_warmup: 776224
conflicts: 3241345
Degree Incremented Times: 0
Degree Decremented Times: 165499

L1 IP Table Write Accesses: 5301873
L1 IP Table Read Accesses: 2060528
L1 RST Write Accesses: 884877
L1 RST Read Accesses: 1769754
L1 CSPT Write Accesses: 884877
L1 CSPT Read Accesses: 1648370
L1 RR Filter Tag Write Accesses: 562167
L1 RR Filter Tag Read Accesses: 40159269
L1 IP Table Tag Write Accesses: 8837569
L1 IP Table Tag Read Accesses: 8837569
L1 RST Tag Write Accesses: 0
L1 RST Tag Read Accesses: 7584393
L1 RR Filter Write Accesses: 0
L1 RR Filter Read Accesses: 1471979
test: 146261
L2 IP Table Read Accesses: 1178335
L2 IP Table Write Accesses: 1611081
L2 IP Table Tag Read Accesses: 894794
L2 IP Table Tag Write Accesses: 894794

DRAM Statistics
 CHANNEL 0
 RQ ROW_BUFFER_HIT:      17376  ROW_BUFFER_MISS:      14942
 DBUS_CONGESTED:      33702
 WQ ROW_BUFFER_HIT:        623  ROW_BUFFER_MISS:       6135  FULL:          0

 AVG_CONGESTED_CYCLE: 144
 All warmup complete: 2
Channel 0 Bank busy for read cycles: 0
Channel 0 Bank busy for write cycles: 0
Channel 0
Rank 0
0banks busy for read cycles: 121318991
0banks busy for write cycles: 1805
1banks busy for read cycles: 1149886
1banks busy for write cycles: 340880
2banks busy for read cycles: 692737
2banks busy for write cycles: 170021
3banks busy for read cycles: 416819
3banks busy for write cycles: 124371
4banks busy for read cycles: 359234
4banks busy for write cycles: 90046
5banks busy for read cycles: 225731
5banks busy for write cycles: 80341
6banks busy for read cycles: 155568
6banks busy for write cycles: 89036
7banks busy for read cycles: 177032
7banks busy for write cycles: 89782
8banks busy for read cycles: 1801618
8banks busy for write cycles: 220636

CPU 0 Branch Prediction Accuracy: 91.6417% MPKI: 15.2922 Average ROB Occupancy at Mispredict: 17.4393
Branch types
NOT_BRANCH: 40851762 81.7035%
BRANCH_DIRECT_JUMP: 522633 1.04527%
BRANCH_INDIRECT: 204723 0.409446%
BRANCH_CONDITIONAL: 6214815 12.4296%
BRANCH_DIRECT_CALL: 929734 1.85947%
BRANCH_INDIRECT_CALL: 173167 0.346334%
BRANCH_RETURN: 1102880 2.20576%
BRANCH_OTHER: 0 0%

@sumon_overall_L1D     52485     41249    103844    156337   1123910   1124003
@Sumon_Early_by_class_L1D     15030     32460      3947        11
@Sumon_Late_by_class_L1D     32652      4935      2251        11

@Sumon_Early_by_cycle_L1D     38593      2444      2013      1027       258      1297       916      1531      1110      2457       720       119
@Sumon_Late_by_cycle_L1D     37223      2849       499       108       142       335        93         0         0         0         0         0
@Sumon_Early_stream_L1D      6121      1520       970       750       171       887       557       993       776      1602       574       109
@Sumon_Early_CS_L1D     30269       711       839       180        35        89        20       277         6        32         2         0
@Sumon_Early_CPLX_L1D      2048       157       149        68        45       319       234       250       197       329       141        10
@Sumon_Late_stream_L1D     31785       622       193        34        12         5         1         0         0         0         0         0
@Sumon_Late_CS_L1D      1863      2156       300        69       130       325        92         0         0         0         0         0
@Sumon_Late_CPLX_L1D      2203        38         4         3         0         3         0         0         0         0         0         0
@sumon_overall_L2C     31451      2785    127922    159429    603888    603888
@Sumon_Early_by_class_L2C      2228       225       484         0
@Sumon_Late_by_class_L2C         0         0         0         0

@Sumon_Early_by_cycle_L2C      5167      2713      2478      2051       869      3885      2807      1909      1050      1646      1075      5801
@Sumon_Late_by_cycle_L2C      2123       619        42         0         1         0         0         0         0         0         0         0
@Sumon_Early_stream_L2C         0         0         0         0         0         0         0         0         0        13       322      1893
@Sumon_Early_CS_L2C         0         0         0         0         0         0         0         0         0         0         1       224
@Sumon_Early_CPLX_L2C         0         0         0         0         0         0         0         0         0         1        84       399
@Sumon_Late_stream_L2C         0         0         0         0         0         0         0         0         0         0         0         0
@Sumon_Late_CS_L2C         0         0         0         0         0         0         0         0         0         0         0         0
@Sumon_Late_CPLX_L2C         0         0         0         0         0         0         0         0         0         0         0         0
DRAM PAGES: 1048576
Allocated PAGES: 2264
