Initialize SIGNATURE TABLE
ST_SET: 1
ST_WAY: 256
ST_TAG_BIT: 16
ST_TAG_MASK: ffff

Initialize PATTERN TABLE
PT_SET: 512
PT_WAY: 4
SIG_DELTA_BIT: 7
C_SIG_BIT: 4
C_DELTA_BIT: 4

Initialize PREFETCH FILTER
FILTER_SET: 1024

*** ChampSim Multicore Out-of-Order Simulator ***

Warmup Instructions: 50000000
Simulation Instructions: 50000000
Number of CPUs: 1
LLC sets: 2048
LLC ways: 16
Off-chip DRAM Size: 4096 MB Channels: 1 Width: 64-bit Data Rate: 6400 MT/s
CPU 0 runs ../../biswa/SPEC2017Traces/619.lbm_s-4268B.champsimtrace.xz
.xz
CPU 0 Bimodal branch predictor
BTB has LRU replacement policy
ITLB has LRU replacement policy
DTLB has LRU replacement policy
STLB has LRU replacement policy
L1I has LRU replacement policy
L1D has LRU replacement policy
ST_WAYS: 256
PT_SETS: 512
Initialize DRRIP state for L2C
LLC has LRU replacement policy
Heartbeat CPU 0 instructions: 10000000 cycles: 2913589 heartbeat IPC: 3.43219 cumulative IPC: 3.43219 (Simulation time: 0 hr 2 min 46 sec) 
Heartbeat CPU 0 instructions: 20000001 cycles: 5825450 heartbeat IPC: 3.43423 cumulative IPC: 3.43321 (Simulation time: 0 hr 5 min 39 sec) 
Heartbeat CPU 0 instructions: 30000000 cycles: 8733423 heartbeat IPC: 3.43882 cumulative IPC: 3.43508 (Simulation time: 0 hr 8 min 37 sec) 
Heartbeat CPU 0 instructions: 40000000 cycles: 11648022 heartbeat IPC: 3.431 cumulative IPC: 3.43406 (Simulation time: 0 hr 11 min 27 sec) 
Heartbeat CPU 0 instructions: 50000002 cycles: 14563563 heartbeat IPC: 3.4299 cumulative IPC: 3.43323 (Simulation time: 0 hr 14 min 7 sec) 

Warmup complete CPU 0 instructions: 50000002 cycles: 14563563 (Simulation time: 0 hr 14 min 7 sec) 

Heartbeat CPU 0 instructions: 60000001 cycles: 34787262 heartbeat IPC: 0.494469 cumulative IPC: 0.494469 (Simulation time: 0 hr 18 min 50 sec) 
Heartbeat CPU 0 instructions: 70000001 cycles: 54671893 heartbeat IPC: 0.502901 cumulative IPC: 0.49865 (Simulation time: 0 hr 23 min 12 sec) 
Heartbeat CPU 0 instructions: 80000000 cycles: 74319886 heartbeat IPC: 0.508958 cumulative IPC: 0.502039 (Simulation time: 0 hr 26 min 7 sec) 
Heartbeat CPU 0 instructions: 90000001 cycles: 94189561 heartbeat IPC: 0.50328 cumulative IPC: 0.502348 (Simulation time: 0 hr 27 min 32 sec) 
Heartbeat CPU 0 instructions: 100000001 cycles: 113723134 heartbeat IPC: 0.511939 cumulative IPC: 0.504238 (Simulation time: 0 hr 28 min 39 sec) 
Finished CPU 0 instructions: 50000002 cycles: 99159572 cumulative IPC: 0.504238 (Simulation time: 0 hr 28 min 39 sec) 

ChampSim completed all CPUs

Region of Interest Statistics

CPU 0 cumulative IPC: 0.504238 instructions: 50000002 cycles: 99159572
ITLB TOTAL     ACCESS:    6712596  HIT:    6712596  MISS:          0  HIT %:        100  MISS %:          0   MPKI: 0
ITLB LOAD TRANSLATION ACCESS:    6712596  HIT:    6712596  MISS:          0  HIT %:        100  MISS %:          0   MPKI: 0
ITLB PREFETCH  REQUESTED:          0  ISSUED:          0  USEFUL:          0  USELESS:          0
ITLB USEFUL LOAD PREFETCHES:          0 PREFETCH ISSUED TO LOWER LEVEL:          0  ACCURACY: -nan
ITLB TIMELY PREFETCHES:          0 LATE PREFETCHES: 0 DROPPED PREFETCHES: 0
ITLB PREFETCHES SAME FILL-ORIGIN LEVEL: 0 DIFFERENT FILL-ORIGIN LEVEL: 0
ITLB AVERAGE MISS LATENCY: -nan cycles
ITLB RQ	ACCESS:    8670301	FORWARD:          0	MERGED:    1957705	TO_CACHE:    6712596

Revised Interactions: positive negative neutral
ITLB_interactions 0 0 0 -nan -nan -nan
ITLB_positive -nan -nan -nan
ITLB_negative -nan -nan -nan
ITLB_neutral -nan -nan -nan
DTLB TOTAL     ACCESS:    9599005  HIT:    9530579  MISS:      68426  HIT %:    99.2872  MISS %:   0.712845   MPKI: 1.36852
DTLB LOAD TRANSLATION ACCESS:    9599005  HIT:    9530579  MISS:      68426  HIT %:    99.2872  MISS %:   0.712845   MPKI: 1.36852
DTLB PREFETCH  REQUESTED:          0  ISSUED:          0  USEFUL:          0  USELESS:          0
DTLB USEFUL LOAD PREFETCHES:          0 PREFETCH ISSUED TO LOWER LEVEL:          0  ACCURACY: -nan
DTLB TIMELY PREFETCHES:          0 LATE PREFETCHES: 0 DROPPED PREFETCHES: 0
DTLB PREFETCHES SAME FILL-ORIGIN LEVEL: 0 DIFFERENT FILL-ORIGIN LEVEL: 0
DTLB AVERAGE MISS LATENCY: 111.199 cycles
DTLB RQ	ACCESS:   14150923	FORWARD:          0	MERGED:    4525152	TO_CACHE:    9625771

Revised Interactions: positive negative neutral
DTLB_interactions 0 0 0 -nan -nan -nan
DTLB_positive -nan -nan -nan
DTLB_negative -nan -nan -nan
DTLB_neutral -nan -nan -nan
STLB TOTAL     ACCESS:      68426  HIT:      31298  MISS:      37128  HIT %:    45.7399  MISS %:    54.2601   MPKI: 0.74256
STLB LOAD TRANSLATION ACCESS:      68426  HIT:      31298  MISS:      37128  HIT %:    45.7399  MISS %:    54.2601   MPKI: 0.74256
STLB PREFETCH  REQUESTED:          0  ISSUED:          0  USEFUL:          0  USELESS:          0
STLB USEFUL LOAD PREFETCHES:          0 PREFETCH ISSUED TO LOWER LEVEL:          0  ACCURACY: -nan
STLB TIMELY PREFETCHES:          0 LATE PREFETCHES: 0 DROPPED PREFETCHES: 0
STLB PREFETCHES SAME FILL-ORIGIN LEVEL: 0 DIFFERENT FILL-ORIGIN LEVEL: 0
STLB AVERAGE MISS LATENCY: 186.572 cycles
STLB RQ	ACCESS:      68426	FORWARD:          0	MERGED:          0	TO_CACHE:      68426

Revised Interactions: positive negative neutral
STLB_interactions 0 0 0 -nan -nan -nan
STLB_positive -nan -nan -nan
STLB_negative -nan -nan -nan
STLB_neutral -nan -nan -nan
STLB Hit, L1D data hit: 0
STLB Hit, L2C data hit: 0
STLB Hit, LLC data hit: 0
STLB Hit, LLC data miss: 0
STLB STLB hints to L2: 0
L1D TOTAL     ACCESS:   13941933  HIT:   10022213  MISS:    3919720  HIT %:    71.8854  MISS %:    28.1146   MPKI: 78.3944
L1D LOAD      ACCESS:    4891208  HIT:    4297224  MISS:     593984  HIT %:    87.8561  MISS %:    12.1439   MPKI: 11.8797
L1D RFO       ACCESS:    9050725  HIT:    5724989  MISS:    3325736  HIT %:    63.2545  MISS %:    36.7455   MPKI: 66.5147
L1D PREFETCH  REQUESTED:          0  ISSUED:          0  USEFUL:          0  USELESS:          0
L1D USEFUL LOAD PREFETCHES:          0 PREFETCH ISSUED TO LOWER LEVEL:          0  ACCURACY: -nan
L1D TIMELY PREFETCHES:          0 LATE PREFETCHES: 0 DROPPED PREFETCHES: 0
L1D PREFETCHES SAME FILL-ORIGIN LEVEL: 0 DIFFERENT FILL-ORIGIN LEVEL: 0
L1D AVERAGE MISS LATENCY: 318.73 cycles
L1D RQ	ACCESS:   12202374	FORWARD:          0	MERGED:    6597915	TO_CACHE:    5052577
L1D WQ	ACCESS:    9208484	FORWARD:     551882	MERGED:     110138	TO_CACHE:    9098346

Revised Interactions: positive negative neutral
L1D_interactions 0 0 0 -nan -nan -nan
L1D_positive -nan -nan -nan
L1D_negative -nan -nan -nan
L1D_neutral -nan -nan -nan
L1D UNIQUE REGIONS ACCESSED: 0
L1D REGIONS CONFLICTS: 0
L1D Cross Page Prefetch Requests: 0
L1D Same Page Prefetch Requests: 0
L1D ROI Sum of L1D PQ occupancy: 0
L1D PREFETCHES PUSHED FROM L2C: 0
L1I TOTAL     ACCESS:    8670301  HIT:    8670301  MISS:          0  HIT %:        100  MISS %:          0   MPKI: 0
L1I LOAD      ACCESS:    8670301  HIT:    8670301  MISS:          0  HIT %:        100  MISS %:          0   MPKI: 0
L1I PREFETCH  REQUESTED:          0  ISSUED:          0  USEFUL:          0  USELESS:          0
L1I USEFUL LOAD PREFETCHES:          0 PREFETCH ISSUED TO LOWER LEVEL:          0  ACCURACY: -nan
L1I TIMELY PREFETCHES:          0 LATE PREFETCHES: 0 DROPPED PREFETCHES: 0
L1I PREFETCHES SAME FILL-ORIGIN LEVEL: 0 DIFFERENT FILL-ORIGIN LEVEL: 0
L1I AVERAGE MISS LATENCY: -nan cycles
L1I RQ	ACCESS:   12463882	FORWARD:          0	MERGED:    3793581	TO_CACHE:    8670301

Revised Interactions: positive negative neutral
L1I_interactions 0 0 0 -nan -nan -nan
L1I_positive -nan -nan -nan
L1I_negative -nan -nan -nan
L1I_neutral -nan -nan -nan
BTB TOTAL     ACCESS:     896748  HIT:     896742  MISS:          6  HIT %:    99.9993  MISS %: 0.000669084   MPKI: 0.00012
BTB BRANCH_DIRECT_JUMP	ACCESS:     145480  HIT:     145479  MISS:          1
BTB BRANCH_INDIRECT	ACCESS:          0  HIT:          0  MISS:          0
BTB BRANCH_CONDITIONAL	ACCESS:     751268  HIT:     751263  MISS:          5
BTB BRANCH_DIRECT_CALL	ACCESS:          0  HIT:          0  MISS:          0
BTB BRANCH_INDIRECT_CALL	ACCESS:          0  HIT:          0  MISS:          0
BTB BRANCH_RETURN	ACCESS:          0  HIT:          0  MISS:          0
BTB BRANCH_OTHER ACCESS:          0  HIT:          0  MISS:          0

L2C TOTAL     ACCESS:    7384455  HIT:    4836720  MISS:    2547735  HIT %:    65.4987  MISS %:    34.5013   MPKI: 50.9547
L2C LOAD      ACCESS:     593984  HIT:     100263  MISS:     493721  HIT %:    16.8797  MISS %:    83.1203   MPKI: 9.87442
L2C DATA LOAD MPKI: 9.87442
L2C INSTRUCTION LOAD MPKI: 0
L2C RFO       ACCESS:    3325731  HIT:    1471780  MISS:    1853951  HIT %:    44.2543  MISS %:    55.7457   MPKI: 37.079
L2C PREFETCH  ACCESS:     101870  HIT:       1627  MISS:     100243  HIT %:    1.59713  MISS %:    98.4029   MPKI: 2.00486
L2C DATA PREFETCH MPKI: 2.00486
L2C INSTRUCTION PREFETCH MPKI: 0
L2C WRITEBACK ACCESS:    3325740  HIT:    3230794  MISS:      94946  HIT %:    97.1451  MISS %:    2.85488   MPKI: 1.89892
L2C LOAD TRANSLATION ACCESS:      37130  HIT:      32256  MISS:       4874  HIT %:    86.8731  MISS %:    13.1269   MPKI: 0.09748
L2C PREFETCH  REQUESTED:    3665280  ISSUED:    3665280  USEFUL:     100230  USELESS:         14
L2C USEFUL LOAD PREFETCHES:     100230 PREFETCH ISSUED TO LOWER LEVEL:    2007940  ACCURACY: 4.99168
L2C TIMELY PREFETCHES:     100230 LATE PREFETCHES: 80423 DROPPED PREFETCHES: 0
L2C PREFETCHES SAME FILL-ORIGIN LEVEL: 180666 DIFFERENT FILL-ORIGIN LEVEL: 1827274
L2C AVERAGE MISS LATENCY: 470.797 cycles
L2C RQ	ACCESS:    3956863	FORWARD:          0	MERGED:          0	TO_CACHE:    3956858
L2C WQ	ACCESS:    3325740	FORWARD:          5	MERGED:          0	TO_CACHE:    3325740
L2C PQ	ACCESS:    3665280	FORWARD:          0	MERGED:    1440577	TO_CACHE:    2224703

Revised Interactions: positive negative neutral
L2C_interactions 99543 13 687 99.3017 0.0129685 0.685335
L2C_positive 0 100 0
L2C_negative 46.1538 0 53.8462
L2C_neutral 1.01892 98.9811 0
L2C Instructions Evicting Data 0
L2C Translations Evicting Data 4869
L2C Data Evicting Data 2443302
L2C Instructions Evicting Instructions 0
L2C Translations Evicting Instructions 0
L2C Data Evicting Instructions 0
L2C Instructions Evicting Translations 0
L2C Translations Evicting Translations 5
L2C Data Evicting Translations 4613
L2C Dense regions hint from L2: 0
PSCL5 TOTAL     ACCESS:      37128  HIT:      37128  MISS:          0  HIT %:        100  MISS %:          0   MPKI: 0
PSCL5 LOAD TRANSLATION ACCESS:      37128  HIT:      37128  MISS:          0  HIT %:        100  MISS %:          0   MPKI: 0
PSCL5 PREFETCH  REQUESTED:          0  ISSUED:          0  USEFUL:          0  USELESS:          0
PSCL5 USEFUL LOAD PREFETCHES:          0 PREFETCH ISSUED TO LOWER LEVEL:          0  ACCURACY: -nan
PSCL5 TIMELY PREFETCHES:          0 LATE PREFETCHES: 0 DROPPED PREFETCHES: 0
PSCL5 PREFETCHES SAME FILL-ORIGIN LEVEL: 0 DIFFERENT FILL-ORIGIN LEVEL: 0

Revised Interactions: positive negative neutral
PSCL5_interactions 0 0 0 -nan -nan -nan
PSCL5_positive -nan -nan -nan
PSCL5_negative -nan -nan -nan
PSCL5_neutral -nan -nan -nan
PSCL4 TOTAL     ACCESS:      37128  HIT:      37128  MISS:          0  HIT %:        100  MISS %:          0   MPKI: 0
PSCL4 LOAD TRANSLATION ACCESS:      37128  HIT:      37128  MISS:          0  HIT %:        100  MISS %:          0   MPKI: 0
PSCL4 PREFETCH  REQUESTED:          0  ISSUED:          0  USEFUL:          0  USELESS:          0
PSCL4 USEFUL LOAD PREFETCHES:          0 PREFETCH ISSUED TO LOWER LEVEL:          0  ACCURACY: -nan
PSCL4 TIMELY PREFETCHES:          0 LATE PREFETCHES: 0 DROPPED PREFETCHES: 0
PSCL4 PREFETCHES SAME FILL-ORIGIN LEVEL: 0 DIFFERENT FILL-ORIGIN LEVEL: 0

Revised Interactions: positive negative neutral
PSCL4_interactions 0 0 0 -nan -nan -nan
PSCL4_positive -nan -nan -nan
PSCL4_negative -nan -nan -nan
PSCL4_neutral -nan -nan -nan
PSCL3 TOTAL     ACCESS:      37128  HIT:      37128  MISS:          0  HIT %:        100  MISS %:          0   MPKI: 0
PSCL3 LOAD TRANSLATION ACCESS:      37128  HIT:      37128  MISS:          0  HIT %:        100  MISS %:          0   MPKI: 0
PSCL3 PREFETCH  REQUESTED:          0  ISSUED:          0  USEFUL:          0  USELESS:          0
PSCL3 USEFUL LOAD PREFETCHES:          0 PREFETCH ISSUED TO LOWER LEVEL:          0  ACCURACY: -nan
PSCL3 TIMELY PREFETCHES:          0 LATE PREFETCHES: 0 DROPPED PREFETCHES: 0
PSCL3 PREFETCHES SAME FILL-ORIGIN LEVEL: 0 DIFFERENT FILL-ORIGIN LEVEL: 0

Revised Interactions: positive negative neutral
PSCL3_interactions 0 0 0 -nan -nan -nan
PSCL3_positive -nan -nan -nan
PSCL3_negative -nan -nan -nan
PSCL3_neutral -nan -nan -nan
PSCL2 TOTAL     ACCESS:      37128  HIT:      37090  MISS:         38  HIT %:    99.8977  MISS %:   0.102349   MPKI: 0.00076
PSCL2 LOAD TRANSLATION ACCESS:      37128  HIT:      37090  MISS:         38  HIT %:    99.8977  MISS %:   0.102349   MPKI: 0.00076
PSCL2 PREFETCH  REQUESTED:          0  ISSUED:          0  USEFUL:          0  USELESS:          0
PSCL2 USEFUL LOAD PREFETCHES:          0 PREFETCH ISSUED TO LOWER LEVEL:          0  ACCURACY: -nan
PSCL2 TIMELY PREFETCHES:          0 LATE PREFETCHES: 0 DROPPED PREFETCHES: 0
PSCL2 PREFETCHES SAME FILL-ORIGIN LEVEL: 0 DIFFERENT FILL-ORIGIN LEVEL: 0

Revised Interactions: positive negative neutral
PSCL2_interactions 0 0 0 -nan -nan -nan
PSCL2_positive -nan -nan -nan
PSCL2_negative -nan -nan -nan
PSCL2_neutral -nan -nan -nan
LLC TOTAL     ACCESS:    5273623  HIT:    2893261  MISS:    2380362  HIT %:    54.8629  MISS %:    45.1371   MPKI: 47.6072
LLC LOAD      ACCESS:     413298  HIT:     307241  MISS:     106057  HIT %:    74.3389  MISS %:    25.6611   MPKI: 2.12114
LLC RFO       ACCESS:    1853929  HIT:      72377  MISS:    1781552  HIT %:    3.90398  MISS %:     96.096   MPKI: 35.631
LLC PREFETCH  ACCESS:    1147907  HIT:     659964  MISS:     487943  HIT %:    57.4928  MISS %:    42.5072   MPKI: 9.75886
LLC WRITEBACK ACCESS:    1853615  HIT:    1853495  MISS:        120  HIT %:    99.9935  MISS %: 0.00647384   MPKI: 0.0024
LLC LOAD TRANSLATION ACCESS:       4874  HIT:        184  MISS:       4690  HIT %:    3.77513  MISS %:    96.2249   MPKI: 0.0938
LLC PREFETCH  REQUESTED:          0  ISSUED:          0  USEFUL:     307210  USELESS:     179751
LLC USEFUL LOAD PREFETCHES:     307210 PREFETCH ISSUED TO LOWER LEVEL:     570269  ACCURACY: 53.8711
LLC TIMELY PREFETCHES:     307210 LATE PREFETCHES: 82323 DROPPED PREFETCHES: 0
LLC PREFETCHES SAME FILL-ORIGIN LEVEL: 563077 DIFFERENT FILL-ORIGIN LEVEL: 0
LLC AVERAGE MISS LATENCY: 569.019 cycles
LLC RQ	ACCESS:    2272136	FORWARD:          0	MERGED:          0	TO_CACHE:    2272114
LLC WQ	ACCESS:    1853615	FORWARD:         22	MERGED:          0	TO_CACHE:    1853615
LLC PQ	ACCESS:    2007940	FORWARD:          0	MERGED:     219280	TO_CACHE:    1788660

Revised Interactions: positive negative neutral
LLC_interactions 307143 180704 142694 48.711 28.6586 22.6304
LLC_positive 0.00195349 92.4866 7.51148
LLC_negative 0 7.71538 92.2846
LLC_neutral 99.9993 0.0007008 0
LLC Dense regions hint to LLC: 0

RAW hits: 834053
Loads Generated: 13036429
Loads sent to L1D: 12202374
Stores Generated: 9208465
Stores sent to L1D: 9208484
Major fault: 0 Minor fault: 40146
Allocated PAGES: 40146
 All Calls: 1181387
 Critical Calls: 1181387
------------------
Depth Distribution
------------------
depth 0: 0
depth 1: 1231407
depth 2: 1204113
depth 3: 1161223
depth 4: 1113918
depth 5: 1050909
depth 6: 852759
depth 7: 655760
depth 8: 486452
depth 9: 265564
depth 10: 61262
depth 11: 6943
depth 12: 847
depth 13: 113
depth 14: 2
depth 15: 0
depth 16: 0
depth 17: 0
depth 18: 0
depth 19: 0
depth 20: 0
depth 21: 0
depth 22: 0
depth 23: 0
depth 24: 0
depth 25: 0
depth 26: 0
depth 27: 0
depth 28: 0
depth 29: 0
Total: 8091272
-----------------------------
-----------------------------
	Captured at Filter
-----------------------------
depth 0: 0
depth 1: 7089
depth 2: 5047
depth 3: 2959
depth 4: 2113
depth 5: 1987
depth 6: 1678
depth 7: 1341
depth 8: 1025
depth 9: 571
depth 10: 138
depth 11: 15
depth 12: 2
depth 13: 0
depth 14: 0
depth 15: 0
depth 16: 0
depth 17: 0
depth 18: 0
depth 19: 0
depth 20: 0
depth 21: 0
depth 22: 0
depth 23: 0
depth 24: 0
depth 25: 0
depth 26: 0
depth 27: 0
depth 28: 0
depth 29: 0
-----------------------------
-----------------------------
		Lost at Page
-----------------------------
depth 0: 0
depth 1: 37424
depth 2: 35727
depth 3: 51214
depth 4: 67353
depth 5: 82886
depth 6: 84023
depth 7: 79471
depth 8: 75185
depth 9: 54754
depth 10: 16257
depth 11: 2322
depth 12: 329
depth 13: 33
depth 14: 0
depth 15: 0
depth 16: 0
depth 17: 0
depth 18: 0
depth 19: 0
depth 20: 0
depth 21: 0
depth 22: 0
depth 23: 0
depth 24: 0
depth 25: 0
depth 26: 0
depth 27: 0
depth 28: 0
depth 29: 0
-----------------------------
-----------------------------
	Lost due to PQ Size
-----------------------------
147412
-----------------------------
ST read accesses: 584693
ST write accesses: 9291
PT read accesses: 21072850
PT write accesses: 875987
FILTER read accesses: 6816131
FILTER write accesses: 3160216
GHR read accesses: 1250477
GHR write accesses: 231147
GHR counter read accesses: 17957148
GHR counter write accesses: 1204883
ST tag read accesses: 232834452
ST tag write accesses: 2970377

DRAM Statistics
 CHANNEL 0
 RQ ROW_BUFFER_HIT:     169173  ROW_BUFFER_MISS:    2211069
 DBUS_CONGESTED:          0
 WQ ROW_BUFFER_HIT:     395104  ROW_BUFFER_MISS:    1388176  FULL:          0

 AVG_CONGESTED_CYCLE: -
 All warmup complete: 2
Channel 0 Bank busy for read cycles: 0
Channel 0 Bank busy for write cycles: 0
Channel 0
Rank 0
0banks busy for read cycles: 10298
0banks busy for write cycles: 0
1banks busy for read cycles: 1041217
1banks busy for write cycles: 173347
2banks busy for read cycles: 1433149
2banks busy for write cycles: 173346
3banks busy for read cycles: 2929873
3banks busy for write cycles: 173343
4banks busy for read cycles: 4156307
4banks busy for write cycles: 173333
5banks busy for read cycles: 7633899
5banks busy for write cycles: 173333
6banks busy for read cycles: 11449659
6banks busy for write cycles: 173436
7banks busy for read cycles: 15347764
7banks busy for write cycles: 1958618
8banks busy for read cycles: 18010444
8banks busy for write cycles: 34148207

CPU 0 Branch Prediction Accuracy: 94.9835% MPKI: 0.8997 Average ROB Occupancy at Mispredict: 164.848
Branch types
NOT_BRANCH: 49102915 98.2058%
BRANCH_DIRECT_JUMP: 145480 0.29096%
BRANCH_INDIRECT: 0 0%
BRANCH_CONDITIONAL: 751268 1.50254%
BRANCH_DIRECT_CALL: 0 0%
BRANCH_INDIRECT_CALL: 0 0%
BRANCH_RETURN: 0 0%
BRANCH_OTHER: 0 0%

@sumon_overall_L1D         0         0         0         0         0         0         0
@Sumon_Early_by_class_L1D         0         0         0         0
@Sumon_Late_by_class_L1D         0         0         0         0

@Sumon_Early_by_cycle_L1D         0         0         0         0         0         0         0         0         0         0         0         0
@Sumon_Late_by_cycle_L1D         0         0         0         0         0         0
@Sumon_Early_stream_L1D         0         0         0         0         0         0         0         0         0         0         0         0
@Sumon_Early_CS_L1D         0         0         0         0         0         0         0         0         0         0         0         0
@Sumon_Early_CPLX_L1D         0         0         0         0         0         0         0         0         0         0         0         0
@Sumon_Late_stream_L1D         0         0         0         0         0         0
@Sumon_Late_CS_L1D         0         0         0         0         0         0
@Sumon_Late_CPLX_L1D         0         0         0         0         0         0
@sumon_overall_L2C    100230     80423         0        14    100243   3665280   3665280
@Sumon_Early_by_class_L2C         0         0         0         0
@Sumon_Late_by_class_L2C         0         0         0         0

@Sumon_Early_by_cycle_L2C     30662     17700     42412      6685      1766      1004         0         0         0         0         1         0
@Sumon_Late_by_cycle_L2C      7546     26454     18363      2016     15738     10306
@Sumon_Early_stream_L2C         0         0         0         0         0         0         0         0         0         0         0         0
@Sumon_Early_CS_L2C         0         0         0         0         0         0         0         0         0         0         0         0
@Sumon_Early_CPLX_L2C         0         0         0         0         0         0         0         0         0         0         0         0
@Sumon_Late_stream_L2C         0         0         0         0         0         0
@Sumon_Late_CS_L2C         0         0         0         0         0         0
@Sumon_Late_CPLX_L2C         0         0         0         0         0         0
DRAM PAGES: 1048576
Allocated PAGES: 40146
