Initialize SIGNATURE TABLE
ST_SET: 1
ST_WAY: 256
ST_TAG_BIT: 16
ST_TAG_MASK: ffff

Initialize PATTERN TABLE
PT_SET: 512
PT_WAY: 4
SIG_DELTA_BIT: 7
C_SIG_BIT: 4
C_DELTA_BIT: 4

Initialize PREFETCH FILTER
FILTER_SET: 1024

*** ChampSim Multicore Out-of-Order Simulator ***

Warmup Instructions: 50000000
Simulation Instructions: 50000000
Number of CPUs: 1
LLC sets: 2048
LLC ways: 16
Off-chip DRAM Size: 4096 MB Channels: 1 Width: 64-bit Data Rate: 6400 MT/s
CPU 0 runs ../../biswa/SPEC2017Traces/649.fotonik3d_s-1176B.champsimtrace.xz
.xz
CPU 0 Bimodal branch predictor
BTB has LRU replacement policy
ITLB has LRU replacement policy
DTLB has LRU replacement policy
STLB has LRU replacement policy
L1I has LRU replacement policy
L1D has LRU replacement policy
ST_WAYS: 256
PT_SETS: 512
Initialize DRRIP state for L2C
LLC has LRU replacement policy
Heartbeat CPU 0 instructions: 10000000 cycles: 2913078 heartbeat IPC: 3.4328 cumulative IPC: 3.4328 (Simulation time: 0 hr 2 min 25 sec) 
Heartbeat CPU 0 instructions: 20000002 cycles: 5826096 heartbeat IPC: 3.43287 cumulative IPC: 3.43283 (Simulation time: 0 hr 4 min 58 sec) 
Heartbeat CPU 0 instructions: 30000001 cycles: 8739042 heartbeat IPC: 3.43295 cumulative IPC: 3.43287 (Simulation time: 0 hr 7 min 32 sec) 
Heartbeat CPU 0 instructions: 40000003 cycles: 11651948 heartbeat IPC: 3.433 cumulative IPC: 3.4329 (Simulation time: 0 hr 9 min 56 sec) 
Heartbeat CPU 0 instructions: 50000001 cycles: 14565012 heartbeat IPC: 3.43281 cumulative IPC: 3.43288 (Simulation time: 0 hr 12 min 25 sec) 

Warmup complete CPU 0 instructions: 50000001 cycles: 14565012 (Simulation time: 0 hr 12 min 25 sec) 

Heartbeat CPU 0 instructions: 60000000 cycles: 24548355 heartbeat IPC: 1.00167 cumulative IPC: 1.00167 (Simulation time: 0 hr 14 min 57 sec) 
Heartbeat CPU 0 instructions: 70000000 cycles: 34532087 heartbeat IPC: 1.00163 cumulative IPC: 1.00165 (Simulation time: 0 hr 17 min 2 sec) 
Heartbeat CPU 0 instructions: 80000002 cycles: 44517235 heartbeat IPC: 1.00149 cumulative IPC: 1.0016 (Simulation time: 0 hr 19 min 18 sec) 
Heartbeat CPU 0 instructions: 90000000 cycles: 54500216 heartbeat IPC: 1.0017 cumulative IPC: 1.00162 (Simulation time: 0 hr 21 min 32 sec) 
Heartbeat CPU 0 instructions: 100000000 cycles: 64484553 heartbeat IPC: 1.00157 cumulative IPC: 1.00161 (Simulation time: 0 hr 23 min 29 sec) 
Finished CPU 0 instructions: 50000003 cycles: 49919542 cumulative IPC: 1.00161 (Simulation time: 0 hr 23 min 29 sec) 

ChampSim completed all CPUs

Region of Interest Statistics

CPU 0 cumulative IPC: 1.00161 instructions: 50000003 cycles: 49919542
ITLB TOTAL     ACCESS:    7017797  HIT:    7017797  MISS:          0  HIT %:        100  MISS %:          0   MPKI: 0
ITLB LOAD TRANSLATION ACCESS:    7017797  HIT:    7017797  MISS:          0  HIT %:        100  MISS %:          0   MPKI: 0
ITLB PREFETCH  REQUESTED:          0  ISSUED:          0  USEFUL:          0  USELESS:          0
ITLB USEFUL LOAD PREFETCHES:          0 PREFETCH ISSUED TO LOWER LEVEL:          0  ACCURACY: -nan
ITLB TIMELY PREFETCHES:          0 LATE PREFETCHES: 0 DROPPED PREFETCHES: 0
ITLB PREFETCHES SAME FILL-ORIGIN LEVEL: 0 DIFFERENT FILL-ORIGIN LEVEL: 0
ITLB AVERAGE MISS LATENCY: -nan cycles
ITLB RQ	ACCESS:    8772863	FORWARD:          0	MERGED:    1755067	TO_CACHE:    7017796

Revised Interactions: positive negative neutral
ITLB_interactions 0 0 0 -nan -nan -nan
ITLB_positive -nan -nan -nan
ITLB_negative -nan -nan -nan
ITLB_neutral -nan -nan -nan
DTLB TOTAL     ACCESS:    7814801  HIT:    7802958  MISS:      11843  HIT %:    99.8485  MISS %:   0.151546   MPKI: 0.23686
DTLB LOAD TRANSLATION ACCESS:    7814801  HIT:    7802958  MISS:      11843  HIT %:    99.8485  MISS %:   0.151546   MPKI: 0.23686
DTLB PREFETCH  REQUESTED:          0  ISSUED:          0  USEFUL:          0  USELESS:          0
DTLB USEFUL LOAD PREFETCHES:          0 PREFETCH ISSUED TO LOWER LEVEL:          0  ACCURACY: -nan
DTLB TIMELY PREFETCHES:          0 LATE PREFETCHES: 0 DROPPED PREFETCHES: 0
DTLB PREFETCHES SAME FILL-ORIGIN LEVEL: 0 DIFFERENT FILL-ORIGIN LEVEL: 0
DTLB AVERAGE MISS LATENCY: 88.3252 cycles
DTLB RQ	ACCESS:   12266178	FORWARD:          0	MERGED:    4450578	TO_CACHE:    7815600

Revised Interactions: positive negative neutral
DTLB_interactions 0 0 0 -nan -nan -nan
DTLB_positive -nan -nan -nan
DTLB_negative -nan -nan -nan
DTLB_neutral -nan -nan -nan
STLB TOTAL     ACCESS:      11843  HIT:       4985  MISS:       6858  HIT %:    42.0924  MISS %:    57.9076   MPKI: 0.13716
STLB LOAD TRANSLATION ACCESS:      11843  HIT:       4985  MISS:       6858  HIT %:    42.0924  MISS %:    57.9076   MPKI: 0.13716
STLB PREFETCH  REQUESTED:          0  ISSUED:          0  USEFUL:          0  USELESS:          0
STLB USEFUL LOAD PREFETCHES:          0 PREFETCH ISSUED TO LOWER LEVEL:          0  ACCURACY: -nan
STLB TIMELY PREFETCHES:          0 LATE PREFETCHES: 0 DROPPED PREFETCHES: 0
STLB PREFETCHES SAME FILL-ORIGIN LEVEL: 0 DIFFERENT FILL-ORIGIN LEVEL: 0
STLB AVERAGE MISS LATENCY: 136.665 cycles
STLB RQ	ACCESS:      11843	FORWARD:          0	MERGED:          0	TO_CACHE:      11843

Revised Interactions: positive negative neutral
STLB_interactions 0 0 0 -nan -nan -nan
STLB_positive -nan -nan -nan
STLB_negative -nan -nan -nan
STLB_neutral -nan -nan -nan
STLB Hit, L1D data hit: 0
STLB Hit, L2C data hit: 0
STLB Hit, LLC data hit: 0
STLB Hit, LLC data miss: 0
STLB STLB hints to L2: 0
L1D TOTAL     ACCESS:   12116350  HIT:   11454674  MISS:     661676  HIT %:     94.539  MISS %:    5.46102   MPKI: 13.2335
L1D LOAD      ACCESS:    8607480  HIT:    7946567  MISS:     660913  HIT %:    92.3216  MISS %:    7.67836   MPKI: 13.2183
L1D RFO       ACCESS:    3508870  HIT:    3508107  MISS:        763  HIT %:    99.9783  MISS %:  0.0217449   MPKI: 0.01526
L1D PREFETCH  REQUESTED:          0  ISSUED:          0  USEFUL:          0  USELESS:          0
L1D USEFUL LOAD PREFETCHES:          0 PREFETCH ISSUED TO LOWER LEVEL:          0  ACCURACY: -nan
L1D TIMELY PREFETCHES:          0 LATE PREFETCHES: 0 DROPPED PREFETCHES: 0
L1D PREFETCHES SAME FILL-ORIGIN LEVEL: 0 DIFFERENT FILL-ORIGIN LEVEL: 0
L1D AVERAGE MISS LATENCY: 24.3895 cycles
L1D RQ	ACCESS:   17541468	FORWARD:          0	MERGED:    8785450	TO_CACHE:    8755910
L1D WQ	ACCESS:    3510268	FORWARD:        108	MERGED:          0	TO_CACHE:    3510268

Revised Interactions: positive negative neutral
L1D_interactions 0 0 0 -nan -nan -nan
L1D_positive -nan -nan -nan
L1D_negative -nan -nan -nan
L1D_neutral -nan -nan -nan
L1D UNIQUE REGIONS ACCESSED: 0
L1D REGIONS CONFLICTS: 0
L1D Cross Page Prefetch Requests: 0
L1D Same Page Prefetch Requests: 0
L1D ROI Sum of L1D PQ occupancy: 0
L1D PREFETCHES PUSHED FROM L2C: 0
L1I TOTAL     ACCESS:    8772863  HIT:    8772863  MISS:          0  HIT %:        100  MISS %:          0   MPKI: 0
L1I LOAD      ACCESS:    8772863  HIT:    8772863  MISS:          0  HIT %:        100  MISS %:          0   MPKI: 0
L1I PREFETCH  REQUESTED:          0  ISSUED:          0  USEFUL:          0  USELESS:          0
L1I USEFUL LOAD PREFETCHES:          0 PREFETCH ISSUED TO LOWER LEVEL:          0  ACCURACY: -nan
L1I TIMELY PREFETCHES:          0 LATE PREFETCHES: 0 DROPPED PREFETCHES: 0
L1I PREFETCHES SAME FILL-ORIGIN LEVEL: 0 DIFFERENT FILL-ORIGIN LEVEL: 0
L1I AVERAGE MISS LATENCY: -nan cycles
L1I RQ	ACCESS:   11407561	FORWARD:          0	MERGED:    2634698	TO_CACHE:    8772863

Revised Interactions: positive negative neutral
L1I_interactions 0 0 0 -nan -nan -nan
L1I_positive -nan -nan -nan
L1I_negative -nan -nan -nan
L1I_neutral -nan -nan -nan
BTB TOTAL     ACCESS:     877293  HIT:     877284  MISS:          9  HIT %:     99.999  MISS %: 0.00102588   MPKI: 0.00018
BTB BRANCH_DIRECT_JUMP	ACCESS:        218  HIT:        216  MISS:          2
BTB BRANCH_INDIRECT	ACCESS:          0  HIT:          0  MISS:          0
BTB BRANCH_CONDITIONAL	ACCESS:     876639  HIT:     876636  MISS:          3
BTB BRANCH_DIRECT_CALL	ACCESS:        218  HIT:        216  MISS:          2
BTB BRANCH_INDIRECT_CALL	ACCESS:          0  HIT:          0  MISS:          0
BTB BRANCH_RETURN	ACCESS:        218  HIT:        216  MISS:          2
BTB BRANCH_OTHER ACCESS:          0  HIT:          0  MISS:          0

L2C TOTAL     ACCESS:    3429969  HIT:    2990240  MISS:     439729  HIT %:    87.1798  MISS %:    12.8202   MPKI: 8.79458
L2C LOAD      ACCESS:     660913  HIT:     527447  MISS:     133466  HIT %:    79.8058  MISS %:    20.1942   MPKI: 2.66932
L2C DATA LOAD MPKI: 2.66932
L2C INSTRUCTION LOAD MPKI: 0
L2C RFO       ACCESS:        763  HIT:        762  MISS:          1  HIT %:    99.8689  MISS %:   0.131062   MPKI: 2e-05
L2C PREFETCH  ACCESS:    2322195  HIT:    2017059  MISS:     305136  HIT %:      86.86  MISS %:      13.14   MPKI: 6.10272
L2C DATA PREFETCH MPKI: 6.10272
L2C INSTRUCTION PREFETCH MPKI: 0
L2C WRITEBACK ACCESS:     439238  HIT:     438998  MISS:        240  HIT %:    99.9454  MISS %:  0.0546401   MPKI: 0.0048
L2C LOAD TRANSLATION ACCESS:       6860  HIT:       5974  MISS:        886  HIT %:    87.0845  MISS %:    12.9155   MPKI: 0.01772
L2C PREFETCH  REQUESTED:    6763589  ISSUED:    6471075  USEFUL:     305029  USELESS:        106
L2C USEFUL LOAD PREFETCHES:     305029 PREFETCH ISSUED TO LOWER LEVEL:    4437945  ACCURACY: 6.8732
L2C TIMELY PREFETCHES:     305029 LATE PREFETCHES: 5507 DROPPED PREFETCHES: 0
L2C PREFETCHES SAME FILL-ORIGIN LEVEL: 310643 DIFFERENT FILL-ORIGIN LEVEL: 4127302
L2C AVERAGE MISS LATENCY: 36.7705 cycles
L2C RQ	ACCESS:     668536	FORWARD:          0	MERGED:          0	TO_CACHE:     668536
L2C WQ	ACCESS:     439238	FORWARD:          0	MERGED:          0	TO_CACHE:     439238
L2C PQ	ACCESS:    6471075	FORWARD:          0	MERGED:      15742	TO_CACHE:    6455333

Revised Interactions: positive negative neutral
L2C_interactions 304526 270 37 99.8993 0.0885731 0.0121378
L2C_positive 0.000328379 99.9754 0.0243001
L2C_negative 0.740741 0 99.2593
L2C_neutral 75.6757 21.6216 2.7027
L2C Instructions Evicting Data 0
L2C Translations Evicting Data 885
L2C Data Evicting Data 437710
L2C Instructions Evicting Instructions 0
L2C Translations Evicting Instructions 0
L2C Data Evicting Instructions 0
L2C Instructions Evicting Translations 0
L2C Translations Evicting Translations 1
L2C Data Evicting Translations 893
L2C Dense regions hint from L2: 0
PSCL5 TOTAL     ACCESS:       6858  HIT:       6858  MISS:          0  HIT %:        100  MISS %:          0   MPKI: 0
PSCL5 LOAD TRANSLATION ACCESS:       6858  HIT:       6858  MISS:          0  HIT %:        100  MISS %:          0   MPKI: 0
PSCL5 PREFETCH  REQUESTED:          0  ISSUED:          0  USEFUL:          0  USELESS:          0
PSCL5 USEFUL LOAD PREFETCHES:          0 PREFETCH ISSUED TO LOWER LEVEL:          0  ACCURACY: -nan
PSCL5 TIMELY PREFETCHES:          0 LATE PREFETCHES: 0 DROPPED PREFETCHES: 0
PSCL5 PREFETCHES SAME FILL-ORIGIN LEVEL: 0 DIFFERENT FILL-ORIGIN LEVEL: 0

Revised Interactions: positive negative neutral
PSCL5_interactions 0 0 0 -nan -nan -nan
PSCL5_positive -nan -nan -nan
PSCL5_negative -nan -nan -nan
PSCL5_neutral -nan -nan -nan
PSCL4 TOTAL     ACCESS:       6858  HIT:       6858  MISS:          0  HIT %:        100  MISS %:          0   MPKI: 0
PSCL4 LOAD TRANSLATION ACCESS:       6858  HIT:       6858  MISS:          0  HIT %:        100  MISS %:          0   MPKI: 0
PSCL4 PREFETCH  REQUESTED:          0  ISSUED:          0  USEFUL:          0  USELESS:          0
PSCL4 USEFUL LOAD PREFETCHES:          0 PREFETCH ISSUED TO LOWER LEVEL:          0  ACCURACY: -nan
PSCL4 TIMELY PREFETCHES:          0 LATE PREFETCHES: 0 DROPPED PREFETCHES: 0
PSCL4 PREFETCHES SAME FILL-ORIGIN LEVEL: 0 DIFFERENT FILL-ORIGIN LEVEL: 0

Revised Interactions: positive negative neutral
PSCL4_interactions 0 0 0 -nan -nan -nan
PSCL4_positive -nan -nan -nan
PSCL4_negative -nan -nan -nan
PSCL4_neutral -nan -nan -nan
PSCL3 TOTAL     ACCESS:       6858  HIT:       6856  MISS:          2  HIT %:    99.9708  MISS %:   0.029163   MPKI: 4e-05
PSCL3 LOAD TRANSLATION ACCESS:       6858  HIT:       6856  MISS:          2  HIT %:    99.9708  MISS %:   0.029163   MPKI: 4e-05
PSCL3 PREFETCH  REQUESTED:          0  ISSUED:          0  USEFUL:          0  USELESS:          0
PSCL3 USEFUL LOAD PREFETCHES:          0 PREFETCH ISSUED TO LOWER LEVEL:          0  ACCURACY: -nan
PSCL3 TIMELY PREFETCHES:          0 LATE PREFETCHES: 0 DROPPED PREFETCHES: 0
PSCL3 PREFETCHES SAME FILL-ORIGIN LEVEL: 0 DIFFERENT FILL-ORIGIN LEVEL: 0

Revised Interactions: positive negative neutral
PSCL3_interactions 0 0 0 -nan -nan -nan
PSCL3_positive -nan -nan -nan
PSCL3_negative -nan -nan -nan
PSCL3_neutral -nan -nan -nan
PSCL2 TOTAL     ACCESS:       6858  HIT:       6837  MISS:         21  HIT %:    99.6938  MISS %:   0.306212   MPKI: 0.00042
PSCL2 LOAD TRANSLATION ACCESS:       6858  HIT:       6837  MISS:         21  HIT %:    99.6938  MISS %:   0.306212   MPKI: 0.00042
PSCL2 PREFETCH  REQUESTED:          0  ISSUED:          0  USEFUL:          0  USELESS:          0
PSCL2 USEFUL LOAD PREFETCHES:          0 PREFETCH ISSUED TO LOWER LEVEL:          0  ACCURACY: -nan
PSCL2 TIMELY PREFETCHES:          0 LATE PREFETCHES: 0 DROPPED PREFETCHES: 0
PSCL2 PREFETCHES SAME FILL-ORIGIN LEVEL: 0 DIFFERENT FILL-ORIGIN LEVEL: 0

Revised Interactions: positive negative neutral
PSCL2_interactions 0 0 0 -nan -nan -nan
PSCL2_positive -nan -nan -nan
PSCL2_negative -nan -nan -nan
PSCL2_neutral -nan -nan -nan
LLC TOTAL     ACCESS:    4749712  HIT:    4309698  MISS:     440014  HIT %:     90.736  MISS %:    9.26401   MPKI: 8.80028
LLC LOAD      ACCESS:     127959  HIT:     115802  MISS:      12157  HIT %:    90.4993  MISS %:     9.5007   MPKI: 0.24314
LLC RFO       ACCESS:          1  HIT:          1  MISS:          0  HIT %:        100  MISS %:          0   MPKI: 0
LLC PREFETCH  ACCESS:    4182623  HIT:    3755647  MISS:     426976  HIT %:    89.7917  MISS %:    10.2083   MPKI: 8.53952
LLC WRITEBACK ACCESS:     438243  HIT:     438242  MISS:          1  HIT %:    99.9998  MISS %: 0.000228184   MPKI: 2e-05
LLC LOAD TRANSLATION ACCESS:        886  HIT:          6  MISS:        880  HIT %:   0.677201  MISS %:    99.3228   MPKI: 0.0176
LLC PREFETCH  REQUESTED:          0  ISSUED:          0  USEFUL:     115762  USELESS:     310701
LLC USEFUL LOAD PREFETCHES:     115762 PREFETCH ISSUED TO LOWER LEVEL:     428141  ACCURACY: 27.0383
LLC TIMELY PREFETCHES:     115762 LATE PREFETCHES: 1160 DROPPED PREFETCHES: 0
LLC PREFETCHES SAME FILL-ORIGIN LEVEL: 423169 DIFFERENT FILL-ORIGIN LEVEL: 0
LLC AVERAGE MISS LATENCY: 169.692 cycles
LLC RQ	ACCESS:     128846	FORWARD:          0	MERGED:          0	TO_CACHE:     128846
LLC WQ	ACCESS:     438244	FORWARD:          0	MERGED:          0	TO_CACHE:     438244
LLC PQ	ACCESS:    4437945	FORWARD:          0	MERGED:       1820	TO_CACHE:    4436125

Revised Interactions: positive negative neutral
LLC_interactions 114591 312133 4317 26.5847 72.4138 1.00153
LLC_positive 0.00261801 27.5135 72.4839
LLC_negative 0 71.4843 28.5157
LLC_neutral 100 0 0
LLC Dense regions hint to LLC: 0

RAW hits: 788
Loads Generated: 17542256
Loads sent to L1D: 17541468
Stores Generated: 3510262
Stores sent to L1D: 3510268
Major fault: 0 Minor fault: 13844
Allocated PAGES: 13844
 All Calls: 1321853
 Critical Calls: 1321853
------------------
Depth Distribution
------------------
depth 0: 0
depth 1: 1287508
depth 2: 1264478
depth 3: 1241365
depth 4: 1213070
depth 5: 1176657
depth 6: 1139597
depth 7: 1090700
depth 8: 1037385
depth 9: 869055
depth 10: 817053
depth 11: 659894
depth 12: 509672
depth 13: 281036
depth 14: 81397
depth 15: 78188
depth 16: 83
depth 17: 0
depth 18: 0
depth 19: 0
depth 20: 0
depth 21: 0
depth 22: 0
depth 23: 0
depth 24: 0
depth 25: 0
depth 26: 0
depth 27: 0
depth 28: 0
depth 29: 0
Total: 12747138
-----------------------------
-----------------------------
	Captured at Filter
-----------------------------
depth 0: 0
depth 1: 10999
depth 2: 10655
depth 3: 10734
depth 4: 10399
depth 5: 10495
depth 6: 10094
depth 7: 9944
depth 8: 9790
depth 9: 8455
depth 10: 8093
depth 11: 6905
depth 12: 5514
depth 13: 3132
depth 14: 901
depth 15: 909
depth 16: 1
depth 17: 0
depth 18: 0
depth 19: 0
depth 20: 0
depth 21: 0
depth 22: 0
depth 23: 0
depth 24: 0
depth 25: 0
depth 26: 0
depth 27: 0
depth 28: 0
depth 29: 0
-----------------------------
-----------------------------
		Lost at Page
-----------------------------
depth 0: 0
depth 1: 20512
depth 2: 40982
depth 3: 61465
depth 4: 81947
depth 5: 102423
depth 6: 122819
depth 7: 142790
depth 8: 162145
depth 9: 158772
depth 10: 174605
depth 11: 164397
depth 12: 147107
depth 13: 93279
depth 14: 30430
depth 15: 32585
depth 16: 23
depth 17: 0
depth 18: 0
depth 19: 0
depth 20: 0
depth 21: 0
depth 22: 0
depth 23: 0
depth 24: 0
depth 25: 0
depth 26: 0
depth 27: 0
depth 28: 0
depth 29: 0
-----------------------------
-----------------------------
	Lost due to PQ Size
-----------------------------
781838
-----------------------------
ST read accesses: 654090
ST write accesses: 6823
PT read accesses: 41263540
PT write accesses: 979083
FILTER read accesses: 7923472
FILTER write accesses: 1382947
GHR read accesses: 5054686
GHR write accesses: 769233
GHR counter read accesses: 34332950
GHR counter write accesses: 1604589
ST tag read accesses: 246852712
ST tag write accesses: 3372354

DRAM Statistics
 CHANNEL 0
 RQ ROW_BUFFER_HIT:      46561  ROW_BUFFER_MISS:     393452
 DBUS_CONGESTED:         51
 WQ ROW_BUFFER_HIT:      89029  ROW_BUFFER_MISS:     349233  FULL:          0

 AVG_CONGESTED_CYCLE: 4
 All warmup complete: 2
Channel 0 Bank busy for read cycles: 0
Channel 0 Bank busy for write cycles: 0
Channel 0
Rank 0
0banks busy for read cycles: 13283579
0banks busy for write cycles: 57409
1banks busy for read cycles: 5486362
1banks busy for write cycles: 1107194
2banks busy for read cycles: 8432649
2banks busy for write cycles: 1138961
3banks busy for read cycles: 6180696
3banks busy for write cycles: 2557229
4banks busy for read cycles: 959405
4banks busy for write cycles: 551612
5banks busy for read cycles: 1330420
5banks busy for write cycles: 2447217
6banks busy for read cycles: 203633
6banks busy for write cycles: 675447
7banks busy for read cycles: 158913
7banks busy for write cycles: 552283
8banks busy for read cycles: 953626
8banks busy for write cycles: 3842908

CPU 0 Branch Prediction Accuracy: 99.9751% MPKI: 0.00438 Average ROB Occupancy at Mispredict: 69.9772
Branch types
NOT_BRANCH: 49121848 98.2437%
BRANCH_DIRECT_JUMP: 218 0.000436%
BRANCH_INDIRECT: 0 0%
BRANCH_CONDITIONAL: 877403 1.75481%
BRANCH_DIRECT_CALL: 218 0.000436%
BRANCH_INDIRECT_CALL: 0 0%
BRANCH_RETURN: 218 0.000436%
BRANCH_OTHER: 0 0%

@sumon_overall_L1D         0         0         0         0         0         0         0
@Sumon_Early_by_class_L1D         0         0         0         0
@Sumon_Late_by_class_L1D         0         0         0         0

@Sumon_Early_by_cycle_L1D         0         0         0         0         0         0         0         0         0         0         0         0
@Sumon_Late_by_cycle_L1D         0         0         0         0         0         0
@Sumon_Early_stream_L1D         0         0         0         0         0         0         0         0         0         0         0         0
@Sumon_Early_CS_L1D         0         0         0         0         0         0         0         0         0         0         0         0
@Sumon_Early_CPLX_L1D         0         0         0         0         0         0         0         0         0         0         0         0
@Sumon_Late_stream_L1D         0         0         0         0         0         0
@Sumon_Late_CS_L1D         0         0         0         0         0         0
@Sumon_Late_CPLX_L1D         0         0         0         0         0         0
@sumon_overall_L2C    305029      5507         0       106    305136   6471075   6763589
@Sumon_Early_by_class_L2C         0         0         0         0
@Sumon_Late_by_class_L2C         0         0         0         0

@Sumon_Early_by_cycle_L2C    286123     18192       554         0         0         0         0         0         0         0         0       160
@Sumon_Late_by_cycle_L2C       638      1668       308         5      2888         0
@Sumon_Early_stream_L2C         0         0         0         0         0         0         0         0         0         0         0         0
@Sumon_Early_CS_L2C         0         0         0         0         0         0         0         0         0         0         0         0
@Sumon_Early_CPLX_L2C         0         0         0         0         0         0         0         0         0         0         0         0
@Sumon_Late_stream_L2C         0         0         0         0         0         0
@Sumon_Late_CS_L2C         0         0         0         0         0         0
@Sumon_Late_CPLX_L2C         0         0         0         0         0         0
DRAM PAGES: 1048576
Allocated PAGES: 13844
