Initialize SIGNATURE TABLE
ST_SET: 1
ST_WAY: 256
ST_TAG_BIT: 16
ST_TAG_MASK: ffff

Initialize PATTERN TABLE
PT_SET: 512
PT_WAY: 4
SIG_DELTA_BIT: 7
C_SIG_BIT: 4
C_DELTA_BIT: 4

Initialize PREFETCH FILTER
FILTER_SET: 1024

*** ChampSim Multicore Out-of-Order Simulator ***

Warmup Instructions: 10000000
Simulation Instructions: 50000000
Number of CPUs: 1
LLC sets: 2048
LLC ways: 16
Off-chip DRAM Size: 4096 MB Channels: 1 Width: 64-bit Data Rate: 200 MT/s
CPU 0 runs traces/SPEC2017/602.gcc_s-1850B.champsimtrace.xz
.xz
CPU 0 Bimodal branch predictor
BTB has LRU replacement policy
ITLB has LRU replacement policy
DTLB has LRU replacement policy
STLB has LRU replacement policy
L1I has LRU replacement policy
L1D has LRU replacement policy
ST_WAYS: 256
PT_SETS: 512
L2C has LRU replacement policy
LLC has LRU replacement policy
Heartbeat CPU 0 instructions: 10000002 cycles: 3266212 heartbeat IPC: 3.06165 cumulative IPC: 3.06165 (Simulation time: 0 hr 7 min 21 sec) 

Warmup complete CPU 0 instructions: 10000002 cycles: 3266212 (Simulation time: 0 hr 7 min 21 sec) 

Heartbeat CPU 0 instructions: 20000000 cycles: 40750425 heartbeat IPC: 0.266779 cumulative IPC: 0.266779 (Simulation time: 0 hr 17 min 36 sec) 
Heartbeat CPU 0 instructions: 30000000 cycles: 78246694 heartbeat IPC: 0.266693 cumulative IPC: 0.266736 (Simulation time: 0 hr 27 min 39 sec) 
Heartbeat CPU 0 instructions: 40000000 cycles: 115804247 heartbeat IPC: 0.266258 cumulative IPC: 0.266577 (Simulation time: 0 hr 37 min 38 sec) 
Heartbeat CPU 0 instructions: 50000000 cycles: 153295433 heartbeat IPC: 0.266729 cumulative IPC: 0.266615 (Simulation time: 0 hr 47 min 38 sec) 
Heartbeat CPU 0 instructions: 60000003 cycles: 190789256 heartbeat IPC: 0.266711 cumulative IPC: 0.266634 (Simulation time: 0 hr 56 min 38 sec) 
Finished CPU 0 instructions: 50000001 cycles: 187523044 cumulative IPC: 0.266634 (Simulation time: 0 hr 56 min 38 sec) 

ChampSim completed all CPUs

Region of Interest Statistics

CPU 0 cumulative IPC: 0.266634 instructions: 50000001 cycles: 187523044
ITLB TOTAL     ACCESS:    7742174  HIT:    7742174  MISS:          0  HIT %:        100  MISS %:          0   MPKI: 0
ITLB LOAD TRANSLATION ACCESS:    7742174  HIT:    7742174  MISS:          0  HIT %:        100  MISS %:          0   MPKI: 0
ITLB PREFETCH  REQUESTED:          0  ISSUED:          0  USEFUL:          0  USELESS:          0
ITLB USEFUL LOAD PREFETCHES:          0 PREFETCH ISSUED TO LOWER LEVEL:          0  ACCURACY: -nan
ITLB TIMELY PREFETCHES:          0 LATE PREFETCHES: 0 DROPPED PREFETCHES: 0
ITLB PREFETCHES SAME FILL-ORIGIN LEVEL: 0 DIFFERENT FILL-ORIGIN LEVEL: 0
ITLB AVERAGE MISS LATENCY: -nan cycles
ITLB RQ	ACCESS:    8571800	FORWARD:          0	MERGED:     829627	TO_CACHE:    7742173

DTLB TOTAL     ACCESS:   14956027  HIT:   14939635  MISS:      16392  HIT %:    99.8904  MISS %:   0.109601   MPKI: 0.32784
DTLB LOAD TRANSLATION ACCESS:   14956027  HIT:   14939635  MISS:      16392  HIT %:    99.8904  MISS %:   0.109601   MPKI: 0.32784
DTLB PREFETCH  REQUESTED:          0  ISSUED:          0  USEFUL:          0  USELESS:          0
DTLB USEFUL LOAD PREFETCHES:          0 PREFETCH ISSUED TO LOWER LEVEL:          0  ACCURACY: -nan
DTLB TIMELY PREFETCHES:          0 LATE PREFETCHES: 0 DROPPED PREFETCHES: 0
DTLB PREFETCHES SAME FILL-ORIGIN LEVEL: 0 DIFFERENT FILL-ORIGIN LEVEL: 0
DTLB AVERAGE MISS LATENCY: 156.385 cycles
DTLB RQ	ACCESS:   15233329	FORWARD:          0	MERGED:     277151	TO_CACHE:   14956178

STLB TOTAL     ACCESS:      16392  HIT:       1171  MISS:      15221  HIT %:    7.14373  MISS %:    92.8563   MPKI: 0.30442
STLB LOAD TRANSLATION ACCESS:      16392  HIT:       1171  MISS:      15221  HIT %:    7.14373  MISS %:    92.8563   MPKI: 0.30442
STLB PREFETCH  REQUESTED:          0  ISSUED:          0  USEFUL:          0  USELESS:          0
STLB USEFUL LOAD PREFETCHES:          0 PREFETCH ISSUED TO LOWER LEVEL:          0  ACCURACY: -nan
STLB TIMELY PREFETCHES:          0 LATE PREFETCHES: 0 DROPPED PREFETCHES: 0
STLB PREFETCHES SAME FILL-ORIGIN LEVEL: 0 DIFFERENT FILL-ORIGIN LEVEL: 0
STLB AVERAGE MISS LATENCY: 158.699 cycles
STLB RQ	ACCESS:      16392	FORWARD:          0	MERGED:          0	TO_CACHE:      16392

STLB Hit, L1D data hit: 0
STLB Hit, L2C data hit: 0
STLB Hit, LLC data hit: 0
STLB Hit, LLC data miss: 0
STLB STLB hints to L2: 0
L1D TOTAL     ACCESS:   15041419  HIT:   13840222  MISS:    1201197  HIT %:    92.0141  MISS %:    7.98593   MPKI: 24.0239
L1D LOAD      ACCESS:   10725833  HIT:    9525032  MISS:    1200801  HIT %:    88.8046  MISS %:    11.1954   MPKI: 24.016
L1D RFO       ACCESS:    4315586  HIT:    4315190  MISS:        396  HIT %:    99.9908  MISS %: 0.00917604   MPKI: 0.00792
L1D PREFETCH  REQUESTED:          0  ISSUED:          0  USEFUL:          0  USELESS:          0
L1D USEFUL LOAD PREFETCHES:          0 PREFETCH ISSUED TO LOWER LEVEL:          0  ACCURACY: -nan
L1D TIMELY PREFETCHES:          0 LATE PREFETCHES: 0 DROPPED PREFETCHES: 0
L1D PREFETCHES SAME FILL-ORIGIN LEVEL: 0 DIFFERENT FILL-ORIGIN LEVEL: 0
L1D AVERAGE MISS LATENCY: 41.4241 cycles
L1D RQ	ACCESS:   13897925	FORWARD:          0	MERGED:    2980182	TO_CACHE:   10917743
L1D WQ	ACCESS:    4852413	FORWARD:          0	MERGED:     536827	TO_CACHE:    4315586

L1D UNIQUE REGIONS ACCESSED: 0
L1D REGIONS CONFLICTS: 0
L1D Cross Page Prefetch Requests: 0
L1D Same Page Prefetch Requests: 0
L1D ROI Sum of L1D PQ occupancy: 0
L1D PREFETCHES PUSHED FROM L2C: 0
L1I TOTAL     ACCESS:    8571800  HIT:    8571800  MISS:          0  HIT %:        100  MISS %:          0   MPKI: 0
L1I LOAD      ACCESS:    8571800  HIT:    8571800  MISS:          0  HIT %:        100  MISS %:          0   MPKI: 0
L1I PREFETCH  REQUESTED:          0  ISSUED:          0  USEFUL:          0  USELESS:          0
L1I USEFUL LOAD PREFETCHES:          0 PREFETCH ISSUED TO LOWER LEVEL:          0  ACCURACY: -nan
L1I TIMELY PREFETCHES:          0 LATE PREFETCHES: 0 DROPPED PREFETCHES: 0
L1I PREFETCHES SAME FILL-ORIGIN LEVEL: 0 DIFFERENT FILL-ORIGIN LEVEL: 0
L1I AVERAGE MISS LATENCY: -nan cycles
L1I RQ	ACCESS:   13331291	FORWARD:          0	MERGED:    4759491	TO_CACHE:    8571800

BTB TOTAL     ACCESS:    8191456  HIT:    8191427  MISS:         29  HIT %:    99.9996  MISS %: 0.000354027   MPKI: 0.00058
BTB BRANCH_DIRECT_JUMP	ACCESS:    1079511  HIT:    1079502  MISS:          9
BTB BRANCH_INDIRECT	ACCESS:          0  HIT:          0  MISS:          0
BTB BRANCH_CONDITIONAL	ACCESS:    6031849  HIT:    6031835  MISS:         14
BTB BRANCH_DIRECT_CALL	ACCESS:     540048  HIT:     540045  MISS:          3
BTB BRANCH_INDIRECT_CALL	ACCESS:          0  HIT:          0  MISS:          0
BTB BRANCH_RETURN	ACCESS:     540048  HIT:     540045  MISS:          3
BTB BRANCH_OTHER ACCESS:          0  HIT:          0  MISS:          0

L2C TOTAL     ACCESS:    2362808  HIT:    1470522  MISS:     892286  HIT %:    62.2362  MISS %:    37.7638   MPKI: 17.8457
L2C LOAD      ACCESS:    1200801  HIT:     766932  MISS:     433869  HIT %:    63.8684  MISS %:    36.1316   MPKI: 8.67738
L2C DATA LOAD MPKI: 8.67738
L2C INSTRUCTION LOAD MPKI: 0
L2C RFO       ACCESS:        396  HIT:         55  MISS:        341  HIT %:    13.8889  MISS %:    86.1111   MPKI: 0.00682
L2C PREFETCH  ACCESS:    1143140  HIT:     687775  MISS:     455365  HIT %:    60.1654  MISS %:    39.8346   MPKI: 9.1073
L2C DATA PREFETCH MPKI: 9.1073
L2C INSTRUCTION PREFETCH MPKI: 0
L2C WRITEBACK ACCESS:       3176  HIT:       3176  MISS:          0  HIT %:        100  MISS %:          0   MPKI: 0
L2C LOAD TRANSLATION ACCESS:      15295  HIT:      12584  MISS:       2711  HIT %:    82.2753  MISS %:    17.7247   MPKI: 0.05422
L2C PREFETCH  REQUESTED:    8942918  ISSUED:    8940332  USEFUL:     454341  USELESS:       1033
L2C USEFUL LOAD PREFETCHES:     454341 PREFETCH ISSUED TO LOWER LEVEL:    8205802  ACCURACY: 5.53683
L2C TIMELY PREFETCHES:     454341 LATE PREFETCHES: 166516 DROPPED PREFETCHES: 0
L2C PREFETCHES SAME FILL-ORIGIN LEVEL: 621881 DIFFERENT FILL-ORIGIN LEVEL: 7583921
L2C AVERAGE MISS LATENCY: 59.4979 cycles
L2C RQ	ACCESS:    1216492	FORWARD:          0	MERGED:          0	TO_CACHE:    1216492
L2C WQ	ACCESS:       3176	FORWARD:          0	MERGED:          0	TO_CACHE:       3176
L2C PQ	ACCESS:    8940332	FORWARD:          0	MERGED:      42447	TO_CACHE:    8897885

L2C Instructions Evicting Data 0
L2C Translations Evicting Data 2705
L2C Data Evicting Data 886864
L2C Instructions Evicting Instructions 0
L2C Translations Evicting Instructions 0
L2C Data Evicting Instructions 0
L2C Instructions Evicting Translations 0
L2C Translations Evicting Translations 6
L2C Data Evicting Translations 2711
L2C Dense regions hint from L2: 0
PSCL5 TOTAL     ACCESS:      15221  HIT:      15221  MISS:          0  HIT %:        100  MISS %:          0   MPKI: 0
PSCL5 LOAD TRANSLATION ACCESS:      15221  HIT:      15221  MISS:          0  HIT %:        100  MISS %:          0   MPKI: 0
PSCL5 PREFETCH  REQUESTED:          0  ISSUED:          0  USEFUL:          0  USELESS:          0
PSCL5 USEFUL LOAD PREFETCHES:          0 PREFETCH ISSUED TO LOWER LEVEL:          0  ACCURACY: -nan
PSCL5 TIMELY PREFETCHES:          0 LATE PREFETCHES: 0 DROPPED PREFETCHES: 0
PSCL5 PREFETCHES SAME FILL-ORIGIN LEVEL: 0 DIFFERENT FILL-ORIGIN LEVEL: 0

PSCL4 TOTAL     ACCESS:      15221  HIT:      15221  MISS:          0  HIT %:        100  MISS %:          0   MPKI: 0
PSCL4 LOAD TRANSLATION ACCESS:      15221  HIT:      15221  MISS:          0  HIT %:        100  MISS %:          0   MPKI: 0
PSCL4 PREFETCH  REQUESTED:          0  ISSUED:          0  USEFUL:          0  USELESS:          0
PSCL4 USEFUL LOAD PREFETCHES:          0 PREFETCH ISSUED TO LOWER LEVEL:          0  ACCURACY: -nan
PSCL4 TIMELY PREFETCHES:          0 LATE PREFETCHES: 0 DROPPED PREFETCHES: 0
PSCL4 PREFETCHES SAME FILL-ORIGIN LEVEL: 0 DIFFERENT FILL-ORIGIN LEVEL: 0

PSCL3 TOTAL     ACCESS:      15221  HIT:      15221  MISS:          0  HIT %:        100  MISS %:          0   MPKI: 0
PSCL3 LOAD TRANSLATION ACCESS:      15221  HIT:      15221  MISS:          0  HIT %:        100  MISS %:          0   MPKI: 0
PSCL3 PREFETCH  REQUESTED:          0  ISSUED:          0  USEFUL:          0  USELESS:          0
PSCL3 USEFUL LOAD PREFETCHES:          0 PREFETCH ISSUED TO LOWER LEVEL:          0  ACCURACY: -nan
PSCL3 TIMELY PREFETCHES:          0 LATE PREFETCHES: 0 DROPPED PREFETCHES: 0
PSCL3 PREFETCHES SAME FILL-ORIGIN LEVEL: 0 DIFFERENT FILL-ORIGIN LEVEL: 0

PSCL2 TOTAL     ACCESS:      15221  HIT:      15041  MISS:        180  HIT %:    98.8174  MISS %:    1.18258   MPKI: 0.0036
PSCL2 LOAD TRANSLATION ACCESS:      15221  HIT:      15041  MISS:        180  HIT %:    98.8174  MISS %:    1.18258   MPKI: 0.0036
PSCL2 PREFETCH  REQUESTED:          0  ISSUED:          0  USEFUL:          0  USELESS:          0
PSCL2 USEFUL LOAD PREFETCHES:          0 PREFETCH ISSUED TO LOWER LEVEL:          0  ACCURACY: -nan
PSCL2 TIMELY PREFETCHES:          0 LATE PREFETCHES: 0 DROPPED PREFETCHES: 0
PSCL2 PREFETCHES SAME FILL-ORIGIN LEVEL: 0 DIFFERENT FILL-ORIGIN LEVEL: 0

LLC TOTAL     ACCESS:    5280545  HIT:    4375084  MISS:     905461  HIT %:    82.8529  MISS %:    17.1471   MPKI: 18.1092
LLC LOAD      ACCESS:     267357  HIT:     211861  MISS:      55496  HIT %:    79.2427  MISS %:    20.7573   MPKI: 1.10992
LLC RFO       ACCESS:        337  HIT:        198  MISS:        139  HIT %:    58.7537  MISS %:    41.2463   MPKI: 0.00278
LLC PREFETCH  ACCESS:    5008879  HIT:    4161583  MISS:     847296  HIT %:    83.0841  MISS %:    16.9159   MPKI: 16.9459
LLC WRITEBACK ACCESS:       1261  HIT:       1261  MISS:          0  HIT %:        100  MISS %:          0   MPKI: 0
LLC LOAD TRANSLATION ACCESS:       2711  HIT:        181  MISS:       2530  HIT %:     6.6765  MISS %:    93.3235   MPKI: 0.0506
LLC PREFETCH  REQUESTED:          0  ISSUED:          0  USEFUL:     211904  USELESS:     628925
LLC USEFUL LOAD PREFETCHES:     211904 PREFETCH ISSUED TO LOWER LEVEL:     877133  ACCURACY: 24.1587
LLC TIMELY PREFETCHES:     211904 LATE PREFETCHES: 29836 DROPPED PREFETCHES: 0
LLC PREFETCHES SAME FILL-ORIGIN LEVEL: 866920 DIFFERENT FILL-ORIGIN LEVEL: 0
LLC AVERAGE MISS LATENCY: 856.676 cycles
LLC RQ	ACCESS:     270405	FORWARD:          0	MERGED:          0	TO_CACHE:     270405
LLC WQ	ACCESS:       1261	FORWARD:          0	MERGED:          0	TO_CACHE:       1261
LLC PQ	ACCESS:    8205802	FORWARD:          0	MERGED:       6758	TO_CACHE:    8199044

LLC Dense regions hint to LLC: 0

RAW hits: 0
Loads Generated: 13897925
Loads sent to L1D: 13897925
Stores Generated: 4852411
Stores sent to L1D: 4852413
Major fault: 0 Minor fault: 18384
Allocated PAGES: 18384
 All Calls: 1441621
 Critical Calls: 1441621
------------------
Depth Distribution
------------------
depth 0: 0
depth 1: 1428690
depth 2: 1246371
depth 3: 1112951
depth 4: 1048651
depth 5: 1003653
depth 6: 968323
depth 7: 934532
depth 8: 848725
depth 9: 727884
depth 10: 599472
depth 11: 419719
depth 12: 249692
depth 13: 105588
depth 14: 1465
depth 15: 1402
depth 16: 0
depth 17: 0
depth 18: 0
depth 19: 0
depth 20: 0
depth 21: 0
depth 22: 0
depth 23: 0
depth 24: 0
depth 25: 0
depth 26: 0
depth 27: 0
depth 28: 0
depth 29: 0
Total: 10697118
-----------------------------
-----------------------------
	Captured at Filter
-----------------------------
depth 0: 0
depth 1: 29304
depth 2: 23599
depth 3: 18941
depth 4: 14991
depth 5: 14365
depth 6: 11092
depth 7: 9140
depth 8: 7058
depth 9: 6349
depth 10: 4703
depth 11: 3422
depth 12: 1821
depth 13: 828
depth 14: 11
depth 15: 22
depth 16: 0
depth 17: 0
depth 18: 0
depth 19: 0
depth 20: 0
depth 21: 0
depth 22: 0
depth 23: 0
depth 24: 0
depth 25: 0
depth 26: 0
depth 27: 0
depth 28: 0
depth 29: 0
-----------------------------
-----------------------------
		Lost at Page
-----------------------------
depth 0: 0
depth 1: 33833
depth 2: 41954
depth 3: 60569
depth 4: 77998
depth 5: 93360
depth 6: 106637
depth 7: 119489
depth 8: 124479
depth 9: 121711
depth 10: 112624
depth 11: 88064
depth 12: 58425
depth 13: 27369
depth 14: 448
depth 15: 468
depth 16: 0
depth 17: 0
depth 18: 0
depth 19: 0
depth 20: 0
depth 21: 0
depth 22: 0
depth 23: 0
depth 24: 0
depth 25: 0
depth 26: 0
depth 27: 0
depth 28: 0
depth 29: 0
-----------------------------
-----------------------------
	Lost due to PQ Size
-----------------------------
11340
-----------------------------
ST read accesses: 1185537
ST write accesses: 15264
PT read accesses: 55850395
PT write accesses: 1756086
FILTER read accesses: 11157339
FILTER write accesses: 2180316
GHR read accesses: 5581703
GHR write accesses: 891158
GHR counter read accesses: 46742414
GHR counter write accesses: 2492466
ST tag read accesses: 440906315
ST tag write accesses: 7175933

DRAM Statistics
 CHANNEL 0
 RQ ROW_BUFFER_HIT:     848590  ROW_BUFFER_MISS:      56871
 DBUS_CONGESTED:     818781
 WQ ROW_BUFFER_HIT:        142  ROW_BUFFER_MISS:       1113  FULL:          0

 AVG_CONGESTED_CYCLE: 154
 All warmup complete: 2
Channel 0 Bank busy for read cycles: 0
Channel 0 Bank busy for write cycles: 0
Channel 0
Rank 0
0banks busy for read cycles: 52615968
0banks busy for write cycles: 558
1banks busy for read cycles: 19438597
1banks busy for write cycles: 125994
2banks busy for read cycles: 15008050
2banks busy for write cycles: 82556
3banks busy for read cycles: 11493897
3banks busy for write cycles: 44986
4banks busy for read cycles: 11008436
4banks busy for write cycles: 14569
5banks busy for read cycles: 10951572
5banks busy for write cycles: 4906
6banks busy for read cycles: 10998083
6banks busy for write cycles: 2856
7banks busy for read cycles: 12088304
7banks busy for write cycles: 954
8banks busy for read cycles: 43642759
8banks busy for write cycles: 0

CPU 0 Branch Prediction Accuracy: 92.2655% MPKI: 19.8309 Average ROB Occupancy at Mispredict: 31.7352
Branch types
NOT_BRANCH: 37179936 74.3599%
BRANCH_DIRECT_JUMP: 1079511 2.15902%
BRANCH_INDIRECT: 0 0%
BRANCH_CONDITIONAL: 10660171 21.3203%
BRANCH_DIRECT_CALL: 540048 1.0801%
BRANCH_INDIRECT_CALL: 0 0%
BRANCH_RETURN: 540048 1.0801%
BRANCH_OTHER: 0 0%

@sumon_overall_L1D         0         0         0         0         0         0
@Sumon_Early_by_class_L1D         0         0         0         0
@Sumon_Late_by_class_L1D         0         0         0         0

@Sumon_Early_by_cycle_L1D         0         0         0         0         0         0         0         0         0         0         0         0
@Sumon_Late_by_cycle_L1D         0         0         0         0         0         0         0         0         0         0         0         0
@Sumon_Early_stream_L1D         0         0         0         0         0         0         0         0         0         0         0         0
@Sumon_Early_CS_L1D         0         0         0         0         0         0         0         0         0         0         0         0
@Sumon_Early_CPLX_L1D         0         0         0         0         0         0         0         0         0         0         0         0
@Sumon_Late_stream_L1D         0         0         0         0         0         0         0         0         0         0         0         0
@Sumon_Late_CS_L1D         0         0         0         0         0         0         0         0         0         0         0         0
@Sumon_Late_CPLX_L1D         0         0         0         0         0         0         0         0         0         0         0         0
@sumon_overall_L2C    454341    166516      1033    455365   8940332   8942918
@Sumon_Early_by_class_L2C         0         0         0         0
@Sumon_Late_by_class_L2C         0         0         0         0

@Sumon_Early_by_cycle_L2C    139966    156130    131013      9010      1535      4694      4074      3235      3895       331         0       458
@Sumon_Late_by_cycle_L2C     93828     69850      1405       619       491       322         1         0         0         0         0         0
@Sumon_Early_stream_L2C         0         0         0         0         0         0         0         0         0         0         0         0
@Sumon_Early_CS_L2C         0         0         0         0         0         0         0         0         0         0         0         0
@Sumon_Early_CPLX_L2C         0         0         0         0         0         0         0         0         0         0         0         0
@Sumon_Late_stream_L2C         0         0         0         0         0         0         0         0         0         0         0         0
@Sumon_Late_CS_L2C         0         0         0         0         0         0         0         0         0         0         0         0
@Sumon_Late_CPLX_L2C         0         0         0         0         0         0         0         0         0         0         0         0
DRAM PAGES: 1048576
Allocated PAGES: 18384
