Initialize SIGNATURE TABLE
ST_SET: 1
ST_WAY: 256
ST_TAG_BIT: 16
ST_TAG_MASK: ffff

Initialize PATTERN TABLE
PT_SET: 512
PT_WAY: 4
SIG_DELTA_BIT: 7
C_SIG_BIT: 4
C_DELTA_BIT: 4

Initialize PREFETCH FILTER
FILTER_SET: 1024

*** ChampSim Multicore Out-of-Order Simulator ***

Warmup Instructions: 10000000
Simulation Instructions: 50000000
Number of CPUs: 1
LLC sets: 2048
LLC ways: 16
Off-chip DRAM Size: 4096 MB Channels: 1 Width: 64-bit Data Rate: 200 MT/s
CPU 0 runs traces/SPEC2017/603.bwaves_s-891B.champsimtrace.xz
.xz
CPU 0 Bimodal branch predictor
BTB has LRU replacement policy
ITLB has LRU replacement policy
DTLB has LRU replacement policy
STLB has LRU replacement policy
L1I has LRU replacement policy
L1D has LRU replacement policy
ST_WAYS: 256
PT_SETS: 512
L2C has LRU replacement policy
LLC has LRU replacement policy
Heartbeat CPU 0 instructions: 10000003 cycles: 2716413 heartbeat IPC: 3.68133 cumulative IPC: 3.68133 (Simulation time: 0 hr 3 min 0 sec) 

Warmup complete CPU 0 instructions: 10000003 cycles: 2716413 (Simulation time: 0 hr 3 min 0 sec) 

Heartbeat CPU 0 instructions: 20000000 cycles: 68887095 heartbeat IPC: 0.151124 cumulative IPC: 0.151124 (Simulation time: 0 hr 20 min 25 sec) 
Heartbeat CPU 0 instructions: 30000000 cycles: 135056279 heartbeat IPC: 0.151128 cumulative IPC: 0.151126 (Simulation time: 0 hr 37 min 38 sec) 
Heartbeat CPU 0 instructions: 40000001 cycles: 201215080 heartbeat IPC: 0.151151 cumulative IPC: 0.151135 (Simulation time: 0 hr 53 min 50 sec) 
Heartbeat CPU 0 instructions: 50000002 cycles: 241396061 heartbeat IPC: 0.248874 cumulative IPC: 0.167589 (Simulation time: 1 hr 3 min 12 sec) 
Heartbeat CPU 0 instructions: 60000003 cycles: 266819773 heartbeat IPC: 0.393334 cumulative IPC: 0.18932 (Simulation time: 1 hr 8 min 31 sec) 
Finished CPU 0 instructions: 50000000 cycles: 264103360 cumulative IPC: 0.18932 (Simulation time: 1 hr 8 min 31 sec) 

ChampSim completed all CPUs

Region of Interest Statistics

CPU 0 cumulative IPC: 0.18932 instructions: 50000000 cycles: 264103360
ITLB TOTAL     ACCESS:    7209070  HIT:    7209070  MISS:          0  HIT %:        100  MISS %:          0   MPKI: 0
ITLB LOAD TRANSLATION ACCESS:    7209070  HIT:    7209070  MISS:          0  HIT %:        100  MISS %:          0   MPKI: 0
ITLB PREFETCH  REQUESTED:          0  ISSUED:          0  USEFUL:          0  USELESS:          0
ITLB USEFUL LOAD PREFETCHES:          0 PREFETCH ISSUED TO LOWER LEVEL:          0  ACCURACY: -nan
ITLB TIMELY PREFETCHES:          0 LATE PREFETCHES: 0 DROPPED PREFETCHES: 0
ITLB PREFETCHES SAME FILL-ORIGIN LEVEL: 0 DIFFERENT FILL-ORIGIN LEVEL: 0
ITLB AVERAGE MISS LATENCY: -nan cycles
ITLB RQ	ACCESS:    9708707	FORWARD:          0	MERGED:    2499637	TO_CACHE:    7209070

DTLB TOTAL     ACCESS:    8556149  HIT:    8537977  MISS:      18172  HIT %:    99.7876  MISS %:   0.212385   MPKI: 0.36344
DTLB LOAD TRANSLATION ACCESS:    8556149  HIT:    8537977  MISS:      18172  HIT %:    99.7876  MISS %:   0.212385   MPKI: 0.36344
DTLB PREFETCH  REQUESTED:          0  ISSUED:          0  USEFUL:          0  USELESS:          0
DTLB USEFUL LOAD PREFETCHES:          0 PREFETCH ISSUED TO LOWER LEVEL:          0  ACCURACY: -nan
DTLB TIMELY PREFETCHES:          0 LATE PREFETCHES: 0 DROPPED PREFETCHES: 0
DTLB PREFETCHES SAME FILL-ORIGIN LEVEL: 0 DIFFERENT FILL-ORIGIN LEVEL: 0
DTLB AVERAGE MISS LATENCY: 474.713 cycles
DTLB RQ	ACCESS:    8853693	FORWARD:          0	MERGED:     296708	TO_CACHE:    8556985

STLB TOTAL     ACCESS:      18172  HIT:         56  MISS:      18116  HIT %:   0.308166  MISS %:    99.6918   MPKI: 0.36232
STLB LOAD TRANSLATION ACCESS:      18172  HIT:         56  MISS:      18116  HIT %:   0.308166  MISS %:    99.6918   MPKI: 0.36232
STLB PREFETCH  REQUESTED:          0  ISSUED:          0  USEFUL:          0  USELESS:          0
STLB USEFUL LOAD PREFETCHES:          0 PREFETCH ISSUED TO LOWER LEVEL:          0  ACCURACY: -nan
STLB TIMELY PREFETCHES:          0 LATE PREFETCHES: 0 DROPPED PREFETCHES: 0
STLB PREFETCHES SAME FILL-ORIGIN LEVEL: 0 DIFFERENT FILL-ORIGIN LEVEL: 0
STLB AVERAGE MISS LATENCY: 462.484 cycles
STLB RQ	ACCESS:      18172	FORWARD:          0	MERGED:          0	TO_CACHE:      18172

STLB Hit, L1D data hit: 0
STLB Hit, L2C data hit: 0
STLB Hit, LLC data hit: 0
STLB Hit, LLC data miss: 0
STLB STLB hints to L2: 0
L1D TOTAL     ACCESS:    7685882  HIT:    6526389  MISS:    1159493  HIT %:     84.914  MISS %:     15.086   MPKI: 23.1899
L1D LOAD      ACCESS:    5205928  HIT:    4046436  MISS:    1159492  HIT %:    77.7275  MISS %:    22.2725   MPKI: 23.1898
L1D RFO       ACCESS:    2479954  HIT:    2479953  MISS:          1  HIT %:        100  MISS %: 4.03233e-05   MPKI: 2e-05
L1D PREFETCH  REQUESTED:          0  ISSUED:          0  USEFUL:          0  USELESS:          0
L1D USEFUL LOAD PREFETCHES:          0 PREFETCH ISSUED TO LOWER LEVEL:          0  ACCURACY: -nan
L1D TIMELY PREFETCHES:          0 LATE PREFETCHES: 0 DROPPED PREFETCHES: 0
L1D PREFETCHES SAME FILL-ORIGIN LEVEL: 0 DIFFERENT FILL-ORIGIN LEVEL: 0
L1D AVERAGE MISS LATENCY: 278.485 cycles
L1D RQ	ACCESS:    7956572	FORWARD:          0	MERGED:    1582602	TO_CACHE:    6373739
L1D WQ	ACCESS:    2590179	FORWARD:        231	MERGED:     110225	TO_CACHE:    2479954

L1D UNIQUE REGIONS ACCESSED: 0
L1D REGIONS CONFLICTS: 0
L1D Cross Page Prefetch Requests: 0
L1D Same Page Prefetch Requests: 0
L1D ROI Sum of L1D PQ occupancy: 0
L1D PREFETCHES PUSHED FROM L2C: 0
L1I TOTAL     ACCESS:    9708703  HIT:    9708699  MISS:          4  HIT %:        100  MISS %: 4.12001e-05   MPKI: 8e-05
L1I LOAD      ACCESS:    9708703  HIT:    9708699  MISS:          4  HIT %:        100  MISS %: 4.12001e-05   MPKI: 8e-05
L1I PREFETCH  REQUESTED:          0  ISSUED:          0  USEFUL:          0  USELESS:          0
L1I USEFUL LOAD PREFETCHES:          0 PREFETCH ISSUED TO LOWER LEVEL:          0  ACCURACY: -nan
L1I TIMELY PREFETCHES:          0 LATE PREFETCHES: 0 DROPPED PREFETCHES: 0
L1I PREFETCHES SAME FILL-ORIGIN LEVEL: 0 DIFFERENT FILL-ORIGIN LEVEL: 0
L1I AVERAGE MISS LATENCY: 1602.75 cycles
L1I RQ	ACCESS:   13132857	FORWARD:          0	MERGED:    3424150	TO_CACHE:    9708707

BTB TOTAL     ACCESS:    3628122  HIT:    3628114  MISS:          8  HIT %:    99.9998  MISS %:  0.0002205   MPKI: 0.00016
BTB BRANCH_DIRECT_JUMP	ACCESS:          0  HIT:          0  MISS:          0
BTB BRANCH_INDIRECT	ACCESS:          0  HIT:          0  MISS:          0
BTB BRANCH_CONDITIONAL	ACCESS:    3628122  HIT:    3628114  MISS:          8
BTB BRANCH_DIRECT_CALL	ACCESS:          0  HIT:          0  MISS:          0
BTB BRANCH_INDIRECT_CALL	ACCESS:          0  HIT:          0  MISS:          0
BTB BRANCH_RETURN	ACCESS:          0  HIT:          0  MISS:          0
BTB BRANCH_OTHER ACCESS:          0  HIT:          0  MISS:          0

L2C TOTAL     ACCESS:    2130526  HIT:     968705  MISS:    1161821  HIT %:    45.4679  MISS %:    54.5321   MPKI: 23.2364
L2C LOAD      ACCESS:    1159495  HIT:     505507  MISS:     653988  HIT %:    43.5972  MISS %:    56.4028   MPKI: 13.0798
L2C DATA LOAD MPKI: 13.0797
L2C INSTRUCTION LOAD MPKI: 8e-05
L2C RFO       ACCESS:          1  HIT:          0  MISS:          1  HIT %:          0  MISS %:        100   MPKI: 2e-05
L2C PREFETCH  ACCESS:     505529  HIT:          0  MISS:     505529  HIT %:          0  MISS %:        100   MPKI: 10.1106
L2C DATA PREFETCH MPKI: 10.1106
L2C INSTRUCTION PREFETCH MPKI: 0
L2C WRITEBACK ACCESS:     447385  HIT:     447383  MISS:          2  HIT %:    99.9996  MISS %: 0.000447042   MPKI: 4e-05
L2C LOAD TRANSLATION ACCESS:      18116  HIT:      15815  MISS:       2301  HIT %:    87.2985  MISS %:    12.7015   MPKI: 0.04602
L2C PREFETCH  REQUESTED:    7914153  ISSUED:    6827262  USEFUL:     505507  USELESS:         23
L2C USEFUL LOAD PREFETCHES:     505507 PREFETCH ISSUED TO LOWER LEVEL:    6820354  ACCURACY: 7.41174
L2C TIMELY PREFETCHES:     505507 LATE PREFETCHES: 278417 DROPPED PREFETCHES: 0
L2C PREFETCHES SAME FILL-ORIGIN LEVEL: 783946 DIFFERENT FILL-ORIGIN LEVEL: 6036408
L2C AVERAGE MISS LATENCY: 351.954 cycles
L2C RQ	ACCESS:    1177614	FORWARD:          0	MERGED:          0	TO_CACHE:    1177614
L2C WQ	ACCESS:     447385	FORWARD:          0	MERGED:          0	TO_CACHE:     447385
L2C PQ	ACCESS:    6827262	FORWARD:          0	MERGED:       6430	TO_CACHE:    6820832

L2C Instructions Evicting Data 4
L2C Translations Evicting Data 2301
L2C Data Evicting Data 1157203
L2C Instructions Evicting Instructions 0
L2C Translations Evicting Instructions 0
L2C Data Evicting Instructions 4
L2C Instructions Evicting Translations 0
L2C Translations Evicting Translations 0
L2C Data Evicting Translations 2307
L2C Dense regions hint from L2: 0
PSCL5 TOTAL     ACCESS:      18116  HIT:      18116  MISS:          0  HIT %:        100  MISS %:          0   MPKI: 0
PSCL5 LOAD TRANSLATION ACCESS:      18116  HIT:      18116  MISS:          0  HIT %:        100  MISS %:          0   MPKI: 0
PSCL5 PREFETCH  REQUESTED:          0  ISSUED:          0  USEFUL:          0  USELESS:          0
PSCL5 USEFUL LOAD PREFETCHES:          0 PREFETCH ISSUED TO LOWER LEVEL:          0  ACCURACY: -nan
PSCL5 TIMELY PREFETCHES:          0 LATE PREFETCHES: 0 DROPPED PREFETCHES: 0
PSCL5 PREFETCHES SAME FILL-ORIGIN LEVEL: 0 DIFFERENT FILL-ORIGIN LEVEL: 0

PSCL4 TOTAL     ACCESS:      18116  HIT:      18116  MISS:          0  HIT %:        100  MISS %:          0   MPKI: 0
PSCL4 LOAD TRANSLATION ACCESS:      18116  HIT:      18116  MISS:          0  HIT %:        100  MISS %:          0   MPKI: 0
PSCL4 PREFETCH  REQUESTED:          0  ISSUED:          0  USEFUL:          0  USELESS:          0
PSCL4 USEFUL LOAD PREFETCHES:          0 PREFETCH ISSUED TO LOWER LEVEL:          0  ACCURACY: -nan
PSCL4 TIMELY PREFETCHES:          0 LATE PREFETCHES: 0 DROPPED PREFETCHES: 0
PSCL4 PREFETCHES SAME FILL-ORIGIN LEVEL: 0 DIFFERENT FILL-ORIGIN LEVEL: 0

PSCL3 TOTAL     ACCESS:      18116  HIT:      18116  MISS:          0  HIT %:        100  MISS %:          0   MPKI: 0
PSCL3 LOAD TRANSLATION ACCESS:      18116  HIT:      18116  MISS:          0  HIT %:        100  MISS %:          0   MPKI: 0
PSCL3 PREFETCH  REQUESTED:          0  ISSUED:          0  USEFUL:          0  USELESS:          0
PSCL3 USEFUL LOAD PREFETCHES:          0 PREFETCH ISSUED TO LOWER LEVEL:          0  ACCURACY: -nan
PSCL3 TIMELY PREFETCHES:          0 LATE PREFETCHES: 0 DROPPED PREFETCHES: 0
PSCL3 PREFETCHES SAME FILL-ORIGIN LEVEL: 0 DIFFERENT FILL-ORIGIN LEVEL: 0

PSCL2 TOTAL     ACCESS:      18116  HIT:      18080  MISS:         36  HIT %:    99.8013  MISS %:   0.198719   MPKI: 0.00072
PSCL2 LOAD TRANSLATION ACCESS:      18116  HIT:      18080  MISS:         36  HIT %:    99.8013  MISS %:   0.198719   MPKI: 0.00072
PSCL2 PREFETCH  REQUESTED:          0  ISSUED:          0  USEFUL:          0  USELESS:          0
PSCL2 USEFUL LOAD PREFETCHES:          0 PREFETCH ISSUED TO LOWER LEVEL:          0  ACCURACY: -nan
PSCL2 TIMELY PREFETCHES:          0 LATE PREFETCHES: 0 DROPPED PREFETCHES: 0
PSCL2 PREFETCHES SAME FILL-ORIGIN LEVEL: 0 DIFFERENT FILL-ORIGIN LEVEL: 0

LLC TOTAL     ACCESS:    3493782  HIT:    2331899  MISS:    1161883  HIT %:    66.7443  MISS %:    33.2557   MPKI: 23.2377
LLC LOAD      ACCESS:     375572  HIT:     231455  MISS:     144117  HIT %:    61.6273  MISS %:    38.3727   MPKI: 2.88234
LLC RFO       ACCESS:          1  HIT:          0  MISS:          1  HIT %:          0  MISS %:        100   MPKI: 2e-05
LLC PREFETCH  ACCESS:    2664839  HIT:    1649373  MISS:    1015466  HIT %:    61.8939  MISS %:    38.1061   MPKI: 20.3093
LLC WRITEBACK ACCESS:     451069  HIT:     451067  MISS:          2  HIT %:    99.9996  MISS %: 0.000443391   MPKI: 4e-05
LLC LOAD TRANSLATION ACCESS:       2301  HIT:          4  MISS:       2297  HIT %:   0.173837  MISS %:    99.8262   MPKI: 0.04594
LLC PREFETCH  REQUESTED:          0  ISSUED:          0  USEFUL:     231393  USELESS:     781530
LLC USEFUL LOAD PREFETCHES:     231393 PREFETCH ISSUED TO LOWER LEVEL:    1127255  ACCURACY: 20.5271
LLC TIMELY PREFETCHES:     231393 LATE PREFETCHES: 111775 DROPPED PREFETCHES: 0
LLC PREFETCHES SAME FILL-ORIGIN LEVEL: 1107216 DIFFERENT FILL-ORIGIN LEVEL: 0
LLC AVERAGE MISS LATENCY: 2682.53 cycles
LLC RQ	ACCESS:     377875	FORWARD:          0	MERGED:          0	TO_CACHE:     377875
LLC WQ	ACCESS:     451069	FORWARD:          0	MERGED:          0	TO_CACHE:     451069
LLC PQ	ACCESS:    6820354	FORWARD:          0	MERGED:        111	TO_CACHE:    6820243

LLC Dense regions hint to LLC: 0

RAW hits: 13566
Loads Generated: 7970138
Loads sent to L1D: 7956572
Stores Generated: 2590179
Stores sent to L1D: 2590179
Major fault: 0 Minor fault: 22421
Allocated PAGES: 22421
 All Calls: 1430664
 Critical Calls: 1430664
------------------
Depth Distribution
------------------
depth 0: 0
depth 1: 1247298
depth 2: 1200357
depth 3: 1150085
depth 4: 1113989
depth 5: 991138
depth 6: 726157
depth 7: 371461
depth 8: 279393
depth 9: 196500
depth 10: 191788
depth 11: 160928
depth 12: 140358
depth 13: 77155
depth 14: 25394
depth 15: 24392
depth 16: 240
depth 17: 0
depth 18: 0
depth 19: 0
depth 20: 0
depth 21: 0
depth 22: 0
depth 23: 0
depth 24: 0
depth 25: 0
depth 26: 0
depth 27: 0
depth 28: 0
depth 29: 0
Total: 7896633
-----------------------------
-----------------------------
	Captured at Filter
-----------------------------
depth 0: 0
depth 1: 9141
depth 2: 8798
depth 3: 8670
depth 4: 8562
depth 5: 8439
depth 6: 6539
depth 7: 3013
depth 8: 2105
depth 9: 1324
depth 10: 1269
depth 11: 1104
depth 12: 916
depth 13: 496
depth 14: 180
depth 15: 194
depth 16: 2
depth 17: 0
depth 18: 0
depth 19: 0
depth 20: 0
depth 21: 0
depth 22: 0
depth 23: 0
depth 24: 0
depth 25: 0
depth 26: 0
depth 27: 0
depth 28: 0
depth 29: 0
-----------------------------
-----------------------------
		Lost at Page
-----------------------------
depth 0: 0
depth 1: 22383
depth 2: 44702
depth 3: 67053
depth 4: 89404
depth 5: 111755
depth 6: 106360
depth 7: 56725
depth 8: 45970
depth 9: 32606
depth 10: 36122
depth 11: 34008
depth 12: 32969
depth 13: 20033
depth 14: 7175
depth 15: 7648
depth 16: 17
depth 17: 0
depth 18: 0
depth 19: 0
depth 20: 0
depth 21: 0
depth 22: 0
depth 23: 0
depth 24: 0
depth 25: 0
depth 26: 0
depth 27: 0
depth 28: 0
depth 29: 0
-----------------------------
-----------------------------
	Lost due to PQ Size
-----------------------------
1476914
-----------------------------
ST read accesses: 1141359
ST write accesses: 18134
PT read accesses: 48771209
PT write accesses: 1711837
FILTER read accesses: 10287066
FILTER write accesses: 2730150
GHR read accesses: 2472779
GHR write accesses: 632684
GHR counter read accesses: 41349902
GHR counter write accesses: 2793654
ST tag read accesses: 455330006
ST tag write accesses: 7836473

DRAM Statistics
 CHANNEL 0
 RQ ROW_BUFFER_HIT:     716244  ROW_BUFFER_MISS:     445637
 DBUS_CONGESTED:    1670958
 WQ ROW_BUFFER_HIT:      58739  ROW_BUFFER_MISS:     404646  FULL:          0

 AVG_CONGESTED_CYCLE: 150
 All warmup complete: 2
Channel 0 Bank busy for read cycles: 0
Channel 0 Bank busy for write cycles: 0
Channel 0
Rank 0
0banks busy for read cycles: 963813
0banks busy for write cycles: 2
1banks busy for read cycles: 2399303
1banks busy for write cycles: 55940
2banks busy for read cycles: 3145935
2banks busy for write cycles: 56160
3banks busy for read cycles: 4052531
3banks busy for write cycles: 55719
4banks busy for read cycles: 6529027
4banks busy for write cycles: 55607
5banks busy for read cycles: 12701980
5banks busy for write cycles: 55606
6banks busy for read cycles: 31242315
6banks busy for write cycles: 56043
7banks busy for read cycles: 56014703
7banks busy for write cycles: 521384
8banks busy for read cycles: 71974727
8banks busy for write cycles: 74222566

CPU 0 Branch Prediction Accuracy: 85.6192% MPKI: 15.7911 Average ROB Occupancy at Mispredict: 69.183
Branch types
NOT_BRANCH: 44509707 89.0194%
BRANCH_DIRECT_JUMP: 0 0%
BRANCH_INDIRECT: 0 0%
BRANCH_CONDITIONAL: 5490342 10.9807%
BRANCH_DIRECT_CALL: 0 0%
BRANCH_INDIRECT_CALL: 0 0%
BRANCH_RETURN: 0 0%
BRANCH_OTHER: 0 0%

@sumon_overall_L1D         0         0         0         0         0         0
@Sumon_Early_by_class_L1D         0         0         0         0
@Sumon_Late_by_class_L1D         0         0         0         0

@Sumon_Early_by_cycle_L1D         0         0         0         0         0         0         0         0         0         0         0         0
@Sumon_Late_by_cycle_L1D         0         0         0         0         0         0         0         0         0         0         0         0
@Sumon_Early_stream_L1D         0         0         0         0         0         0         0         0         0         0         0         0
@Sumon_Early_CS_L1D         0         0         0         0         0         0         0         0         0         0         0         0
@Sumon_Early_CPLX_L1D         0         0         0         0         0         0         0         0         0         0         0         0
@Sumon_Late_stream_L1D         0         0         0         0         0         0         0         0         0         0         0         0
@Sumon_Late_CS_L1D         0         0         0         0         0         0         0         0         0         0         0         0
@Sumon_Late_CPLX_L1D         0         0         0         0         0         0         0         0         0         0         0         0
@sumon_overall_L2C    505507    278417        23    505529   6827262   7914153
@Sumon_Early_by_class_L2C         0         0         0         0
@Sumon_Late_by_class_L2C         0         0         0         0

@Sumon_Early_by_cycle_L2C     52605    249834     41584     25040     24411     56428     51367      4233         5         0         0         0
@Sumon_Late_by_cycle_L2C     62594     90253     67307      9079      6351     22525     18595      1710         2         0         0         0
@Sumon_Early_stream_L2C         0         0         0         0         0         0         0         0         0         0         0         0
@Sumon_Early_CS_L2C         0         0         0         0         0         0         0         0         0         0         0         0
@Sumon_Early_CPLX_L2C         0         0         0         0         0         0         0         0         0         0         0         0
@Sumon_Late_stream_L2C         0         0         0         0         0         0         0         0         0         0         0         0
@Sumon_Late_CS_L2C         0         0         0         0         0         0         0         0         0         0         0         0
@Sumon_Late_CPLX_L2C         0         0         0         0         0         0         0         0         0         0         0         0
DRAM PAGES: 1048576
Allocated PAGES: 22421
