Initialize SIGNATURE TABLE
ST_SET: 1
ST_WAY: 256
ST_TAG_BIT: 16
ST_TAG_MASK: ffff

Initialize PATTERN TABLE
PT_SET: 512
PT_WAY: 4
SIG_DELTA_BIT: 7
C_SIG_BIT: 4
C_DELTA_BIT: 4

Initialize PREFETCH FILTER
FILTER_SET: 1024

*** ChampSim Multicore Out-of-Order Simulator ***

Warmup Instructions: 10000000
Simulation Instructions: 50000000
Number of CPUs: 1
LLC sets: 2048
LLC ways: 16
Off-chip DRAM Size: 4096 MB Channels: 1 Width: 64-bit Data Rate: 200 MT/s
CPU 0 runs traces/SPEC2017/605.mcf_s-1152B.champsimtrace.xz
.xz
CPU 0 Bimodal branch predictor
BTB has LRU replacement policy
ITLB has LRU replacement policy
DTLB has LRU replacement policy
STLB has LRU replacement policy
L1I has LRU replacement policy
L1D has LRU replacement policy
ST_WAYS: 256
PT_SETS: 512
L2C has LRU replacement policy
LLC has LRU replacement policy
Heartbeat CPU 0 instructions: 10000001 cycles: 3325397 heartbeat IPC: 3.00716 cumulative IPC: 3.00716 (Simulation time: 0 hr 7 min 51 sec) 

Warmup complete CPU 0 instructions: 10000001 cycles: 3325397 (Simulation time: 0 hr 7 min 51 sec) 

Heartbeat CPU 0 instructions: 20000003 cycles: 63793562 heartbeat IPC: 0.165376 cumulative IPC: 0.165376 (Simulation time: 0 hr 20 min 21 sec) 
Heartbeat CPU 0 instructions: 30000000 cycles: 123268746 heartbeat IPC: 0.168137 cumulative IPC: 0.166745 (Simulation time: 0 hr 32 min 35 sec) 
Heartbeat CPU 0 instructions: 40000003 cycles: 182677820 heartbeat IPC: 0.168325 cumulative IPC: 0.167268 (Simulation time: 0 hr 44 min 49 sec) 
Heartbeat CPU 0 instructions: 50000001 cycles: 243021340 heartbeat IPC: 0.165718 cumulative IPC: 0.166878 (Simulation time: 0 hr 56 min 11 sec) 
Heartbeat CPU 0 instructions: 60000001 cycles: 303196940 heartbeat IPC: 0.16618 cumulative IPC: 0.166738 (Simulation time: 1 hr 5 min 26 sec) 
Finished CPU 0 instructions: 50000000 cycles: 299871543 cumulative IPC: 0.166738 (Simulation time: 1 hr 5 min 26 sec) 

ChampSim completed all CPUs

Region of Interest Statistics

CPU 0 cumulative IPC: 0.166738 instructions: 50000000 cycles: 299871543
ITLB TOTAL     ACCESS:    8909252  HIT:    8909252  MISS:          0  HIT %:        100  MISS %:          0   MPKI: 0
ITLB LOAD TRANSLATION ACCESS:    8909252  HIT:    8909252  MISS:          0  HIT %:        100  MISS %:          0   MPKI: 0
ITLB PREFETCH  REQUESTED:          0  ISSUED:          0  USEFUL:          0  USELESS:          0
ITLB USEFUL LOAD PREFETCHES:          0 PREFETCH ISSUED TO LOWER LEVEL:          0  ACCURACY: -nan
ITLB TIMELY PREFETCHES:          0 LATE PREFETCHES: 0 DROPPED PREFETCHES: 0
ITLB PREFETCHES SAME FILL-ORIGIN LEVEL: 0 DIFFERENT FILL-ORIGIN LEVEL: 0
ITLB AVERAGE MISS LATENCY: -nan cycles
ITLB RQ	ACCESS:    9326482	FORWARD:          0	MERGED:     417230	TO_CACHE:    8909252

DTLB TOTAL     ACCESS:   14853881  HIT:   13558827  MISS:    1295054  HIT %:    91.2814  MISS %:    8.71862   MPKI: 25.9011
DTLB LOAD TRANSLATION ACCESS:   14853881  HIT:   13558827  MISS:    1295054  HIT %:    91.2814  MISS %:    8.71862   MPKI: 25.9011
DTLB PREFETCH  REQUESTED:          0  ISSUED:          0  USEFUL:          0  USELESS:          0
DTLB USEFUL LOAD PREFETCHES:          0 PREFETCH ISSUED TO LOWER LEVEL:          0  ACCURACY: -nan
DTLB TIMELY PREFETCHES:          0 LATE PREFETCHES: 0 DROPPED PREFETCHES: 0
DTLB PREFETCHES SAME FILL-ORIGIN LEVEL: 0 DIFFERENT FILL-ORIGIN LEVEL: 0
DTLB AVERAGE MISS LATENCY: 11.307 cycles
DTLB RQ	ACCESS:   18160781	FORWARD:          0	MERGED:    3202598	TO_CACHE:   14958183

STLB TOTAL     ACCESS:    1295054  HIT:    1278567  MISS:      16487  HIT %:    98.7269  MISS %:    1.27307   MPKI: 0.32974
STLB LOAD TRANSLATION ACCESS:    1295054  HIT:    1278567  MISS:      16487  HIT %:    98.7269  MISS %:    1.27307   MPKI: 0.32974
STLB PREFETCH  REQUESTED:          0  ISSUED:          0  USEFUL:          0  USELESS:          0
STLB USEFUL LOAD PREFETCHES:          0 PREFETCH ISSUED TO LOWER LEVEL:          0  ACCURACY: -nan
STLB TIMELY PREFETCHES:          0 LATE PREFETCHES: 0 DROPPED PREFETCHES: 0
STLB PREFETCHES SAME FILL-ORIGIN LEVEL: 0 DIFFERENT FILL-ORIGIN LEVEL: 0
STLB AVERAGE MISS LATENCY: 172.79 cycles
STLB RQ	ACCESS:    1295054	FORWARD:          0	MERGED:          0	TO_CACHE:    1295054

STLB Hit, L1D data hit: 0
STLB Hit, L2C data hit: 0
STLB Hit, LLC data hit: 0
STLB Hit, LLC data miss: 0
STLB STLB hints to L2: 0
L1D TOTAL     ACCESS:   17756168  HIT:   15160976  MISS:    2595192  HIT %:    85.3843  MISS %:    14.6157   MPKI: 51.9038
L1D LOAD      ACCESS:   12893926  HIT:   10474555  MISS:    2419371  HIT %:    81.2364  MISS %:    18.7636   MPKI: 48.3874
L1D RFO       ACCESS:    4862242  HIT:    4686421  MISS:     175821  HIT %:     96.384  MISS %:    3.61605   MPKI: 3.51642
L1D PREFETCH  REQUESTED:          0  ISSUED:          0  USEFUL:          0  USELESS:          0
L1D USEFUL LOAD PREFETCHES:          0 PREFETCH ISSUED TO LOWER LEVEL:          0  ACCURACY: -nan
L1D TIMELY PREFETCHES:          0 LATE PREFETCHES: 0 DROPPED PREFETCHES: 0
L1D PREFETCHES SAME FILL-ORIGIN LEVEL: 0 DIFFERENT FILL-ORIGIN LEVEL: 0
L1D AVERAGE MISS LATENCY: 171.073 cycles
L1D RQ	ACCESS:   17083017	FORWARD:          0	MERGED:    3599719	TO_CACHE:   12994201
L1D WQ	ACCESS:    5189939	FORWARD:     489097	MERGED:      23359	TO_CACHE:    5166580

L1D UNIQUE REGIONS ACCESSED: 0
L1D REGIONS CONFLICTS: 0
L1D Cross Page Prefetch Requests: 0
L1D Same Page Prefetch Requests: 0
L1D ROI Sum of L1D PQ occupancy: 0
L1D PREFETCHES PUSHED FROM L2C: 0
L1I TOTAL     ACCESS:    9326482  HIT:    9326482  MISS:          0  HIT %:        100  MISS %:          0   MPKI: 0
L1I LOAD      ACCESS:    9326482  HIT:    9326482  MISS:          0  HIT %:        100  MISS %:          0   MPKI: 0
L1I PREFETCH  REQUESTED:          0  ISSUED:          0  USEFUL:          0  USELESS:          0
L1I USEFUL LOAD PREFETCHES:          0 PREFETCH ISSUED TO LOWER LEVEL:          0  ACCURACY: -nan
L1I TIMELY PREFETCHES:          0 LATE PREFETCHES: 0 DROPPED PREFETCHES: 0
L1I PREFETCHES SAME FILL-ORIGIN LEVEL: 0 DIFFERENT FILL-ORIGIN LEVEL: 0
L1I AVERAGE MISS LATENCY: -nan cycles
L1I RQ	ACCESS:   14454388	FORWARD:          0	MERGED:    5127906	TO_CACHE:    9326482

BTB TOTAL     ACCESS:   11600278  HIT:   11097954  MISS:     502324  HIT %:    95.6697  MISS %:    4.33028   MPKI: 10.0465
BTB BRANCH_DIRECT_JUMP	ACCESS:    1321999  HIT:    1321963  MISS:         36
BTB BRANCH_INDIRECT	ACCESS:          0  HIT:          0  MISS:          0
BTB BRANCH_CONDITIONAL	ACCESS:    7949724  HIT:    7949650  MISS:         74
BTB BRANCH_DIRECT_CALL	ACCESS:    1094376  HIT:    1094358  MISS:         18
BTB BRANCH_INDIRECT_CALL	ACCESS:      69902  HIT:      69894  MISS:          8
BTB BRANCH_RETURN	ACCESS:    1164277  HIT:     662089  MISS:     502188
BTB BRANCH_OTHER ACCESS:          0  HIT:          0  MISS:          0

L2C TOTAL     ACCESS:    3009848  HIT:     990038  MISS:    2019810  HIT %:    32.8933  MISS %:    67.1067   MPKI: 40.3962
L2C LOAD      ACCESS:    2419355  HIT:     553147  MISS:    1866208  HIT %:    22.8634  MISS %:    77.1366   MPKI: 37.3242
L2C DATA LOAD MPKI: 37.3242
L2C INSTRUCTION LOAD MPKI: 0
L2C RFO       ACCESS:     175821  HIT:     115150  MISS:      60671  HIT %:    65.4927  MISS %:    34.5073   MPKI: 1.21342
L2C PREFETCH  ACCESS:     153856  HIT:      67078  MISS:      86778  HIT %:    43.5979  MISS %:    56.4021   MPKI: 1.73556
L2C DATA PREFETCH MPKI: 1.73556
L2C INSTRUCTION PREFETCH MPKI: 0
L2C WRITEBACK ACCESS:     244280  HIT:     244060  MISS:        220  HIT %:    99.9099  MISS %:  0.0900606   MPKI: 0.0044
L2C LOAD TRANSLATION ACCESS:      16536  HIT:      10603  MISS:       5933  HIT %:    64.1207  MISS %:    35.8793   MPKI: 0.11866
L2C PREFETCH  REQUESTED:    3065211  ISSUED:    3065156  USEFUL:      71238  USELESS:      15528
L2C USEFUL LOAD PREFETCHES:      71238 PREFETCH ISSUED TO LOWER LEVEL:    2390428  ACCURACY: 2.98014
L2C TIMELY PREFETCHES:      71238 LATE PREFETCHES: 113042 DROPPED PREFETCHES: 0
L2C PREFETCHES SAME FILL-ORIGIN LEVEL: 199820 DIFFERENT FILL-ORIGIN LEVEL: 2190608
L2C AVERAGE MISS LATENCY: 212.053 cycles
L2C RQ	ACCESS:    2611728	FORWARD:          0	MERGED:          0	TO_CACHE:    2611712
L2C WQ	ACCESS:     244280	FORWARD:         16	MERGED:          0	TO_CACHE:     244280
L2C PQ	ACCESS:    3065156	FORWARD:          0	MERGED:     461341	TO_CACHE:    2603815

L2C Instructions Evicting Data 0
L2C Translations Evicting Data 5889
L2C Data Evicting Data 2007765
L2C Instructions Evicting Instructions 0
L2C Translations Evicting Instructions 0
L2C Data Evicting Instructions 0
L2C Instructions Evicting Translations 0
L2C Translations Evicting Translations 44
L2C Data Evicting Translations 5892
L2C Dense regions hint from L2: 0
PSCL5 TOTAL     ACCESS:      16487  HIT:      16487  MISS:          0  HIT %:        100  MISS %:          0   MPKI: 0
PSCL5 LOAD TRANSLATION ACCESS:      16487  HIT:      16487  MISS:          0  HIT %:        100  MISS %:          0   MPKI: 0
PSCL5 PREFETCH  REQUESTED:          0  ISSUED:          0  USEFUL:          0  USELESS:          0
PSCL5 USEFUL LOAD PREFETCHES:          0 PREFETCH ISSUED TO LOWER LEVEL:          0  ACCURACY: -nan
PSCL5 TIMELY PREFETCHES:          0 LATE PREFETCHES: 0 DROPPED PREFETCHES: 0
PSCL5 PREFETCHES SAME FILL-ORIGIN LEVEL: 0 DIFFERENT FILL-ORIGIN LEVEL: 0

PSCL4 TOTAL     ACCESS:      16487  HIT:      16487  MISS:          0  HIT %:        100  MISS %:          0   MPKI: 0
PSCL4 LOAD TRANSLATION ACCESS:      16487  HIT:      16487  MISS:          0  HIT %:        100  MISS %:          0   MPKI: 0
PSCL4 PREFETCH  REQUESTED:          0  ISSUED:          0  USEFUL:          0  USELESS:          0
PSCL4 USEFUL LOAD PREFETCHES:          0 PREFETCH ISSUED TO LOWER LEVEL:          0  ACCURACY: -nan
PSCL4 TIMELY PREFETCHES:          0 LATE PREFETCHES: 0 DROPPED PREFETCHES: 0
PSCL4 PREFETCHES SAME FILL-ORIGIN LEVEL: 0 DIFFERENT FILL-ORIGIN LEVEL: 0

PSCL3 TOTAL     ACCESS:      16487  HIT:      16487  MISS:          0  HIT %:        100  MISS %:          0   MPKI: 0
PSCL3 LOAD TRANSLATION ACCESS:      16487  HIT:      16487  MISS:          0  HIT %:        100  MISS %:          0   MPKI: 0
PSCL3 PREFETCH  REQUESTED:          0  ISSUED:          0  USEFUL:          0  USELESS:          0
PSCL3 USEFUL LOAD PREFETCHES:          0 PREFETCH ISSUED TO LOWER LEVEL:          0  ACCURACY: -nan
PSCL3 TIMELY PREFETCHES:          0 LATE PREFETCHES: 0 DROPPED PREFETCHES: 0
PSCL3 PREFETCHES SAME FILL-ORIGIN LEVEL: 0 DIFFERENT FILL-ORIGIN LEVEL: 0

PSCL2 TOTAL     ACCESS:      16487  HIT:      16331  MISS:        156  HIT %:    99.0538  MISS %:     0.9462   MPKI: 0.00312
PSCL2 LOAD TRANSLATION ACCESS:      16487  HIT:      16331  MISS:        156  HIT %:    99.0538  MISS %:     0.9462   MPKI: 0.00312
PSCL2 PREFETCH  REQUESTED:          0  ISSUED:          0  USEFUL:          0  USELESS:          0
PSCL2 USEFUL LOAD PREFETCHES:          0 PREFETCH ISSUED TO LOWER LEVEL:          0  ACCURACY: -nan
PSCL2 TIMELY PREFETCHES:          0 LATE PREFETCHES: 0 DROPPED PREFETCHES: 0
PSCL2 PREFETCHES SAME FILL-ORIGIN LEVEL: 0 DIFFERENT FILL-ORIGIN LEVEL: 0

LLC TOTAL     ACCESS:    3371702  HIT:    2338339  MISS:    1033363  HIT %:    69.3519  MISS %:    30.6481   MPKI: 20.6673
LLC LOAD      ACCESS:    1753166  HIT:    1308743  MISS:     444423  HIT %:    74.6503  MISS %:    25.3497   MPKI: 8.88846
LLC RFO       ACCESS:      60671  HIT:      59275  MISS:       1396  HIT %:    97.6991  MISS %:    2.30093   MPKI: 0.02792
LLC PREFETCH  ACCESS:    1412919  HIT:     831510  MISS:     581409  HIT %:    58.8505  MISS %:    41.1495   MPKI: 11.6282
LLC WRITEBACK ACCESS:     139013  HIT:     135408  MISS:       3605  HIT %:    97.4067  MISS %:    2.59328   MPKI: 0.0721
LLC LOAD TRANSLATION ACCESS:       5933  HIT:       3403  MISS:       2530  HIT %:    57.3572  MISS %:    42.6428   MPKI: 0.0506
LLC PREFETCH  REQUESTED:          0  ISSUED:          0  USEFUL:     330429  USELESS:     248382
LLC USEFUL LOAD PREFETCHES:     330429 PREFETCH ISSUED TO LOWER LEVEL:     741090  ACCURACY: 44.5869
LLC TIMELY PREFETCHES:     330429 LATE PREFETCHES: 159681 DROPPED PREFETCHES: 0
LLC PREFETCHES SAME FILL-ORIGIN LEVEL: 723417 DIFFERENT FILL-ORIGIN LEVEL: 0
LLC AVERAGE MISS LATENCY: 683.212 cycles
LLC RQ	ACCESS:    1819770	FORWARD:          0	MERGED:          0	TO_CACHE:    1819770
LLC WQ	ACCESS:     139013	FORWARD:          0	MERGED:          0	TO_CACHE:     139013
LLC PQ	ACCESS:    2390428	FORWARD:          0	MERGED:     114724	TO_CACHE:    2275704

LLC Dense regions hint to LLC: 0

RAW hits: 652516
Loads Generated: 17735533
Loads sent to L1D: 17083017
Stores Generated: 5189909
Stores sent to L1D: 5189939
Major fault: 0 Minor fault: 14980
Allocated PAGES: 14980
 All Calls: 2886144
 Critical Calls: 2886144
------------------
Depth Distribution
------------------
depth 0: 0
depth 1: 1004507
depth 2: 898397
depth 3: 757677
depth 4: 518374
depth 5: 292817
depth 6: 74588
depth 7: 3365
depth 8: 140
depth 9: 2
depth 10: 0
depth 11: 0
depth 12: 0
depth 13: 0
depth 14: 0
depth 15: 0
depth 16: 0
depth 17: 0
depth 18: 0
depth 19: 0
depth 20: 0
depth 21: 0
depth 22: 0
depth 23: 0
depth 24: 0
depth 25: 0
depth 26: 0
depth 27: 0
depth 28: 0
depth 29: 0
Total: 3549867
-----------------------------
-----------------------------
	Captured at Filter
-----------------------------
depth 0: 0
depth 1: 10267
depth 2: 1910
depth 3: 1557
depth 4: 1100
depth 5: 649
depth 6: 161
depth 7: 11
depth 8: 0
depth 9: 0
depth 10: 0
depth 11: 0
depth 12: 0
depth 13: 0
depth 14: 0
depth 15: 0
depth 16: 0
depth 17: 0
depth 18: 0
depth 19: 0
depth 20: 0
depth 21: 0
depth 22: 0
depth 23: 0
depth 24: 0
depth 25: 0
depth 26: 0
depth 27: 0
depth 28: 0
depth 29: 0
-----------------------------
-----------------------------
		Lost at Page
-----------------------------
depth 0: 0
depth 1: 16880
depth 2: 27940
depth 3: 35273
depth 4: 33054
depth 5: 23657
depth 6: 7291
depth 7: 415
depth 8: 16
depth 9: 0
depth 10: 0
depth 11: 0
depth 12: 0
depth 13: 0
depth 14: 0
depth 15: 0
depth 16: 0
depth 17: 0
depth 18: 0
depth 19: 0
depth 20: 0
depth 21: 0
depth 22: 0
depth 23: 0
depth 24: 0
depth 25: 0
depth 26: 0
depth 27: 0
depth 28: 0
depth 29: 0
-----------------------------
-----------------------------
	Lost due to PQ Size
-----------------------------
9888
-----------------------------
ST read accesses: 1668373
ST write accesses: 750982
PT read accesses: 31722530
PT write accesses: 2093259
FILTER read accesses: 7518958
FILTER write accesses: 2541139
GHR read accesses: 6621724
GHR write accesses: 126644
GHR counter read accesses: 27327690
GHR counter write accesses: 2927877
ST tag read accesses: 1314343177
ST tag write accesses: 257702222

DRAM Statistics
 CHANNEL 0
 RQ ROW_BUFFER_HIT:     464086  ROW_BUFFER_MISS:     565667
 DBUS_CONGESTED:     927589
 WQ ROW_BUFFER_HIT:       1472  ROW_BUFFER_MISS:       8271  FULL:          0

 AVG_CONGESTED_CYCLE: 145
 All warmup complete: 2
Channel 0 Bank busy for read cycles: 0
Channel 0 Bank busy for write cycles: 0
Channel 0
Rank 0
0banks busy for read cycles: 140819449
0banks busy for write cycles: 7791
1banks busy for read cycles: 30752510
1banks busy for write cycles: 2888620
2banks busy for read cycles: 26730050
2banks busy for write cycles: 544573
3banks busy for read cycles: 23531972
3banks busy for write cycles: 117948
4banks busy for read cycles: 20717786
4banks busy for write cycles: 38202
5banks busy for read cycles: 17739772
5banks busy for write cycles: 13159
6banks busy for read cycles: 14300865
6banks busy for write cycles: 9210
7banks busy for read cycles: 10797583
7banks busy for write cycles: 3318
8banks busy for read cycles: 10857970
8banks busy for write cycles: 766

CPU 0 Branch Prediction Accuracy: 90.105% MPKI: 24.6801 Average ROB Occupancy at Mispredict: 15.183
Branch types
NOT_BRANCH: 37528554 75.0571%
BRANCH_DIRECT_JUMP: 1321999 2.644%
BRANCH_INDIRECT: 0 0%
BRANCH_CONDITIONAL: 8820511 17.641%
BRANCH_DIRECT_CALL: 1094376 2.18875%
BRANCH_INDIRECT_CALL: 69902 0.139804%
BRANCH_RETURN: 1164277 2.32855%
BRANCH_OTHER: 0 0%

@sumon_overall_L1D         0         0         0         0         0         0
@Sumon_Early_by_class_L1D         0         0         0         0
@Sumon_Late_by_class_L1D         0         0         0         0

@Sumon_Early_by_cycle_L1D         0         0         0         0         0         0         0         0         0         0         0         0
@Sumon_Late_by_cycle_L1D         0         0         0         0         0         0         0         0         0         0         0         0
@Sumon_Early_stream_L1D         0         0         0         0         0         0         0         0         0         0         0         0
@Sumon_Early_CS_L1D         0         0         0         0         0         0         0         0         0         0         0         0
@Sumon_Early_CPLX_L1D         0         0         0         0         0         0         0         0         0         0         0         0
@Sumon_Late_stream_L1D         0         0         0         0         0         0         0         0         0         0         0         0
@Sumon_Late_CS_L1D         0         0         0         0         0         0         0         0         0         0         0         0
@Sumon_Late_CPLX_L1D         0         0         0         0         0         0         0         0         0         0         0         0
@sumon_overall_L2C     71238    113042     15528     86778   3065156   3065211
@Sumon_Early_by_class_L2C         0         0         0         0
@Sumon_Late_by_class_L2C         0         0         0         0

@Sumon_Early_by_cycle_L2C      4387     22718     11064      9130      9839     12387       280       359       373       197        43       461
@Sumon_Late_by_cycle_L2C     62626     10715     13533     10010      7036      9053        69         0         0         0         0         0
@Sumon_Early_stream_L2C         0         0         0         0         0         0         0         0         0         0         0         0
@Sumon_Early_CS_L2C         0         0         0         0         0         0         0         0         0         0         0         0
@Sumon_Early_CPLX_L2C         0         0         0         0         0         0         0         0         0         0         0         0
@Sumon_Late_stream_L2C         0         0         0         0         0         0         0         0         0         0         0         0
@Sumon_Late_CS_L2C         0         0         0         0         0         0         0         0         0         0         0         0
@Sumon_Late_CPLX_L2C         0         0         0         0         0         0         0         0         0         0         0         0
DRAM PAGES: 1048576
Allocated PAGES: 14980
