Initialize SIGNATURE TABLE
ST_SET: 1
ST_WAY: 256
ST_TAG_BIT: 16
ST_TAG_MASK: ffff

Initialize PATTERN TABLE
PT_SET: 512
PT_WAY: 4
SIG_DELTA_BIT: 7
C_SIG_BIT: 4
C_DELTA_BIT: 4

Initialize PREFETCH FILTER
FILTER_SET: 1024

*** ChampSim Multicore Out-of-Order Simulator ***

Warmup Instructions: 10000000
Simulation Instructions: 50000000
Number of CPUs: 1
LLC sets: 2048
LLC ways: 16
Off-chip DRAM Size: 4096 MB Channels: 1 Width: 64-bit Data Rate: 200 MT/s
CPU 0 runs traces/SPEC2017/620.omnetpp_s-874B.champsimtrace.xz
.xz
CPU 0 Bimodal branch predictor
BTB has LRU replacement policy
ITLB has LRU replacement policy
DTLB has LRU replacement policy
STLB has LRU replacement policy
L1I has LRU replacement policy
L1D has LRU replacement policy
ST_WAYS: 256
PT_SETS: 512
L2C has LRU replacement policy
LLC has LRU replacement policy
Heartbeat CPU 0 instructions: 10000001 cycles: 3904623 heartbeat IPC: 2.56107 cumulative IPC: 2.56107 (Simulation time: 0 hr 8 min 18 sec) 

Warmup complete CPU 0 instructions: 10000001 cycles: 3904623 (Simulation time: 0 hr 8 min 18 sec) 

Heartbeat CPU 0 instructions: 20000000 cycles: 54305501 heartbeat IPC: 0.198409 cumulative IPC: 0.198409 (Simulation time: 0 hr 21 min 2 sec) 
Heartbeat CPU 0 instructions: 30000002 cycles: 104596901 heartbeat IPC: 0.198841 cumulative IPC: 0.198625 (Simulation time: 0 hr 33 min 47 sec) 
Heartbeat CPU 0 instructions: 40000000 cycles: 155444877 heartbeat IPC: 0.196665 cumulative IPC: 0.197967 (Simulation time: 0 hr 46 min 26 sec) 
Heartbeat CPU 0 instructions: 50000001 cycles: 206353170 heartbeat IPC: 0.196432 cumulative IPC: 0.197581 (Simulation time: 0 hr 57 min 32 sec) 
Heartbeat CPU 0 instructions: 60000001 cycles: 257132934 heartbeat IPC: 0.196929 cumulative IPC: 0.19745 (Simulation time: 1 hr 6 min 18 sec) 
Finished CPU 0 instructions: 50000000 cycles: 253228311 cumulative IPC: 0.19745 (Simulation time: 1 hr 6 min 18 sec) 

ChampSim completed all CPUs

Region of Interest Statistics

CPU 0 cumulative IPC: 0.19745 instructions: 50000000 cycles: 253228311
ITLB TOTAL     ACCESS:    8265860  HIT:    8186233  MISS:      79627  HIT %:    99.0367  MISS %:   0.963324   MPKI: 1.59254
ITLB LOAD TRANSLATION ACCESS:    8265860  HIT:    8186233  MISS:      79627  HIT %:    99.0367  MISS %:   0.963324   MPKI: 1.59254
ITLB PREFETCH  REQUESTED:          0  ISSUED:          0  USEFUL:          0  USELESS:          0
ITLB USEFUL LOAD PREFETCHES:          0 PREFETCH ISSUED TO LOWER LEVEL:          0  ACCURACY: -nan
ITLB TIMELY PREFETCHES:          0 LATE PREFETCHES: 0 DROPPED PREFETCHES: 0
ITLB PREFETCHES SAME FILL-ORIGIN LEVEL: 0 DIFFERENT FILL-ORIGIN LEVEL: 0
ITLB AVERAGE MISS LATENCY: 10.0297 cycles
ITLB RQ	ACCESS:    9321065	FORWARD:          0	MERGED:    1030845	TO_CACHE:    8290220

DTLB TOTAL     ACCESS:   19490056  HIT:   18530806  MISS:     959250  HIT %:    95.0783  MISS %:    4.92174   MPKI: 19.185
DTLB LOAD TRANSLATION ACCESS:   19490056  HIT:   18530806  MISS:     959250  HIT %:    95.0783  MISS %:    4.92174   MPKI: 19.185
DTLB PREFETCH  REQUESTED:          0  ISSUED:          0  USEFUL:          0  USELESS:          0
DTLB USEFUL LOAD PREFETCHES:          0 PREFETCH ISSUED TO LOWER LEVEL:          0  ACCURACY: -nan
DTLB TIMELY PREFETCHES:          0 LATE PREFETCHES: 0 DROPPED PREFETCHES: 0
DTLB PREFETCHES SAME FILL-ORIGIN LEVEL: 0 DIFFERENT FILL-ORIGIN LEVEL: 0
DTLB AVERAGE MISS LATENCY: 34.1219 cycles
DTLB RQ	ACCESS:   21995263	FORWARD:          0	MERGED:    2489964	TO_CACHE:   19505299

STLB TOTAL     ACCESS:    1038877  HIT:     823108  MISS:     215769  HIT %:    79.2306  MISS %:    20.7694   MPKI: 4.31538
STLB LOAD TRANSLATION ACCESS:    1038877  HIT:     823108  MISS:     215769  HIT %:    79.2306  MISS %:    20.7694   MPKI: 4.31538
STLB PREFETCH  REQUESTED:          0  ISSUED:          0  USEFUL:          0  USELESS:          0
STLB USEFUL LOAD PREFETCHES:          0 PREFETCH ISSUED TO LOWER LEVEL:          0  ACCURACY: -nan
STLB TIMELY PREFETCHES:          0 LATE PREFETCHES: 0 DROPPED PREFETCHES: 0
STLB PREFETCHES SAME FILL-ORIGIN LEVEL: 0 DIFFERENT FILL-ORIGIN LEVEL: 0
STLB AVERAGE MISS LATENCY: 111.788 cycles
STLB RQ	ACCESS:    1038878	FORWARD:          0	MERGED:          0	TO_CACHE:    1038878

STLB Hit, L1D data hit: 0
STLB Hit, L2C data hit: 0
STLB Hit, LLC data hit: 0
STLB Hit, LLC data miss: 0
STLB STLB hints to L2: 0
L1D TOTAL     ACCESS:   21708937  HIT:   20792416  MISS:     916521  HIT %:    95.7781  MISS %:    4.22186   MPKI: 18.3304
L1D LOAD      ACCESS:   12692250  HIT:   11899382  MISS:     792868  HIT %:    93.7531  MISS %:    6.24687   MPKI: 15.8574
L1D RFO       ACCESS:    9016687  HIT:    8893034  MISS:     123653  HIT %:    98.6286  MISS %:    1.37138   MPKI: 2.47306
L1D PREFETCH  REQUESTED:          0  ISSUED:          0  USEFUL:          0  USELESS:          0
L1D USEFUL LOAD PREFETCHES:          0 PREFETCH ISSUED TO LOWER LEVEL:          0  ACCURACY: -nan
L1D TIMELY PREFETCHES:          0 LATE PREFETCHES: 0 DROPPED PREFETCHES: 0
L1D PREFETCHES SAME FILL-ORIGIN LEVEL: 0 DIFFERENT FILL-ORIGIN LEVEL: 0
L1D AVERAGE MISS LATENCY: 157.408 cycles
L1D RQ	ACCESS:   16207745	FORWARD:          0	MERGED:    2802539	TO_CACHE:   12792139
L1D WQ	ACCESS:    9281775	FORWARD:     613067	MERGED:      78651	TO_CACHE:    9203124

L1D UNIQUE REGIONS ACCESSED: 0
L1D REGIONS CONFLICTS: 0
L1D Cross Page Prefetch Requests: 0
L1D Same Page Prefetch Requests: 0
L1D ROI Sum of L1D PQ occupancy: 0
L1D PREFETCHES PUSHED FROM L2C: 0
L1I TOTAL     ACCESS:    9314607  HIT:    9296033  MISS:      18574  HIT %:    99.8006  MISS %:   0.199407   MPKI: 0.37148
L1I LOAD      ACCESS:    9314607  HIT:    9296033  MISS:      18574  HIT %:    99.8006  MISS %:   0.199407   MPKI: 0.37148
L1I PREFETCH  REQUESTED:          0  ISSUED:          0  USEFUL:          0  USELESS:          0
L1I USEFUL LOAD PREFETCHES:          0 PREFETCH ISSUED TO LOWER LEVEL:          0  ACCURACY: -nan
L1I TIMELY PREFETCHES:          0 LATE PREFETCHES: 0 DROPPED PREFETCHES: 0
L1I PREFETCHES SAME FILL-ORIGIN LEVEL: 0 DIFFERENT FILL-ORIGIN LEVEL: 0
L1I AVERAGE MISS LATENCY: 30.7087 cycles
L1I RQ	ACCESS:   14346569	FORWARD:          0	MERGED:    5025504	TO_CACHE:    9321065

BTB TOTAL     ACCESS:    7896296  HIT:    7421687  MISS:     474609  HIT %:    93.9895  MISS %:    6.01053   MPKI: 9.49218
BTB BRANCH_DIRECT_JUMP	ACCESS:     569513  HIT:     569409  MISS:        104
BTB BRANCH_INDIRECT	ACCESS:     168336  HIT:     146852  MISS:      21484
BTB BRANCH_CONDITIONAL	ACCESS:    4189086  HIT:    4188659  MISS:        427
BTB BRANCH_DIRECT_CALL	ACCESS:     886019  HIT:     885794  MISS:        225
BTB BRANCH_INDIRECT_CALL	ACCESS:     598662  HIT:     596661  MISS:       2001
BTB BRANCH_RETURN	ACCESS:    1484680  HIT:    1034312  MISS:     450368
BTB BRANCH_OTHER ACCESS:          0  HIT:          0  MISS:          0

L2C TOTAL     ACCESS:    1766103  HIT:    1003816  MISS:     762287  HIT %:    56.8379  MISS %:    43.1621   MPKI: 15.2457
L2C LOAD      ACCESS:     811436  HIT:     255172  MISS:     556264  HIT %:     31.447  MISS %:     68.553   MPKI: 11.1253
L2C DATA LOAD MPKI: 11.0595
L2C INSTRUCTION LOAD MPKI: 0.06576
L2C RFO       ACCESS:     123653  HIT:      33665  MISS:      89988  HIT %:    27.2254  MISS %:    72.7746   MPKI: 1.79976
L2C PREFETCH  ACCESS:      70397  HIT:      69621  MISS:        776  HIT %:    98.8977  MISS %:    1.10232   MPKI: 0.01552
L2C DATA PREFETCH MPKI: 0.01552
L2C INSTRUCTION PREFETCH MPKI: 0
L2C WRITEBACK ACCESS:     455004  HIT:     454414  MISS:        590  HIT %:    99.8703  MISS %:   0.129669   MPKI: 0.0118
L2C LOAD TRANSLATION ACCESS:     305613  HIT:     190944  MISS:     114669  HIT %:     62.479  MISS %:     37.521   MPKI: 2.29338
L2C PREFETCH  REQUESTED:     370671  ISSUED:     370671  USEFUL:        481  USELESS:        293
L2C USEFUL LOAD PREFETCHES:        481 PREFETCH ISSUED TO LOWER LEVEL:     245130  ACCURACY: 0.196222
L2C TIMELY PREFETCHES:        481 LATE PREFETCHES: 439 DROPPED PREFETCHES: 0
L2C PREFETCHES SAME FILL-ORIGIN LEVEL: 1215 DIFFERENT FILL-ORIGIN LEVEL: 243915
L2C AVERAGE MISS LATENCY: 189.916 cycles
L2C RQ	ACCESS:    1240708	FORWARD:          0	MERGED:          0	TO_CACHE:    1240702
L2C WQ	ACCESS:     455004	FORWARD:          6	MERGED:          0	TO_CACHE:     455004
L2C PQ	ACCESS:     370671	FORWARD:          0	MERGED:      14385	TO_CACHE:     356286

L2C Instructions Evicting Data 2676
L2C Translations Evicting Data 96292
L2C Data Evicting Data 544730
L2C Instructions Evicting Instructions 308
L2C Translations Evicting Instructions 349
L2C Data Evicting Instructions 2634
L2C Instructions Evicting Translations 304
L2C Translations Evicting Translations 18028
L2C Data Evicting Translations 96376
L2C Dense regions hint from L2: 0
PSCL5 TOTAL     ACCESS:     215769  HIT:     215769  MISS:          0  HIT %:        100  MISS %:          0   MPKI: 0
PSCL5 LOAD TRANSLATION ACCESS:     215769  HIT:     215769  MISS:          0  HIT %:        100  MISS %:          0   MPKI: 0
PSCL5 PREFETCH  REQUESTED:          0  ISSUED:          0  USEFUL:          0  USELESS:          0
PSCL5 USEFUL LOAD PREFETCHES:          0 PREFETCH ISSUED TO LOWER LEVEL:          0  ACCURACY: -nan
PSCL5 TIMELY PREFETCHES:          0 LATE PREFETCHES: 0 DROPPED PREFETCHES: 0
PSCL5 PREFETCHES SAME FILL-ORIGIN LEVEL: 0 DIFFERENT FILL-ORIGIN LEVEL: 0

PSCL4 TOTAL     ACCESS:     215769  HIT:     215769  MISS:          0  HIT %:        100  MISS %:          0   MPKI: 0
PSCL4 LOAD TRANSLATION ACCESS:     215769  HIT:     215769  MISS:          0  HIT %:        100  MISS %:          0   MPKI: 0
PSCL4 PREFETCH  REQUESTED:          0  ISSUED:          0  USEFUL:          0  USELESS:          0
PSCL4 USEFUL LOAD PREFETCHES:          0 PREFETCH ISSUED TO LOWER LEVEL:          0  ACCURACY: -nan
PSCL4 TIMELY PREFETCHES:          0 LATE PREFETCHES: 0 DROPPED PREFETCHES: 0
PSCL4 PREFETCHES SAME FILL-ORIGIN LEVEL: 0 DIFFERENT FILL-ORIGIN LEVEL: 0

PSCL3 TOTAL     ACCESS:     215769  HIT:     215769  MISS:          0  HIT %:        100  MISS %:          0   MPKI: 0
PSCL3 LOAD TRANSLATION ACCESS:     215769  HIT:     215769  MISS:          0  HIT %:        100  MISS %:          0   MPKI: 0
PSCL3 PREFETCH  REQUESTED:          0  ISSUED:          0  USEFUL:          0  USELESS:          0
PSCL3 USEFUL LOAD PREFETCHES:          0 PREFETCH ISSUED TO LOWER LEVEL:          0  ACCURACY: -nan
PSCL3 TIMELY PREFETCHES:          0 LATE PREFETCHES: 0 DROPPED PREFETCHES: 0
PSCL3 PREFETCHES SAME FILL-ORIGIN LEVEL: 0 DIFFERENT FILL-ORIGIN LEVEL: 0

PSCL2 TOTAL     ACCESS:     215769  HIT:     125925  MISS:      89844  HIT %:     58.361  MISS %:     41.639   MPKI: 1.79688
PSCL2 LOAD TRANSLATION ACCESS:     215769  HIT:     125925  MISS:      89844  HIT %:     58.361  MISS %:     41.639   MPKI: 1.79688
PSCL2 PREFETCH  REQUESTED:          0  ISSUED:          0  USEFUL:          0  USELESS:          0
PSCL2 USEFUL LOAD PREFETCHES:          0 PREFETCH ISSUED TO LOWER LEVEL:          0  ACCURACY: -nan
PSCL2 TIMELY PREFETCHES:          0 LATE PREFETCHES: 0 DROPPED PREFETCHES: 0
PSCL2 PREFETCHES SAME FILL-ORIGIN LEVEL: 0 DIFFERENT FILL-ORIGIN LEVEL: 0

LLC TOTAL     ACCESS:    1300628  HIT:     668071  MISS:     632557  HIT %:    51.3653  MISS %:    48.6347   MPKI: 12.6511
LLC LOAD      ACCESS:     555840  HIT:     179815  MISS:     376025  HIT %:    32.3501  MISS %:    67.6499   MPKI: 7.5205
LLC RFO       ACCESS:      89973  HIT:      41138  MISS:      48835  HIT %:    45.7226  MISS %:    54.2774   MPKI: 0.9767
LLC PREFETCH  ACCESS:     216247  HIT:      54216  MISS:     162031  HIT %:    25.0713  MISS %:    74.9287   MPKI: 3.24062
LLC WRITEBACK ACCESS:     323899  HIT:     321903  MISS:       1996  HIT %:    99.3838  MISS %:   0.616241   MPKI: 0.03992
LLC LOAD TRANSLATION ACCESS:     114669  HIT:      70999  MISS:      43670  HIT %:    61.9165  MISS %:    38.0835   MPKI: 0.8734
LLC PREFETCH  REQUESTED:          0  ISSUED:          0  USEFUL:      62189  USELESS:     100570
LLC USEFUL LOAD PREFETCHES:      62189 PREFETCH ISSUED TO LOWER LEVEL:     186038  ACCURACY: 33.4281
LLC TIMELY PREFETCHES:      62189 LATE PREFETCHES: 24007 DROPPED PREFETCHES: 0
LLC PREFETCHES SAME FILL-ORIGIN LEVEL: 185289 DIFFERENT FILL-ORIGIN LEVEL: 0
LLC AVERAGE MISS LATENCY: 293.27 cycles
LLC RQ	ACCESS:     760482	FORWARD:          0	MERGED:          0	TO_CACHE:     760482
LLC WQ	ACCESS:     323899	FORWARD:          0	MERGED:          0	TO_CACHE:     323899
LLC PQ	ACCESS:     245130	FORWARD:          0	MERGED:       3031	TO_CACHE:     242099

LLC Dense regions hint to LLC: 0

RAW hits: 681315
Loads Generated: 16889060
Loads sent to L1D: 16207745
Stores Generated: 9281774
Stores sent to L1D: 9281775
Major fault: 0 Minor fault: 45883
Allocated PAGES: 45883
 All Calls: 949885
 Critical Calls: 949885
------------------
Depth Distribution
------------------
depth 0: 0
depth 1: 412446
depth 2: 30109
depth 3: 633
depth 4: 11
depth 5: 0
depth 6: 0
depth 7: 0
depth 8: 0
depth 9: 0
depth 10: 0
depth 11: 0
depth 12: 0
depth 13: 0
depth 14: 0
depth 15: 0
depth 16: 0
depth 17: 0
depth 18: 0
depth 19: 0
depth 20: 0
depth 21: 0
depth 22: 0
depth 23: 0
depth 24: 0
depth 25: 0
depth 26: 0
depth 27: 0
depth 28: 0
depth 29: 0
Total: 443199
-----------------------------
-----------------------------
	Captured at Filter
-----------------------------
depth 0: 0
depth 1: 952
depth 2: 49
depth 3: 1
depth 4: 0
depth 5: 0
depth 6: 0
depth 7: 0
depth 8: 0
depth 9: 0
depth 10: 0
depth 11: 0
depth 12: 0
depth 13: 0
depth 14: 0
depth 15: 0
depth 16: 0
depth 17: 0
depth 18: 0
depth 19: 0
depth 20: 0
depth 21: 0
depth 22: 0
depth 23: 0
depth 24: 0
depth 25: 0
depth 26: 0
depth 27: 0
depth 28: 0
depth 29: 0
-----------------------------
-----------------------------
		Lost at Page
-----------------------------
depth 0: 0
depth 1: 20476
depth 2: 2246
depth 3: 30
depth 4: 0
depth 5: 0
depth 6: 0
depth 7: 0
depth 8: 0
depth 9: 0
depth 10: 0
depth 11: 0
depth 12: 0
depth 13: 0
depth 14: 0
depth 15: 0
depth 16: 0
depth 17: 0
depth 18: 0
depth 19: 0
depth 20: 0
depth 21: 0
depth 22: 0
depth 23: 0
depth 24: 0
depth 25: 0
depth 26: 0
depth 27: 0
depth 28: 0
depth 29: 0
-----------------------------
-----------------------------
	Lost due to PQ Size
-----------------------------
0
-----------------------------
ST read accesses: 483500
ST write accesses: 309362
PT read accesses: 6705539
PT write accesses: 562794
FILTER read accesses: 1926690
FILTER write accesses: 779162
GHR read accesses: 2635641
GHR write accesses: 18126
GHR counter read accesses: 6196256
GHR counter write accesses: 798859
ST tag read accesses: 463317719
ST tag write accesses: 89161118

DRAM Statistics
 CHANNEL 0
 RQ ROW_BUFFER_HIT:      56539  ROW_BUFFER_MISS:     574009
 DBUS_CONGESTED:     757662
 WQ ROW_BUFFER_HIT:      90944  ROW_BUFFER_MISS:     144640  FULL:          0

 AVG_CONGESTED_CYCLE: 125
 All warmup complete: 2
Channel 0 Bank busy for read cycles: 0
Channel 0 Bank busy for write cycles: 0
Channel 0
Rank 0
0banks busy for read cycles: 96517617
0banks busy for write cycles: 57868
1banks busy for read cycles: 55269388
1banks busy for write cycles: 13797878
2banks busy for read cycles: 24436479
2banks busy for write cycles: 10054768
3banks busy for read cycles: 10822233
3banks busy for write cycles: 8681340
4banks busy for read cycles: 4512003
4banks busy for write cycles: 7750064
5banks busy for read cycles: 1797174
5banks busy for write cycles: 6465000
6banks busy for read cycles: 610396
6banks busy for write cycles: 5107315
7banks busy for read cycles: 165355
7banks busy for write cycles: 4089204
8banks busy for read cycles: 12613
8banks busy for write cycles: 3081617

CPU 0 Branch Prediction Accuracy: 95.851% MPKI: 8.63412 Average ROB Occupancy at Mispredict: 29.7254
Branch types
NOT_BRANCH: 39594523 79.189%
BRANCH_DIRECT_JUMP: 569513 1.13903%
BRANCH_INDIRECT: 168336 0.336672%
BRANCH_CONDITIONAL: 6697939 13.3959%
BRANCH_DIRECT_CALL: 886019 1.77204%
BRANCH_INDIRECT_CALL: 598662 1.19732%
BRANCH_RETURN: 1484680 2.96936%
BRANCH_OTHER: 0 0%

@sumon_overall_L1D         0         0         0         0         0         0
@Sumon_Early_by_class_L1D         0         0         0         0
@Sumon_Late_by_class_L1D         0         0         0         0

@Sumon_Early_by_cycle_L1D         0         0         0         0         0         0         0         0         0         0         0         0
@Sumon_Late_by_cycle_L1D         0         0         0         0         0         0         0         0         0         0         0         0
@Sumon_Early_stream_L1D         0         0         0         0         0         0         0         0         0         0         0         0
@Sumon_Early_CS_L1D         0         0         0         0         0         0         0         0         0         0         0         0
@Sumon_Early_CPLX_L1D         0         0         0         0         0         0         0         0         0         0         0         0
@Sumon_Late_stream_L1D         0         0         0         0         0         0         0         0         0         0         0         0
@Sumon_Late_CS_L1D         0         0         0         0         0         0         0         0         0         0         0         0
@Sumon_Late_CPLX_L1D         0         0         0         0         0         0         0         0         0         0         0         0
@sumon_overall_L2C       481       439       293       776    370671    370671
@Sumon_Early_by_class_L2C         0         0         0         0
@Sumon_Late_by_class_L2C         0         0         0         0

@Sumon_Early_by_cycle_L2C        35        58        49        45        46        43       125        35         1         6         1        37
@Sumon_Late_by_cycle_L2C       234        90        86        24         4         1         0         0         0         0         0         0
@Sumon_Early_stream_L2C         0         0         0         0         0         0         0         0         0         0         0         0
@Sumon_Early_CS_L2C         0         0         0         0         0         0         0         0         0         0         0         0
@Sumon_Early_CPLX_L2C         0         0         0         0         0         0         0         0         0         0         0         0
@Sumon_Late_stream_L2C         0         0         0         0         0         0         0         0         0         0         0         0
@Sumon_Late_CS_L2C         0         0         0         0         0         0         0         0         0         0         0         0
@Sumon_Late_CPLX_L2C         0         0         0         0         0         0         0         0         0         0         0         0
DRAM PAGES: 1048576
Allocated PAGES: 45883
