Initialize SIGNATURE TABLE
ST_SET: 1
ST_WAY: 256
ST_TAG_BIT: 16
ST_TAG_MASK: ffff

Initialize PATTERN TABLE
PT_SET: 512
PT_WAY: 4
SIG_DELTA_BIT: 7
C_SIG_BIT: 4
C_DELTA_BIT: 4

Initialize PREFETCH FILTER
FILTER_SET: 1024

*** ChampSim Multicore Out-of-Order Simulator ***

Warmup Instructions: 10000000
Simulation Instructions: 50000000
Number of CPUs: 1
LLC sets: 2048
LLC ways: 16
Off-chip DRAM Size: 4096 MB Channels: 1 Width: 64-bit Data Rate: 200 MT/s
CPU 0 runs traces/SPEC2017/654.roms_s-1007B.champsimtrace.xz
.xz
CPU 0 Bimodal branch predictor
BTB has LRU replacement policy
ITLB has LRU replacement policy
DTLB has LRU replacement policy
STLB has LRU replacement policy
L1I has LRU replacement policy
L1D has LRU replacement policy
ST_WAYS: 256
PT_SETS: 512
L2C has LRU replacement policy
LLC has LRU replacement policy
Heartbeat CPU 0 instructions: 10000000 cycles: 3017142 heartbeat IPC: 3.31439 cumulative IPC: 3.31439 (Simulation time: 0 hr 6 min 54 sec) 

Warmup complete CPU 0 instructions: 10000004 cycles: 3017143 (Simulation time: 0 hr 6 min 54 sec) 

Heartbeat CPU 0 instructions: 20000001 cycles: 22542837 heartbeat IPC: 0.512146 cumulative IPC: 0.512146 (Simulation time: 0 hr 16 min 0 sec) 
Heartbeat CPU 0 instructions: 30000000 cycles: 42095899 heartbeat IPC: 0.511429 cumulative IPC: 0.511787 (Simulation time: 0 hr 25 min 5 sec) 
Heartbeat CPU 0 instructions: 40000000 cycles: 61644256 heartbeat IPC: 0.511552 cumulative IPC: 0.511709 (Simulation time: 0 hr 34 min 11 sec) 
Heartbeat CPU 0 instructions: 50000000 cycles: 117581347 heartbeat IPC: 0.178772 cumulative IPC: 0.349149 (Simulation time: 0 hr 53 min 30 sec) 
Heartbeat CPU 0 instructions: 60000002 cycles: 169512259 heartbeat IPC: 0.192564 cumulative IPC: 0.300309 (Simulation time: 1 hr 6 min 0 sec) 
Finished CPU 0 instructions: 50000000 cycles: 166495128 cumulative IPC: 0.300309 (Simulation time: 1 hr 6 min 0 sec) 

ChampSim completed all CPUs

Region of Interest Statistics

CPU 0 cumulative IPC: 0.300309 instructions: 50000000 cycles: 166495128
ITLB TOTAL     ACCESS:    8412019  HIT:    8412013  MISS:          6  HIT %:    99.9999  MISS %: 7.13265e-05   MPKI: 0.00012
ITLB LOAD TRANSLATION ACCESS:    8412019  HIT:    8412013  MISS:          6  HIT %:    99.9999  MISS %: 7.13265e-05   MPKI: 0.00012
ITLB PREFETCH  REQUESTED:          0  ISSUED:          0  USEFUL:          0  USELESS:          0
ITLB USEFUL LOAD PREFETCHES:          0 PREFETCH ISSUED TO LOWER LEVEL:          0  ACCURACY: -nan
ITLB TIMELY PREFETCHES:          0 LATE PREFETCHES: 0 DROPPED PREFETCHES: 0
ITLB PREFETCHES SAME FILL-ORIGIN LEVEL: 0 DIFFERENT FILL-ORIGIN LEVEL: 0
ITLB AVERAGE MISS LATENCY: 560.667 cycles
ITLB RQ	ACCESS:   10694247	FORWARD:          0	MERGED:    2282228	TO_CACHE:    8412019

DTLB TOTAL     ACCESS:   13906275  HIT:   13894947  MISS:      11328  HIT %:    99.9185  MISS %:  0.0814596   MPKI: 0.22656
DTLB LOAD TRANSLATION ACCESS:   13906275  HIT:   13894947  MISS:      11328  HIT %:    99.9185  MISS %:  0.0814596   MPKI: 0.22656
DTLB PREFETCH  REQUESTED:          0  ISSUED:          0  USEFUL:          0  USELESS:          0
DTLB USEFUL LOAD PREFETCHES:          0 PREFETCH ISSUED TO LOWER LEVEL:          0  ACCURACY: -nan
DTLB TIMELY PREFETCHES:          0 LATE PREFETCHES: 0 DROPPED PREFETCHES: 0
DTLB PREFETCHES SAME FILL-ORIGIN LEVEL: 0 DIFFERENT FILL-ORIGIN LEVEL: 0
DTLB AVERAGE MISS LATENCY: 1163.12 cycles
DTLB RQ	ACCESS:   15584609	FORWARD:          0	MERGED:    1659434	TO_CACHE:   13925175

STLB TOTAL     ACCESS:      11334  HIT:        422  MISS:      10912  HIT %:    3.72331  MISS %:    96.2767   MPKI: 0.21824
STLB LOAD TRANSLATION ACCESS:      11334  HIT:        422  MISS:      10912  HIT %:    3.72331  MISS %:    96.2767   MPKI: 0.21824
STLB PREFETCH  REQUESTED:          0  ISSUED:          0  USEFUL:          0  USELESS:          0
STLB USEFUL LOAD PREFETCHES:          0 PREFETCH ISSUED TO LOWER LEVEL:          0  ACCURACY: -nan
STLB TIMELY PREFETCHES:          0 LATE PREFETCHES: 0 DROPPED PREFETCHES: 0
STLB PREFETCHES SAME FILL-ORIGIN LEVEL: 0 DIFFERENT FILL-ORIGIN LEVEL: 0
STLB AVERAGE MISS LATENCY: 1198.23 cycles
STLB RQ	ACCESS:      11334	FORWARD:          0	MERGED:          0	TO_CACHE:      11334

STLB Hit, L1D data hit: 0
STLB Hit, L2C data hit: 0
STLB Hit, LLC data hit: 0
STLB Hit, LLC data miss: 0
STLB STLB hints to L2: 0
L1D TOTAL     ACCESS:   14588624  HIT:   14137775  MISS:     450849  HIT %:    96.9096  MISS %:    3.09041   MPKI: 9.01698
L1D LOAD      ACCESS:    9678598  HIT:    9381481  MISS:     297117  HIT %:    96.9302  MISS %:    3.06984   MPKI: 5.94234
L1D RFO       ACCESS:    4910026  HIT:    4756294  MISS:     153732  HIT %:     96.869  MISS %:    3.13098   MPKI: 3.07464
L1D PREFETCH  REQUESTED:          0  ISSUED:          0  USEFUL:          0  USELESS:          0
L1D USEFUL LOAD PREFETCHES:          0 PREFETCH ISSUED TO LOWER LEVEL:          0  ACCURACY: -nan
L1D TIMELY PREFETCHES:          0 LATE PREFETCHES: 0 DROPPED PREFETCHES: 0
L1D PREFETCHES SAME FILL-ORIGIN LEVEL: 0 DIFFERENT FILL-ORIGIN LEVEL: 0
L1D AVERAGE MISS LATENCY: 1847.03 cycles
L1D RQ	ACCESS:   12546417	FORWARD:          0	MERGED:    2746379	TO_CACHE:    9793001
L1D WQ	ACCESS:    6118340	FORWARD:       7037	MERGED:     326732	TO_CACHE:    5791608

L1D UNIQUE REGIONS ACCESSED: 0
L1D REGIONS CONFLICTS: 0
L1D Cross Page Prefetch Requests: 0
L1D Same Page Prefetch Requests: 0
L1D ROI Sum of L1D PQ occupancy: 0
L1D PREFETCHES PUSHED FROM L2C: 0
L1I TOTAL     ACCESS:   10694225  HIT:   10694162  MISS:         63  HIT %:    99.9994  MISS %: 0.000589103   MPKI: 0.00126
L1I LOAD      ACCESS:   10694225  HIT:   10694162  MISS:         63  HIT %:    99.9994  MISS %: 0.000589103   MPKI: 0.00126
L1I PREFETCH  REQUESTED:          0  ISSUED:          0  USEFUL:          0  USELESS:          0
L1I USEFUL LOAD PREFETCHES:          0 PREFETCH ISSUED TO LOWER LEVEL:          0  ACCURACY: -nan
L1I TIMELY PREFETCHES:          0 LATE PREFETCHES: 0 DROPPED PREFETCHES: 0
L1I PREFETCHES SAME FILL-ORIGIN LEVEL: 0 DIFFERENT FILL-ORIGIN LEVEL: 0
L1I AVERAGE MISS LATENCY: 755.175 cycles
L1I RQ	ACCESS:   14049976	FORWARD:          0	MERGED:    3355729	TO_CACHE:   10694247

BTB TOTAL     ACCESS:    3139531  HIT:    2812744  MISS:     326787  HIT %:    89.5912  MISS %:    10.4088   MPKI: 6.53574
BTB BRANCH_DIRECT_JUMP	ACCESS:     326747  HIT:     326739  MISS:          8
BTB BRANCH_INDIRECT	ACCESS:          0  HIT:          0  MISS:          0
BTB BRANCH_CONDITIONAL	ACCESS:    1505847  HIT:    1505816  MISS:         31
BTB BRANCH_DIRECT_CALL	ACCESS:     653469  HIT:     653459  MISS:         10
BTB BRANCH_INDIRECT_CALL	ACCESS:          0  HIT:          0  MISS:          0
BTB BRANCH_RETURN	ACCESS:     653468  HIT:     326730  MISS:     326738
BTB BRANCH_OTHER ACCESS:          0  HIT:          0  MISS:          0

L2C TOTAL     ACCESS:     791251  HIT:     335905  MISS:     455346  HIT %:    42.4524  MISS %:    57.5476   MPKI: 9.10692
L2C LOAD      ACCESS:     297180  HIT:     173752  MISS:     123428  HIT %:    58.4669  MISS %:    41.5331   MPKI: 2.46856
L2C DATA LOAD MPKI: 2.4673
L2C INSTRUCTION LOAD MPKI: 0.00126
L2C RFO       ACCESS:     153732  HIT:          1  MISS:     153731  HIT %: 0.000650483  MISS %:    99.9993   MPKI: 3.07462
L2C PREFETCH  ACCESS:     175684  HIT:         58  MISS:     175626  HIT %:  0.0330138  MISS %:     99.967   MPKI: 3.51252
L2C DATA PREFETCH MPKI: 3.51252
L2C INSTRUCTION PREFETCH MPKI: 0
L2C WRITEBACK ACCESS:     153734  HIT:     153531  MISS:        203  HIT %:     99.868  MISS %:   0.132046   MPKI: 0.00406
L2C LOAD TRANSLATION ACCESS:      10921  HIT:       8563  MISS:       2358  HIT %:    78.4086  MISS %:    21.5914   MPKI: 0.04716
L2C PREFETCH  REQUESTED:    2224812  ISSUED:    2049569  USEFUL:     173752  USELESS:       1876
L2C USEFUL LOAD PREFETCHES:     173752 PREFETCH ISSUED TO LOWER LEVEL:    1990486  ACCURACY: 8.72912
L2C TIMELY PREFETCHES:     173752 LATE PREFETCHES: 23217 DROPPED PREFETCHES: 0
L2C PREFETCHES SAME FILL-ORIGIN LEVEL: 198843 DIFFERENT FILL-ORIGIN LEVEL: 1791643
L2C AVERAGE MISS LATENCY: 1907.38 cycles
L2C RQ	ACCESS:     461833	FORWARD:          0	MERGED:          0	TO_CACHE:     461833
L2C WQ	ACCESS:     153734	FORWARD:          0	MERGED:          0	TO_CACHE:     153734
L2C PQ	ACCESS:    2049569	FORWARD:          0	MERGED:      51983	TO_CACHE:    1997586

L2C Instructions Evicting Data 62
L2C Translations Evicting Data 2352
L2C Data Evicting Data 449698
L2C Instructions Evicting Instructions 0
L2C Translations Evicting Instructions 0
L2C Data Evicting Instructions 45
L2C Instructions Evicting Translations 1
L2C Translations Evicting Translations 2
L2C Data Evicting Translations 2339
L2C Dense regions hint from L2: 0
PSCL5 TOTAL     ACCESS:      10912  HIT:      10912  MISS:          0  HIT %:        100  MISS %:          0   MPKI: 0
PSCL5 LOAD TRANSLATION ACCESS:      10912  HIT:      10912  MISS:          0  HIT %:        100  MISS %:          0   MPKI: 0
PSCL5 PREFETCH  REQUESTED:          0  ISSUED:          0  USEFUL:          0  USELESS:          0
PSCL5 USEFUL LOAD PREFETCHES:          0 PREFETCH ISSUED TO LOWER LEVEL:          0  ACCURACY: -nan
PSCL5 TIMELY PREFETCHES:          0 LATE PREFETCHES: 0 DROPPED PREFETCHES: 0
PSCL5 PREFETCHES SAME FILL-ORIGIN LEVEL: 0 DIFFERENT FILL-ORIGIN LEVEL: 0

PSCL4 TOTAL     ACCESS:      10912  HIT:      10912  MISS:          0  HIT %:        100  MISS %:          0   MPKI: 0
PSCL4 LOAD TRANSLATION ACCESS:      10912  HIT:      10912  MISS:          0  HIT %:        100  MISS %:          0   MPKI: 0
PSCL4 PREFETCH  REQUESTED:          0  ISSUED:          0  USEFUL:          0  USELESS:          0
PSCL4 USEFUL LOAD PREFETCHES:          0 PREFETCH ISSUED TO LOWER LEVEL:          0  ACCURACY: -nan
PSCL4 TIMELY PREFETCHES:          0 LATE PREFETCHES: 0 DROPPED PREFETCHES: 0
PSCL4 PREFETCHES SAME FILL-ORIGIN LEVEL: 0 DIFFERENT FILL-ORIGIN LEVEL: 0

PSCL3 TOTAL     ACCESS:      10912  HIT:      10909  MISS:          3  HIT %:    99.9725  MISS %:  0.0274927   MPKI: 6e-05
PSCL3 LOAD TRANSLATION ACCESS:      10912  HIT:      10909  MISS:          3  HIT %:    99.9725  MISS %:  0.0274927   MPKI: 6e-05
PSCL3 PREFETCH  REQUESTED:          0  ISSUED:          0  USEFUL:          0  USELESS:          0
PSCL3 USEFUL LOAD PREFETCHES:          0 PREFETCH ISSUED TO LOWER LEVEL:          0  ACCURACY: -nan
PSCL3 TIMELY PREFETCHES:          0 LATE PREFETCHES: 0 DROPPED PREFETCHES: 0
PSCL3 PREFETCHES SAME FILL-ORIGIN LEVEL: 0 DIFFERENT FILL-ORIGIN LEVEL: 0

PSCL2 TOTAL     ACCESS:      10912  HIT:      10861  MISS:         51  HIT %:    99.5326  MISS %:   0.467375   MPKI: 0.00102
PSCL2 LOAD TRANSLATION ACCESS:      10912  HIT:      10861  MISS:         51  HIT %:    99.5326  MISS %:   0.467375   MPKI: 0.00102
PSCL2 PREFETCH  REQUESTED:          0  ISSUED:          0  USEFUL:          0  USELESS:          0
PSCL2 USEFUL LOAD PREFETCHES:          0 PREFETCH ISSUED TO LOWER LEVEL:          0  ACCURACY: -nan
PSCL2 TIMELY PREFETCHES:          0 LATE PREFETCHES: 0 DROPPED PREFETCHES: 0
PSCL2 PREFETCHES SAME FILL-ORIGIN LEVEL: 0 DIFFERENT FILL-ORIGIN LEVEL: 0

LLC TOTAL     ACCESS:    1697564  HIT:    1222366  MISS:     475198  HIT %:    72.0071  MISS %:    27.9929   MPKI: 9.50396
LLC LOAD      ACCESS:     100211  HIT:      77124  MISS:      23087  HIT %:    76.9616  MISS %:    23.0384   MPKI: 0.46174
LLC RFO       ACCESS:     153731  HIT:          8  MISS:     153723  HIT %:  0.0052039  MISS %:    99.9948   MPKI: 3.07446
LLC PREFETCH  ACCESS:    1287167  HIT:     991334  MISS:     295833  HIT %:    77.0167  MISS %:    22.9833   MPKI: 5.91666
LLC WRITEBACK ACCESS:     154097  HIT:     153895  MISS:        202  HIT %:    99.8689  MISS %:   0.131086   MPKI: 0.00404
LLC LOAD TRANSLATION ACCESS:       2358  HIT:          5  MISS:       2353  HIT %:   0.212044  MISS %:     99.788   MPKI: 0.04706
LLC PREFETCH  REQUESTED:          0  ISSUED:          0  USEFUL:      77132  USELESS:     211856
LLC USEFUL LOAD PREFETCHES:      77132 PREFETCH ISSUED TO LOWER LEVEL:     306580  ACCURACY: 25.1588
LLC TIMELY PREFETCHES:      77132 LATE PREFETCHES: 10746 DROPPED PREFETCHES: 0
LLC PREFETCHES SAME FILL-ORIGIN LEVEL: 301415 DIFFERENT FILL-ORIGIN LEVEL: 0
LLC AVERAGE MISS LATENCY: 4751.18 cycles
LLC RQ	ACCESS:     256300	FORWARD:          0	MERGED:          0	TO_CACHE:     256300
LLC WQ	ACCESS:     154097	FORWARD:          0	MERGED:          0	TO_CACHE:     154097
LLC PQ	ACCESS:    1990486	FORWARD:          0	MERGED:      10069	TO_CACHE:    1980417

LLC Dense regions hint to LLC: 0

RAW hits: 1336555
Loads Generated: 13882972
Loads sent to L1D: 12546417
Stores Generated: 6118341
Stores sent to L1D: 6118340
Major fault: 0 Minor fault: 10479
Allocated PAGES: 10479
 All Calls: 305184
 Critical Calls: 305184
------------------
Depth Distribution
------------------
depth 0: 0
depth 1: 288836
depth 2: 279105
depth 3: 269076
depth 4: 262329
depth 5: 253786
depth 6: 245173
depth 7: 219406
depth 8: 156257
depth 9: 92455
depth 10: 29019
depth 11: 14283
depth 12: 8361
depth 13: 2395
depth 14: 0
depth 15: 0
depth 16: 0
depth 17: 0
depth 18: 0
depth 19: 0
depth 20: 0
depth 21: 0
depth 22: 0
depth 23: 0
depth 24: 0
depth 25: 0
depth 26: 0
depth 27: 0
depth 28: 0
depth 29: 0
Total: 2120481
-----------------------------
-----------------------------
	Captured at Filter
-----------------------------
depth 0: 0
depth 1: 2801
depth 2: 1463
depth 3: 1452
depth 4: 1395
depth 5: 1384
depth 6: 1346
depth 7: 1224
depth 8: 898
depth 9: 545
depth 10: 156
depth 11: 78
depth 12: 45
depth 13: 19
depth 14: 0
depth 15: 0
depth 16: 0
depth 17: 0
depth 18: 0
depth 19: 0
depth 20: 0
depth 21: 0
depth 22: 0
depth 23: 0
depth 24: 0
depth 25: 0
depth 26: 0
depth 27: 0
depth 28: 0
depth 29: 0
-----------------------------
-----------------------------
		Lost at Page
-----------------------------
depth 0: 0
depth 1: 4750
depth 2: 9482
depth 3: 14223
depth 4: 18954
depth 5: 23588
depth 6: 28013
depth 7: 29744
depth 8: 25656
depth 9: 17927
depth 10: 5711
depth 11: 3026
depth 12: 1948
depth 13: 594
depth 14: 0
depth 15: 0
depth 16: 0
depth 17: 0
depth 18: 0
depth 19: 0
depth 20: 0
depth 21: 0
depth 22: 0
depth 23: 0
depth 24: 0
depth 25: 0
depth 26: 0
depth 27: 0
depth 28: 0
depth 29: 0
-----------------------------
-----------------------------
	Lost due to PQ Size
-----------------------------
175255
-----------------------------
ST read accesses: 289618
ST write accesses: 7499
PT read accesses: 13522489
PT write accesses: 430453
FILTER read accesses: 2989441
FILTER write accesses: 858754
GHR read accesses: 673500
GHR write accesses: 174056
GHR counter read accesses: 11414946
GHR counter write accesses: 707052
ST tag read accesses: 117857169
ST tag write accesses: 3161878

DRAM Statistics
 CHANNEL 0
 RQ ROW_BUFFER_HIT:     257542  ROW_BUFFER_MISS:     217454
 DBUS_CONGESTED:     606705
 WQ ROW_BUFFER_HIT:       9740  ROW_BUFFER_MISS:     138723  FULL:          0

 AVG_CONGESTED_CYCLE: 149
 All warmup complete: 2
Channel 0 Bank busy for read cycles: 0
Channel 0 Bank busy for write cycles: 0
Channel 0
Rank 0
0banks busy for read cycles: 67722054
0banks busy for write cycles: 7933
1banks busy for read cycles: 4332996
1banks busy for write cycles: 1500453
2banks busy for read cycles: 1629266
2banks busy for write cycles: 407409
3banks busy for read cycles: 1428728
3banks busy for write cycles: 103728
4banks busy for read cycles: 2073759
4banks busy for write cycles: 85226
5banks busy for read cycles: 2763062
5banks busy for write cycles: 83378
6banks busy for read cycles: 3987234
6banks busy for write cycles: 81860
7banks busy for read cycles: 6316253
7banks busy for write cycles: 343381
8banks busy for read cycles: 51876737
8banks busy for write cycles: 21751672

CPU 0 Branch Prediction Accuracy: 99.9659% MPKI: 0.03484 Average ROB Occupancy at Mispredict: 161.939
Branch types
NOT_BRANCH: 44898664 89.7973%
BRANCH_DIRECT_JUMP: 326747 0.653494%
BRANCH_INDIRECT: 0 0%
BRANCH_CONDITIONAL: 3467349 6.9347%
BRANCH_DIRECT_CALL: 653469 1.30694%
BRANCH_INDIRECT_CALL: 0 0%
BRANCH_RETURN: 653468 1.30694%
BRANCH_OTHER: 0 0%

@sumon_overall_L1D         0         0         0         0         0         0
@Sumon_Early_by_class_L1D         0         0         0         0
@Sumon_Late_by_class_L1D         0         0         0         0

@Sumon_Early_by_cycle_L1D         0         0         0         0         0         0         0         0         0         0         0         0
@Sumon_Late_by_cycle_L1D         0         0         0         0         0         0         0         0         0         0         0         0
@Sumon_Early_stream_L1D         0         0         0         0         0         0         0         0         0         0         0         0
@Sumon_Early_CS_L1D         0         0         0         0         0         0         0         0         0         0         0         0
@Sumon_Early_CPLX_L1D         0         0         0         0         0         0         0         0         0         0         0         0
@Sumon_Late_stream_L1D         0         0         0         0         0         0         0         0         0         0         0         0
@Sumon_Late_CS_L1D         0         0         0         0         0         0         0         0         0         0         0         0
@Sumon_Late_CPLX_L1D         0         0         0         0         0         0         0         0         0         0         0         0
@sumon_overall_L2C    173752     23217      1876    175626   2049569   2224812
@Sumon_Early_by_class_L2C         0         0         0         0
@Sumon_Late_by_class_L2C         0         0         0         0

@Sumon_Early_by_cycle_L2C     13899     53933     20247      6967      6229     22263     34138     13685      2388         3         0         0
@Sumon_Late_by_cycle_L2C      6253      1814      3239      1582      1251      3645      2863      2362       208         0         0         0
@Sumon_Early_stream_L2C         0         0         0         0         0         0         0         0         0         0         0         0
@Sumon_Early_CS_L2C         0         0         0         0         0         0         0         0         0         0         0         0
@Sumon_Early_CPLX_L2C         0         0         0         0         0         0         0         0         0         0         0         0
@Sumon_Late_stream_L2C         0         0         0         0         0         0         0         0         0         0         0         0
@Sumon_Late_CS_L2C         0         0         0         0         0         0         0         0         0         0         0         0
@Sumon_Late_CPLX_L2C         0         0         0         0         0         0         0         0         0         0         0         0
DRAM PAGES: 1048576
Allocated PAGES: 10479
