Initialize SIGNATURE TABLE
ST_SET: 1
ST_WAY: 256
ST_TAG_BIT: 16
ST_TAG_MASK: ffff

Initialize PATTERN TABLE
PT_SET: 512
PT_WAY: 4
SIG_DELTA_BIT: 7
C_SIG_BIT: 4
C_DELTA_BIT: 4

Initialize PREFETCH FILTER
FILTER_SET: 1024

*** ChampSim Multicore Out-of-Order Simulator ***

Warmup Instructions: 10000000
Simulation Instructions: 50000000
Number of CPUs: 1
LLC sets: 2048
LLC ways: 16
Off-chip DRAM Size: 4096 MB Channels: 1 Width: 64-bit Data Rate: 200 MT/s
CPU 0 runs traces/SPEC2017/654.roms_s-1070B.champsimtrace.xz
.xz
CPU 0 Bimodal branch predictor
BTB has LRU replacement policy
ITLB has LRU replacement policy
DTLB has LRU replacement policy
STLB has LRU replacement policy
L1I has LRU replacement policy
L1D has LRU replacement policy
ST_WAYS: 256
PT_SETS: 512
L2C has LRU replacement policy
LLC has LRU replacement policy
Heartbeat CPU 0 instructions: 10000002 cycles: 3115204 heartbeat IPC: 3.21006 cumulative IPC: 3.21006 (Simulation time: 0 hr 7 min 23 sec) 

Warmup complete CPU 0 instructions: 10000002 cycles: 3115204 (Simulation time: 0 hr 7 min 23 sec) 

Heartbeat CPU 0 instructions: 20000002 cycles: 42050719 heartbeat IPC: 0.256835 cumulative IPC: 0.256835 (Simulation time: 0 hr 23 min 52 sec) 
Heartbeat CPU 0 instructions: 30000003 cycles: 93215987 heartbeat IPC: 0.195445 cumulative IPC: 0.221974 (Simulation time: 0 hr 42 min 56 sec) 
Heartbeat CPU 0 instructions: 40000003 cycles: 143692311 heartbeat IPC: 0.198113 cumulative IPC: 0.213406 (Simulation time: 1 hr 1 min 36 sec) 
Heartbeat CPU 0 instructions: 50000003 cycles: 176719925 heartbeat IPC: 0.302777 cumulative IPC: 0.230408 (Simulation time: 1 hr 9 min 20 sec) 
Heartbeat CPU 0 instructions: 60000000 cycles: 241933634 heartbeat IPC: 0.153342 cumulative IPC: 0.209364 (Simulation time: 1 hr 18 min 41 sec) 
Finished CPU 0 instructions: 50000002 cycles: 238818432 cumulative IPC: 0.209364 (Simulation time: 1 hr 18 min 41 sec) 

ChampSim completed all CPUs

Region of Interest Statistics

CPU 0 cumulative IPC: 0.209364 instructions: 50000002 cycles: 238818432
ITLB TOTAL     ACCESS:    7803694  HIT:    7803694  MISS:          0  HIT %:        100  MISS %:          0   MPKI: 0
ITLB LOAD TRANSLATION ACCESS:    7803694  HIT:    7803694  MISS:          0  HIT %:        100  MISS %:          0   MPKI: 0
ITLB PREFETCH  REQUESTED:          0  ISSUED:          0  USEFUL:          0  USELESS:          0
ITLB USEFUL LOAD PREFETCHES:          0 PREFETCH ISSUED TO LOWER LEVEL:          0  ACCURACY: -nan
ITLB TIMELY PREFETCHES:          0 LATE PREFETCHES: 0 DROPPED PREFETCHES: 0
ITLB PREFETCHES SAME FILL-ORIGIN LEVEL: 0 DIFFERENT FILL-ORIGIN LEVEL: 0
ITLB AVERAGE MISS LATENCY: -nan cycles
ITLB RQ	ACCESS:    8328435	FORWARD:          0	MERGED:     524742	TO_CACHE:    7803693

DTLB TOTAL     ACCESS:   11946507  HIT:   11922420  MISS:      24087  HIT %:    99.7984  MISS %:   0.201624   MPKI: 0.48174
DTLB LOAD TRANSLATION ACCESS:   11946507  HIT:   11922420  MISS:      24087  HIT %:    99.7984  MISS %:   0.201624   MPKI: 0.48174
DTLB PREFETCH  REQUESTED:          0  ISSUED:          0  USEFUL:          0  USELESS:          0
DTLB USEFUL LOAD PREFETCHES:          0 PREFETCH ISSUED TO LOWER LEVEL:          0  ACCURACY: -nan
DTLB TIMELY PREFETCHES:          0 LATE PREFETCHES: 0 DROPPED PREFETCHES: 0
DTLB PREFETCHES SAME FILL-ORIGIN LEVEL: 0 DIFFERENT FILL-ORIGIN LEVEL: 0
DTLB AVERAGE MISS LATENCY: 1256.07 cycles
DTLB RQ	ACCESS:   13269435	FORWARD:          0	MERGED:    1287594	TO_CACHE:   11981841

STLB TOTAL     ACCESS:      24087  HIT:         14  MISS:      24073  HIT %:  0.0581226  MISS %:    99.9419   MPKI: 0.48146
STLB LOAD TRANSLATION ACCESS:      24087  HIT:         14  MISS:      24073  HIT %:  0.0581226  MISS %:    99.9419   MPKI: 0.48146
STLB PREFETCH  REQUESTED:          0  ISSUED:          0  USEFUL:          0  USELESS:          0
STLB USEFUL LOAD PREFETCHES:          0 PREFETCH ISSUED TO LOWER LEVEL:          0  ACCURACY: -nan
STLB TIMELY PREFETCHES:          0 LATE PREFETCHES: 0 DROPPED PREFETCHES: 0
STLB PREFETCHES SAME FILL-ORIGIN LEVEL: 0 DIFFERENT FILL-ORIGIN LEVEL: 0
STLB AVERAGE MISS LATENCY: 1244.6 cycles
STLB RQ	ACCESS:      24087	FORWARD:          0	MERGED:          0	TO_CACHE:      24087

STLB Hit, L1D data hit: 0
STLB Hit, L2C data hit: 0
STLB Hit, LLC data hit: 0
STLB Hit, LLC data miss: 0
STLB STLB hints to L2: 0
L1D TOTAL     ACCESS:   10644849  HIT:    9556401  MISS:    1088448  HIT %:    89.7749  MISS %:    10.2251   MPKI: 21.769
L1D LOAD      ACCESS:   10205009  HIT:    9460935  MISS:     744074  HIT %:    92.7087  MISS %:    7.29126   MPKI: 14.8815
L1D RFO       ACCESS:     439840  HIT:      95466  MISS:     344374  HIT %:    21.7047  MISS %:    78.2953   MPKI: 6.88748
L1D PREFETCH  REQUESTED:          0  ISSUED:          0  USEFUL:          0  USELESS:          0
L1D USEFUL LOAD PREFETCHES:          0 PREFETCH ISSUED TO LOWER LEVEL:          0  ACCURACY: -nan
L1D TIMELY PREFETCHES:          0 LATE PREFETCHES: 0 DROPPED PREFETCHES: 0
L1D PREFETCHES SAME FILL-ORIGIN LEVEL: 0 DIFFERENT FILL-ORIGIN LEVEL: 0
L1D AVERAGE MISS LATENCY: 1698.63 cycles
L1D RQ	ACCESS:   18807447	FORWARD:          0	MERGED:    8276738	TO_CACHE:   10530709
L1D WQ	ACCESS:    2738726	FORWARD:          0	MERGED:          0	TO_CACHE:    2738726

L1D UNIQUE REGIONS ACCESSED: 0
L1D REGIONS CONFLICTS: 0
L1D Cross Page Prefetch Requests: 0
L1D Same Page Prefetch Requests: 0
L1D ROI Sum of L1D PQ occupancy: 0
L1D PREFETCHES PUSHED FROM L2C: 0
L1I TOTAL     ACCESS:    8328436  HIT:    8328436  MISS:          0  HIT %:        100  MISS %:          0   MPKI: 0
L1I LOAD      ACCESS:    8328436  HIT:    8328436  MISS:          0  HIT %:        100  MISS %:          0   MPKI: 0
L1I PREFETCH  REQUESTED:          0  ISSUED:          0  USEFUL:          0  USELESS:          0
L1I USEFUL LOAD PREFETCHES:          0 PREFETCH ISSUED TO LOWER LEVEL:          0  ACCURACY: -nan
L1I TIMELY PREFETCHES:          0 LATE PREFETCHES: 0 DROPPED PREFETCHES: 0
L1I PREFETCHES SAME FILL-ORIGIN LEVEL: 0 DIFFERENT FILL-ORIGIN LEVEL: 0
L1I AVERAGE MISS LATENCY: -nan cycles
L1I RQ	ACCESS:   13538863	FORWARD:          0	MERGED:    5210428	TO_CACHE:    8328435

BTB TOTAL     ACCESS:    2779529  HIT:    2779520  MISS:          9  HIT %:    99.9997  MISS %: 0.000323796   MPKI: 0.00018
BTB BRANCH_DIRECT_JUMP	ACCESS:          0  HIT:          0  MISS:          0
BTB BRANCH_INDIRECT	ACCESS:          0  HIT:          0  MISS:          0
BTB BRANCH_CONDITIONAL	ACCESS:    2779529  HIT:    2779520  MISS:          9
BTB BRANCH_DIRECT_CALL	ACCESS:          0  HIT:          0  MISS:          0
BTB BRANCH_INDIRECT_CALL	ACCESS:          0  HIT:          0  MISS:          0
BTB BRANCH_RETURN	ACCESS:          0  HIT:          0  MISS:          0
BTB BRANCH_OTHER ACCESS:          0  HIT:          0  MISS:          0

L2C TOTAL     ACCESS:    1906559  HIT:     808926  MISS:    1097633  HIT %:    42.4286  MISS %:    57.5714   MPKI: 21.9527
L2C LOAD      ACCESS:     744074  HIT:     444898  MISS:     299176  HIT %:    59.7922  MISS %:    40.2078   MPKI: 5.98352
L2C DATA LOAD MPKI: 5.98352
L2C INSTRUCTION LOAD MPKI: 0
L2C RFO       ACCESS:     344374  HIT:          0  MISS:     344374  HIT %:          0  MISS %:        100   MPKI: 6.88748
L2C PREFETCH  ACCESS:     449630  HIT:        459  MISS:     449171  HIT %:   0.102084  MISS %:    99.8979   MPKI: 8.98342
L2C DATA PREFETCH MPKI: 8.98342
L2C INSTRUCTION PREFETCH MPKI: 0
L2C WRITEBACK ACCESS:     344384  HIT:     344376  MISS:          8  HIT %:    99.9977  MISS %: 0.00232299   MPKI: 0.00016
L2C LOAD TRANSLATION ACCESS:      24097  HIT:      19193  MISS:       4904  HIT %:    79.6489  MISS %:    20.3511   MPKI: 0.09808
L2C PREFETCH  REQUESTED:    5368538  ISSUED:    4822893  USEFUL:     444892  USELESS:       4278
L2C USEFUL LOAD PREFETCHES:     444892 PREFETCH ISSUED TO LOWER LEVEL:    4798978  ACCURACY: 9.27056
L2C TIMELY PREFETCHES:     444892 LATE PREFETCHES: 64825 DROPPED PREFETCHES: 0
L2C PREFETCHES SAME FILL-ORIGIN LEVEL: 513996 DIFFERENT FILL-ORIGIN LEVEL: 4284982
L2C AVERAGE MISS LATENCY: 1767.52 cycles
L2C RQ	ACCESS:    1112557	FORWARD:          0	MERGED:          0	TO_CACHE:    1112557
L2C WQ	ACCESS:     344384	FORWARD:          0	MERGED:          0	TO_CACHE:     344384
L2C PQ	ACCESS:    4822893	FORWARD:          0	MERGED:      19250	TO_CACHE:    4803643

L2C Instructions Evicting Data 0
L2C Translations Evicting Data 4873
L2C Data Evicting Data 1087845
L2C Instructions Evicting Instructions 0
L2C Translations Evicting Instructions 0
L2C Data Evicting Instructions 0
L2C Instructions Evicting Translations 0
L2C Translations Evicting Translations 31
L2C Data Evicting Translations 4876
L2C Dense regions hint from L2: 0
PSCL5 TOTAL     ACCESS:      24073  HIT:      24073  MISS:          0  HIT %:        100  MISS %:          0   MPKI: 0
PSCL5 LOAD TRANSLATION ACCESS:      24073  HIT:      24073  MISS:          0  HIT %:        100  MISS %:          0   MPKI: 0
PSCL5 PREFETCH  REQUESTED:          0  ISSUED:          0  USEFUL:          0  USELESS:          0
PSCL5 USEFUL LOAD PREFETCHES:          0 PREFETCH ISSUED TO LOWER LEVEL:          0  ACCURACY: -nan
PSCL5 TIMELY PREFETCHES:          0 LATE PREFETCHES: 0 DROPPED PREFETCHES: 0
PSCL5 PREFETCHES SAME FILL-ORIGIN LEVEL: 0 DIFFERENT FILL-ORIGIN LEVEL: 0

PSCL4 TOTAL     ACCESS:      24073  HIT:      24073  MISS:          0  HIT %:        100  MISS %:          0   MPKI: 0
PSCL4 LOAD TRANSLATION ACCESS:      24073  HIT:      24073  MISS:          0  HIT %:        100  MISS %:          0   MPKI: 0
PSCL4 PREFETCH  REQUESTED:          0  ISSUED:          0  USEFUL:          0  USELESS:          0
PSCL4 USEFUL LOAD PREFETCHES:          0 PREFETCH ISSUED TO LOWER LEVEL:          0  ACCURACY: -nan
PSCL4 TIMELY PREFETCHES:          0 LATE PREFETCHES: 0 DROPPED PREFETCHES: 0
PSCL4 PREFETCHES SAME FILL-ORIGIN LEVEL: 0 DIFFERENT FILL-ORIGIN LEVEL: 0

PSCL3 TOTAL     ACCESS:      24073  HIT:      24073  MISS:          0  HIT %:        100  MISS %:          0   MPKI: 0
PSCL3 LOAD TRANSLATION ACCESS:      24073  HIT:      24073  MISS:          0  HIT %:        100  MISS %:          0   MPKI: 0
PSCL3 PREFETCH  REQUESTED:          0  ISSUED:          0  USEFUL:          0  USELESS:          0
PSCL3 USEFUL LOAD PREFETCHES:          0 PREFETCH ISSUED TO LOWER LEVEL:          0  ACCURACY: -nan
PSCL3 TIMELY PREFETCHES:          0 LATE PREFETCHES: 0 DROPPED PREFETCHES: 0
PSCL3 PREFETCHES SAME FILL-ORIGIN LEVEL: 0 DIFFERENT FILL-ORIGIN LEVEL: 0

PSCL2 TOTAL     ACCESS:      24073  HIT:      24008  MISS:         65  HIT %:      99.73  MISS %:   0.270012   MPKI: 0.0013
PSCL2 LOAD TRANSLATION ACCESS:      24073  HIT:      24008  MISS:         65  HIT %:      99.73  MISS %:   0.270012   MPKI: 0.0013
PSCL2 PREFETCH  REQUESTED:          0  ISSUED:          0  USEFUL:          0  USELESS:          0
PSCL2 USEFUL LOAD PREFETCHES:          0 PREFETCH ISSUED TO LOWER LEVEL:          0  ACCURACY: -nan
PSCL2 TIMELY PREFETCHES:          0 LATE PREFETCHES: 0 DROPPED PREFETCHES: 0
PSCL2 PREFETCHES SAME FILL-ORIGIN LEVEL: 0 DIFFERENT FILL-ORIGIN LEVEL: 0

LLC TOTAL     ACCESS:    3869434  HIT:    2736667  MISS:    1132767  HIT %:    70.7253  MISS %:    29.2747   MPKI: 22.6553
LLC LOAD      ACCESS:     234351  HIT:     186143  MISS:      48208  HIT %:    79.4291  MISS %:    20.5709   MPKI: 0.96416
LLC RFO       ACCESS:     344374  HIT:          0  MISS:     344374  HIT %:          0  MISS %:        100   MPKI: 6.88748
LLC PREFETCH  ACCESS:    2941322  HIT:    2206033  MISS:     735289  HIT %:    75.0014  MISS %:    24.9986   MPKI: 14.7058
LLC WRITEBACK ACCESS:     344483  HIT:     344479  MISS:          4  HIT %:    99.9988  MISS %: 0.00116116   MPKI: 8e-05
LLC LOAD TRANSLATION ACCESS:       4904  HIT:         12  MISS:       4892  HIT %:   0.244698  MISS %:    99.7553   MPKI: 0.09784
LLC PREFETCH  REQUESTED:          0  ISSUED:          0  USEFUL:     186143  USELESS:     549014
LLC USEFUL LOAD PREFETCHES:     186143 PREFETCH ISSUED TO LOWER LEVEL:     755098  ACCURACY: 24.6515
LLC TIMELY PREFETCHES:     186143 LATE PREFETCHES: 19804 DROPPED PREFETCHES: 0
LLC PREFETCHES SAME FILL-ORIGIN LEVEL: 742026 DIFFERENT FILL-ORIGIN LEVEL: 0
LLC AVERAGE MISS LATENCY: 4379.4 cycles
LLC RQ	ACCESS:     583641	FORWARD:          0	MERGED:          0	TO_CACHE:     583641
LLC WQ	ACCESS:     344483	FORWARD:          0	MERGED:          0	TO_CACHE:     344483
LLC PQ	ACCESS:    4798978	FORWARD:          0	MERGED:       6499	TO_CACHE:    4792479

LLC Dense regions hint to LLC: 0

RAW hits: 2
Loads Generated: 18807450
Loads sent to L1D: 18807447
Stores Generated: 2738725
Stores sent to L1D: 2738726
Major fault: 0 Minor fault: 15227
Allocated PAGES: 15227
 All Calls: 895603
 Critical Calls: 895603
------------------
Depth Distribution
------------------
depth 0: 0
depth 1: 837141
depth 2: 809679
depth 3: 777062
depth 4: 747642
depth 5: 713726
depth 6: 650611
depth 7: 499921
depth 8: 328564
depth 9: 190712
depth 10: 135088
depth 11: 104360
depth 12: 74878
depth 13: 41959
depth 14: 9576
depth 15: 9327
depth 16: 0
depth 17: 0
depth 18: 0
depth 19: 0
depth 20: 0
depth 21: 0
depth 22: 0
depth 23: 0
depth 24: 0
depth 25: 0
depth 26: 0
depth 27: 0
depth 28: 0
depth 29: 0
Total: 5930246
-----------------------------
-----------------------------
	Captured at Filter
-----------------------------
depth 0: 0
depth 1: 4599
depth 2: 4350
depth 3: 4353
depth 4: 4187
depth 5: 4120
depth 6: 3826
depth 7: 2824
depth 8: 1764
depth 9: 960
depth 10: 676
depth 11: 472
depth 12: 362
depth 13: 221
depth 14: 46
depth 15: 46
depth 16: 0
depth 17: 0
depth 18: 0
depth 19: 0
depth 20: 0
depth 21: 0
depth 22: 0
depth 23: 0
depth 24: 0
depth 25: 0
depth 26: 0
depth 27: 0
depth 28: 0
depth 29: 0
-----------------------------
-----------------------------
		Lost at Page
-----------------------------
depth 0: 0
depth 1: 13894
depth 2: 27735
depth 3: 41611
depth 4: 55478
depth 5: 69337
depth 6: 79289
depth 7: 71443
depth 8: 55971
depth 9: 37080
depth 10: 27599
depth 11: 23537
depth 12: 17395
depth 13: 11590
depth 14: 2288
depth 15: 2499
depth 16: 0
depth 17: 0
depth 18: 0
depth 19: 0
depth 20: 0
depth 21: 0
depth 22: 0
depth 23: 0
depth 24: 0
depth 25: 0
depth 26: 0
depth 27: 0
depth 28: 0
depth 29: 0
-----------------------------
-----------------------------
	Lost due to PQ Size
-----------------------------
656119
-----------------------------
ST read accesses: 726430
ST write accesses: 17644
PT read accesses: 32813341
PT write accesses: 1081618
FILTER read accesses: 7237284
FILTER write accesses: 2124643
GHR read accesses: 1706177
GHR write accesses: 432235
GHR counter read accesses: 27750316
GHR counter write accesses: 1797242
ST tag read accesses: 295054584
ST tag write accesses: 8006058

DRAM Statistics
 CHANNEL 0
 RQ ROW_BUFFER_HIT:     429371  ROW_BUFFER_MISS:     703392
 DBUS_CONGESTED:    1513897
 WQ ROW_BUFFER_HIT:      24651  ROW_BUFFER_MISS:     319866  FULL:          0

 AVG_CONGESTED_CYCLE: 152
 All warmup complete: 2
Channel 0 Bank busy for read cycles: 0
Channel 0 Bank busy for write cycles: 0
Channel 0
Rank 0
0banks busy for read cycles: 6376
0banks busy for write cycles: 0
1banks busy for read cycles: 1359273
1banks busy for write cycles: 40657
2banks busy for read cycles: 2148231
2banks busy for write cycles: 40656
3banks busy for read cycles: 3181154
3banks busy for write cycles: 40656
4banks busy for read cycles: 4853085
4banks busy for write cycles: 40656
5banks busy for read cycles: 7015590
5banks busy for write cycles: 40679
6banks busy for read cycles: 10438261
6banks busy for write cycles: 45355
7banks busy for read cycles: 19546261
7banks busy for write cycles: 546657
8banks busy for read cycles: 134588442
8banks busy for write cycles: 54886444

CPU 0 Branch Prediction Accuracy: 99.8858% MPKI: 0.06352 Average ROB Occupancy at Mispredict: 275.353
Branch types
NOT_BRANCH: 47219347 94.4387%
BRANCH_DIRECT_JUMP: 0 0%
BRANCH_INDIRECT: 0 0%
BRANCH_CONDITIONAL: 2780656 5.56131%
BRANCH_DIRECT_CALL: 0 0%
BRANCH_INDIRECT_CALL: 0 0%
BRANCH_RETURN: 0 0%
BRANCH_OTHER: 0 0%

@sumon_overall_L1D         0         0         0         0         0         0
@Sumon_Early_by_class_L1D         0         0         0         0
@Sumon_Late_by_class_L1D         0         0         0         0

@Sumon_Early_by_cycle_L1D         0         0         0         0         0         0         0         0         0         0         0         0
@Sumon_Late_by_cycle_L1D         0         0         0         0         0         0         0         0         0         0         0         0
@Sumon_Early_stream_L1D         0         0         0         0         0         0         0         0         0         0         0         0
@Sumon_Early_CS_L1D         0         0         0         0         0         0         0         0         0         0         0         0
@Sumon_Early_CPLX_L1D         0         0         0         0         0         0         0         0         0         0         0         0
@Sumon_Late_stream_L1D         0         0         0         0         0         0         0         0         0         0         0         0
@Sumon_Late_CS_L1D         0         0         0         0         0         0         0         0         0         0         0         0
@Sumon_Late_CPLX_L1D         0         0         0         0         0         0         0         0         0         0         0         0
@sumon_overall_L2C    444892     64825      4278    449171   4822893   5368538
@Sumon_Early_by_class_L2C         0         0         0         0
@Sumon_Late_by_class_L2C         0         0         0         0

@Sumon_Early_by_cycle_L2C     38190     83473    152143     20749     16752     64604     46483     21708       790         0         0         0
@Sumon_Late_by_cycle_L2C     14271      5962      6130      4383      3774     14471     10521      5244        69         0         0         0
@Sumon_Early_stream_L2C         0         0         0         0         0         0         0         0         0         0         0         0
@Sumon_Early_CS_L2C         0         0         0         0         0         0         0         0         0         0         0         0
@Sumon_Early_CPLX_L2C         0         0         0         0         0         0         0         0         0         0         0         0
@Sumon_Late_stream_L2C         0         0         0         0         0         0         0         0         0         0         0         0
@Sumon_Late_CS_L2C         0         0         0         0         0         0         0         0         0         0         0         0
@Sumon_Late_CPLX_L2C         0         0         0         0         0         0         0         0         0         0         0         0
DRAM PAGES: 1048576
Allocated PAGES: 15227
