Initialize SIGNATURE TABLE
ST_SET: 1
ST_WAY: 256
ST_TAG_BIT: 16
ST_TAG_MASK: ffff

Initialize PATTERN TABLE
PT_SET: 512
PT_WAY: 4
SIG_DELTA_BIT: 7
C_SIG_BIT: 4
C_DELTA_BIT: 4

Initialize PREFETCH FILTER
FILTER_SET: 1024

*** ChampSim Multicore Out-of-Order Simulator ***

Warmup Instructions: 10000000
Simulation Instructions: 50000000
Number of CPUs: 1
LLC sets: 2048
LLC ways: 16
Off-chip DRAM Size: 4096 MB Channels: 1 Width: 64-bit Data Rate: 533 MT/s
CPU 0 runs traces/clientserver/client_001.champsimtrace.xz
.xz
CPU 0 Bimodal branch predictor
BTB has LRU replacement policy
ITLB has LRU replacement policy
DTLB has LRU replacement policy
STLB has LRU replacement policy
L1I has LRU replacement policy
L1D has LRU replacement policy
ST_WAYS: 256
PT_SETS: 512
L2C has LRU replacement policy
LLC has LRU replacement policy
Heartbeat CPU 0 instructions: 10000003 cycles: 2871882 heartbeat IPC: 3.48204 cumulative IPC: 3.48204 (Simulation time: 3 hr 8 min 3 sec) 

Warmup complete CPU 0 instructions: 10000003 cycles: 2871882 (Simulation time: 3 hr 8 min 5 sec) 

Heartbeat CPU 0 instructions: 20000001 cycles: 18317812 heartbeat IPC: 0.64742 cumulative IPC: 0.64742 (Simulation time: 3 hr 19 min 47 sec) 
Heartbeat CPU 0 instructions: 30000002 cycles: 34252384 heartbeat IPC: 0.627566 cumulative IPC: 0.637338 (Simulation time: 3 hr 35 min 20 sec) 
Heartbeat CPU 0 instructions: 40000002 cycles: 51543540 heartbeat IPC: 0.57833 cumulative IPC: 0.616375 (Simulation time: 3 hr 55 min 45 sec) 
Heartbeat CPU 0 instructions: 50000003 cycles: 66314613 heartbeat IPC: 0.676999 cumulative IPC: 0.63049 (Simulation time: 4 hr 11 min 13 sec) 
Heartbeat CPU 0 instructions: 60000000 cycles: 84985379 heartbeat IPC: 0.535596 cumulative IPC: 0.608913 (Simulation time: 4 hr 26 min 28 sec) 
Finished CPU 0 instructions: 50000001 cycles: 82113498 cumulative IPC: 0.608913 (Simulation time: 4 hr 26 min 28 sec) 

ChampSim completed all CPUs

Region of Interest Statistics

CPU 0 cumulative IPC: 0.608913 instructions: 50000001 cycles: 82113498
ITLB TOTAL     ACCESS:    7959785  HIT:    7905789  MISS:      53996  HIT %:    99.3216  MISS %:    0.67836   MPKI: 1.07992
ITLB LOAD TRANSLATION ACCESS:    7959785  HIT:    7905789  MISS:      53996  HIT %:    99.3216  MISS %:    0.67836   MPKI: 1.07992
ITLB PREFETCH  REQUESTED:          0  ISSUED:          0  USEFUL:          0  USELESS:          0
ITLB USEFUL LOAD PREFETCHES:          0 PREFETCH ISSUED TO LOWER LEVEL:          0  ACCURACY: -nan
ITLB TIMELY PREFETCHES:          0 LATE PREFETCHES: 0 DROPPED PREFETCHES: 0
ITLB PREFETCHES SAME FILL-ORIGIN LEVEL: 0 DIFFERENT FILL-ORIGIN LEVEL: 0
ITLB AVERAGE MISS LATENCY: 11.2577 cycles
ITLB RQ	ACCESS:    9599698	FORWARD:          0	MERGED:    1630005	TO_CACHE:    7969693

DTLB TOTAL     ACCESS:   11406850  HIT:   11077248  MISS:     329602  HIT %:    97.1105  MISS %:    2.88951   MPKI: 6.59204
DTLB LOAD TRANSLATION ACCESS:   11406850  HIT:   11077248  MISS:     329602  HIT %:    97.1105  MISS %:    2.88951   MPKI: 6.59204
DTLB PREFETCH  REQUESTED:          0  ISSUED:          0  USEFUL:          0  USELESS:          0
DTLB USEFUL LOAD PREFETCHES:          0 PREFETCH ISSUED TO LOWER LEVEL:          0  ACCURACY: -nan
DTLB TIMELY PREFETCHES:          0 LATE PREFETCHES: 0 DROPPED PREFETCHES: 0
DTLB PREFETCHES SAME FILL-ORIGIN LEVEL: 0 DIFFERENT FILL-ORIGIN LEVEL: 0
DTLB AVERAGE MISS LATENCY: 10.5359 cycles
DTLB RQ	ACCESS:   13367994	FORWARD:          0	MERGED:    1944164	TO_CACHE:   11423830

STLB TOTAL     ACCESS:     383598  HIT:     379516  MISS:       4082  HIT %:    98.9359  MISS %:    1.06413   MPKI: 0.08164
STLB LOAD TRANSLATION ACCESS:     383598  HIT:     379516  MISS:       4082  HIT %:    98.9359  MISS %:    1.06413   MPKI: 0.08164
STLB PREFETCH  REQUESTED:          0  ISSUED:          0  USEFUL:          0  USELESS:          0
STLB USEFUL LOAD PREFETCHES:          0 PREFETCH ISSUED TO LOWER LEVEL:          0  ACCURACY: -nan
STLB TIMELY PREFETCHES:          0 LATE PREFETCHES: 0 DROPPED PREFETCHES: 0
STLB PREFETCHES SAME FILL-ORIGIN LEVEL: 0 DIFFERENT FILL-ORIGIN LEVEL: 0
STLB AVERAGE MISS LATENCY: 151.613 cycles
STLB RQ	ACCESS:     383598	FORWARD:          0	MERGED:          0	TO_CACHE:     383598

STLB Hit, L1D data hit: 0
STLB Hit, L2C data hit: 0
STLB Hit, LLC data hit: 0
STLB Hit, LLC data miss: 0
STLB STLB hints to L2: 0
L1D TOTAL     ACCESS:   13154704  HIT:   12484667  MISS:     670037  HIT %:    94.9065  MISS %:    5.09352   MPKI: 13.4007
L1D LOAD      ACCESS:    9289837  HIT:    8686917  MISS:     602920  HIT %:    93.5099  MISS %:     6.4901   MPKI: 12.0584
L1D RFO       ACCESS:    3864867  HIT:    3797750  MISS:      67117  HIT %:    98.2634  MISS %:    1.73659   MPKI: 1.34234
L1D PREFETCH  REQUESTED:          0  ISSUED:          0  USEFUL:          0  USELESS:          0
L1D USEFUL LOAD PREFETCHES:          0 PREFETCH ISSUED TO LOWER LEVEL:          0  ACCURACY: -nan
L1D TIMELY PREFETCHES:          0 LATE PREFETCHES: 0 DROPPED PREFETCHES: 0
L1D PREFETCHES SAME FILL-ORIGIN LEVEL: 0 DIFFERENT FILL-ORIGIN LEVEL: 0
L1D AVERAGE MISS LATENCY: 91.3922 cycles
L1D RQ	ACCESS:   13537023	FORWARD:          0	MERGED:    4081617	TO_CACHE:    9359666
L1D WQ	ACCESS:    4089311	FORWARD:      95740	MERGED:      80983	TO_CACHE:    4008328

L1D UNIQUE REGIONS ACCESSED: 0
L1D REGIONS CONFLICTS: 0
L1D Cross Page Prefetch Requests: 0
L1D Same Page Prefetch Requests: 0
L1D ROI Sum of L1D PQ occupancy: 0
L1D PREFETCHES PUSHED FROM L2C: 0
L1I TOTAL     ACCESS:    9489745  HIT:    9207301  MISS:     282444  HIT %:    97.0237  MISS %:    2.97631   MPKI: 5.64888
L1I LOAD      ACCESS:    9489745  HIT:    9207301  MISS:     282444  HIT %:    97.0237  MISS %:    2.97631   MPKI: 5.64888
L1I PREFETCH  REQUESTED:          0  ISSUED:          0  USEFUL:          0  USELESS:          0
L1I USEFUL LOAD PREFETCHES:          0 PREFETCH ISSUED TO LOWER LEVEL:          0  ACCURACY: -nan
L1I TIMELY PREFETCHES:          0 LATE PREFETCHES: 0 DROPPED PREFETCHES: 0
L1I PREFETCHES SAME FILL-ORIGIN LEVEL: 0 DIFFERENT FILL-ORIGIN LEVEL: 0
L1I AVERAGE MISS LATENCY: 23.4266 cycles
L1I RQ	ACCESS:   13888290	FORWARD:          0	MERGED:    4288592	TO_CACHE:    9599698

BTB TOTAL     ACCESS:    6340390  HIT:    6062165  MISS:     278225  HIT %:    95.6119  MISS %:    4.38814   MPKI: 5.5645
BTB BRANCH_DIRECT_JUMP	ACCESS:     410484  HIT:     408710  MISS:       1774
BTB BRANCH_INDIRECT	ACCESS:      28973  HIT:      20601  MISS:       8372
BTB BRANCH_CONDITIONAL	ACCESS:    4498275  HIT:    4493945  MISS:       4330
BTB BRANCH_DIRECT_CALL	ACCESS:     484117  HIT:     481984  MISS:       2133
BTB BRANCH_INDIRECT_CALL	ACCESS:     217116  HIT:     157175  MISS:      59941
BTB BRANCH_RETURN	ACCESS:     701425  HIT:     499750  MISS:     201675
BTB BRANCH_OTHER ACCESS:          0  HIT:          0  MISS:          0

L2C TOTAL     ACCESS:    1235086  HIT:     934449  MISS:     300637  HIT %:    75.6586  MISS %:    24.3414   MPKI: 6.01274
L2C LOAD      ACCESS:     885362  HIT:     641835  MISS:     243527  HIT %:    72.4941  MISS %:    27.5059   MPKI: 4.87054
L2C DATA LOAD MPKI: 4.5215
L2C INSTRUCTION LOAD MPKI: 0.34904
L2C RFO       ACCESS:      67117  HIT:      19697  MISS:      47420  HIT %:    29.3473  MISS %:    70.6527   MPKI: 0.9484
L2C PREFETCH  ACCESS:     129951  HIT:     122339  MISS:       7612  HIT %:    94.1424  MISS %:    5.85759   MPKI: 0.15224
L2C DATA PREFETCH MPKI: 0.15224
L2C INSTRUCTION PREFETCH MPKI: 0
L2C WRITEBACK ACCESS:     148382  HIT:     148066  MISS:        316  HIT %:     99.787  MISS %:   0.212964   MPKI: 0.00632
L2C LOAD TRANSLATION ACCESS:       4274  HIT:       2512  MISS:       1762  HIT %:     58.774  MISS %:     41.226   MPKI: 0.03524
L2C PREFETCH  REQUESTED:     417071  ISSUED:     416859  USEFUL:       7494  USELESS:        115
L2C USEFUL LOAD PREFETCHES:       7494 PREFETCH ISSUED TO LOWER LEVEL:     239271  ACCURACY: 3.13201
L2C TIMELY PREFETCHES:       7494 LATE PREFETCHES: 765 DROPPED PREFETCHES: 0
L2C PREFETCHES SAME FILL-ORIGIN LEVEL: 8377 DIFFERENT FILL-ORIGIN LEVEL: 230894
L2C AVERAGE MISS LATENCY: 181.032 cycles
L2C RQ	ACCESS:     956755	FORWARD:          0	MERGED:          0	TO_CACHE:     956753
L2C WQ	ACCESS:     148382	FORWARD:          2	MERGED:          0	TO_CACHE:     148382
L2C PQ	ACCESS:     416859	FORWARD:          0	MERGED:      37548	TO_CACHE:     379311

L2C Instructions Evicting Data 15879
L2C Translations Evicting Data 1625
L2C Data Evicting Data 266039
L2C Instructions Evicting Instructions 1448
L2C Translations Evicting Instructions 129
L2C Data Evicting Instructions 13638
L2C Instructions Evicting Translations 125
L2C Translations Evicting Translations 8
L2C Data Evicting Translations 1430
L2C Dense regions hint from L2: 0
PSCL5 TOTAL     ACCESS:       4082  HIT:       4082  MISS:          0  HIT %:        100  MISS %:          0   MPKI: 0
PSCL5 LOAD TRANSLATION ACCESS:       4082  HIT:       4082  MISS:          0  HIT %:        100  MISS %:          0   MPKI: 0
PSCL5 PREFETCH  REQUESTED:          0  ISSUED:          0  USEFUL:          0  USELESS:          0
PSCL5 USEFUL LOAD PREFETCHES:          0 PREFETCH ISSUED TO LOWER LEVEL:          0  ACCURACY: -nan
PSCL5 TIMELY PREFETCHES:          0 LATE PREFETCHES: 0 DROPPED PREFETCHES: 0
PSCL5 PREFETCHES SAME FILL-ORIGIN LEVEL: 0 DIFFERENT FILL-ORIGIN LEVEL: 0

PSCL4 TOTAL     ACCESS:       4082  HIT:       4082  MISS:          0  HIT %:        100  MISS %:          0   MPKI: 0
PSCL4 LOAD TRANSLATION ACCESS:       4082  HIT:       4082  MISS:          0  HIT %:        100  MISS %:          0   MPKI: 0
PSCL4 PREFETCH  REQUESTED:          0  ISSUED:          0  USEFUL:          0  USELESS:          0
PSCL4 USEFUL LOAD PREFETCHES:          0 PREFETCH ISSUED TO LOWER LEVEL:          0  ACCURACY: -nan
PSCL4 TIMELY PREFETCHES:          0 LATE PREFETCHES: 0 DROPPED PREFETCHES: 0
PSCL4 PREFETCHES SAME FILL-ORIGIN LEVEL: 0 DIFFERENT FILL-ORIGIN LEVEL: 0

PSCL3 TOTAL     ACCESS:       4069  HIT:       4062  MISS:          7  HIT %:     99.828  MISS %:   0.172032   MPKI: 0.00014
PSCL3 LOAD TRANSLATION ACCESS:       4069  HIT:       4062  MISS:          7  HIT %:     99.828  MISS %:   0.172032   MPKI: 0.00014
PSCL3 PREFETCH  REQUESTED:          0  ISSUED:          0  USEFUL:          0  USELESS:          0
PSCL3 USEFUL LOAD PREFETCHES:          0 PREFETCH ISSUED TO LOWER LEVEL:          0  ACCURACY: -nan
PSCL3 TIMELY PREFETCHES:          0 LATE PREFETCHES: 0 DROPPED PREFETCHES: 0
PSCL3 PREFETCHES SAME FILL-ORIGIN LEVEL: 0 DIFFERENT FILL-ORIGIN LEVEL: 0

PSCL2 TOTAL     ACCESS:       4082  HIT:       3896  MISS:        186  HIT %:    95.4434  MISS %:    4.55659   MPKI: 0.00372
PSCL2 LOAD TRANSLATION ACCESS:       4082  HIT:       3896  MISS:        186  HIT %:    95.4434  MISS %:    4.55659   MPKI: 0.00372
PSCL2 PREFETCH  REQUESTED:          0  ISSUED:          0  USEFUL:          0  USELESS:          0
PSCL2 USEFUL LOAD PREFETCHES:          0 PREFETCH ISSUED TO LOWER LEVEL:          0  ACCURACY: -nan
PSCL2 TIMELY PREFETCHES:          0 LATE PREFETCHES: 0 DROPPED PREFETCHES: 0
PSCL2 PREFETCHES SAME FILL-ORIGIN LEVEL: 0 DIFFERENT FILL-ORIGIN LEVEL: 0

LLC TOTAL     ACCESS:     621511  HIT:     474397  MISS:     147114  HIT %:    76.3296  MISS %:    23.6704   MPKI: 2.94228
LLC LOAD      ACCESS:     242762  HIT:     188136  MISS:      54626  HIT %:    77.4981  MISS %:    22.5019   MPKI: 1.09252
LLC RFO       ACCESS:      47420  HIT:       8559  MISS:      38861  HIT %:    18.0493  MISS %:    81.9507   MPKI: 0.77722
LLC PREFETCH  ACCESS:     230014  HIT:     178025  MISS:      51989  HIT %:    77.3975  MISS %:    22.6025   MPKI: 1.03978
LLC WRITEBACK ACCESS:      99553  HIT:      99289  MISS:        264  HIT %:    99.7348  MISS %:   0.265185   MPKI: 0.00528
LLC LOAD TRANSLATION ACCESS:       1762  HIT:        388  MISS:       1374  HIT %:    22.0204  MISS %:    77.9796   MPKI: 0.02748
LLC PREFETCH  REQUESTED:          0  ISSUED:          0  USEFUL:      33413  USELESS:      21004
LLC USEFUL LOAD PREFETCHES:      33413 PREFETCH ISSUED TO LOWER LEVEL:      54640  ACCURACY: 61.1512
LLC TIMELY PREFETCHES:      33413 LATE PREFETCHES: 2651 DROPPED PREFETCHES: 0
LLC PREFETCHES SAME FILL-ORIGIN LEVEL: 54455 DIFFERENT FILL-ORIGIN LEVEL: 0
LLC AVERAGE MISS LATENCY: 379.772 cycles
LLC RQ	ACCESS:     291944	FORWARD:          0	MERGED:          0	TO_CACHE:     291944
LLC WQ	ACCESS:      99553	FORWARD:          0	MERGED:          0	TO_CACHE:      99553
LLC PQ	ACCESS:     239271	FORWARD:          0	MERGED:       3380	TO_CACHE:     235891

LLC Dense regions hint to LLC: 0

RAW hits: 707446
Loads Generated: 14244467
Loads sent to L1D: 13537023
Stores Generated: 4089305
Stores sent to L1D: 4089311
Major fault: 0 Minor fault: 2936
Allocated PAGES: 2936
 All Calls: 663814
 Critical Calls: 663814
------------------
Depth Distribution
------------------
depth 0: 0
depth 1: 251776
depth 2: 71514
depth 3: 43474
depth 4: 32104
depth 5: 25798
depth 6: 21909
depth 7: 17705
depth 8: 12609
depth 9: 8334
depth 10: 4288
depth 11: 2007
depth 12: 801
depth 13: 70
depth 14: 0
depth 15: 0
depth 16: 0
depth 17: 0
depth 18: 0
depth 19: 0
depth 20: 0
depth 21: 0
depth 22: 0
depth 23: 0
depth 24: 0
depth 25: 0
depth 26: 0
depth 27: 0
depth 28: 0
depth 29: 0
Total: 492389
-----------------------------
-----------------------------
	Captured at Filter
-----------------------------
depth 0: 0
depth 1: 10176
depth 2: 8022
depth 3: 7281
depth 4: 6490
depth 5: 5758
depth 6: 4940
depth 7: 4098
depth 8: 2822
depth 9: 1746
depth 10: 306
depth 11: 42
depth 12: 6
depth 13: 3
depth 14: 0
depth 15: 0
depth 16: 0
depth 17: 0
depth 18: 0
depth 19: 0
depth 20: 0
depth 21: 0
depth 22: 0
depth 23: 0
depth 24: 0
depth 25: 0
depth 26: 0
depth 27: 0
depth 28: 0
depth 29: 0
-----------------------------
-----------------------------
		Lost at Page
-----------------------------
depth 0: 0
depth 1: 10306
depth 2: 3371
depth 3: 2722
depth 4: 2844
depth 5: 3039
depth 6: 3236
depth 7: 3125
depth 8: 2593
depth 9: 1867
depth 10: 903
depth 11: 420
depth 12: 192
depth 13: 6
depth 14: 0
depth 15: 0
depth 16: 0
depth 17: 0
depth 18: 0
depth 19: 0
depth 20: 0
depth 21: 0
depth 22: 0
depth 23: 0
depth 24: 0
depth 25: 0
depth 26: 0
depth 27: 0
depth 28: 0
depth 29: 0
-----------------------------
-----------------------------
	Lost due to PQ Size
-----------------------------
270
-----------------------------
ST read accesses: 583596
ST write accesses: 19322
PT read accesses: 7839569
PT write accesses: 830985
FILTER read accesses: 1371923
FILTER write accesses: 329598
GHR read accesses: 326609
GHR write accesses: 30408
GHR counter read accesses: 5552432
GHR counter write accesses: 627508
ST tag read accesses: 241692730
ST tag write accesses: 18894445

DRAM Statistics
 CHANNEL 0
 RQ ROW_BUFFER_HIT:      36063  ROW_BUFFER_MISS:     110786
 DBUS_CONGESTED:     132664
 WQ ROW_BUFFER_HIT:      16468  ROW_BUFFER_MISS:      58476  FULL:          0

 AVG_CONGESTED_CYCLE: 48
 All warmup complete: 2
Channel 0 Bank busy for read cycles: 0
Channel 0 Bank busy for write cycles: 0
Channel 0
Rank 0
0banks busy for read cycles: 61006074
0banks busy for write cycles: 22448
1banks busy for read cycles: 6907094
1banks busy for write cycles: 2977890
2banks busy for read cycles: 2889022
2banks busy for write cycles: 1312200
3banks busy for read cycles: 1177486
3banks busy for write cycles: 715490
4banks busy for read cycles: 475233
4banks busy for write cycles: 441658
5banks busy for read cycles: 203474
5banks busy for write cycles: 323723
6banks busy for read cycles: 107372
6banks busy for write cycles: 262891
7banks busy for read cycles: 116434
7banks busy for write cycles: 301898
8banks busy for read cycles: 1375493
8banks busy for write cycles: 1497619

CPU 0 Branch Prediction Accuracy: 93.5327% MPKI: 11.3995 Average ROB Occupancy at Mispredict: 45.5492
Branch types
NOT_BRANCH: 41186521 82.373%
BRANCH_DIRECT_JUMP: 410484 0.820968%
BRANCH_INDIRECT: 28973 0.057946%
BRANCH_CONDITIONAL: 6971023 13.942%
BRANCH_DIRECT_CALL: 484117 0.968234%
BRANCH_INDIRECT_CALL: 217116 0.434232%
BRANCH_RETURN: 701425 1.40285%
BRANCH_OTHER: 0 0%

@sumon_overall_L1D         0         0         0         0         0         0
@Sumon_Early_by_class_L1D         0         0         0         0
@Sumon_Late_by_class_L1D         0         0         0         0

@Sumon_Early_by_cycle_L1D         0         0         0         0         0         0         0         0         0         0         0         0
@Sumon_Late_by_cycle_L1D         0         0         0         0         0         0         0         0         0         0         0         0
@Sumon_Early_stream_L1D         0         0         0         0         0         0         0         0         0         0         0         0
@Sumon_Early_CS_L1D         0         0         0         0         0         0         0         0         0         0         0         0
@Sumon_Early_CPLX_L1D         0         0         0         0         0         0         0         0         0         0         0         0
@Sumon_Late_stream_L1D         0         0         0         0         0         0         0         0         0         0         0         0
@Sumon_Late_CS_L1D         0         0         0         0         0         0         0         0         0         0         0         0
@Sumon_Late_CPLX_L1D         0         0         0         0         0         0         0         0         0         0         0         0
@sumon_overall_L2C      7494       765       115      7612    416859    417071
@Sumon_Early_by_class_L2C         0         0         0         0
@Sumon_Late_by_class_L2C         0         0         0         0

@Sumon_Early_by_cycle_L2C       847      1113      1098      1810      1076       421        96       627       298        87         6        15
@Sumon_Late_by_cycle_L2C       721        25        19         0         0         0         0         0         0         0         0         0
@Sumon_Early_stream_L2C         0         0         0         0         0         0         0         0         0         0         0         0
@Sumon_Early_CS_L2C         0         0         0         0         0         0         0         0         0         0         0         0
@Sumon_Early_CPLX_L2C         0         0         0         0         0         0         0         0         0         0         0         0
@Sumon_Late_stream_L2C         0         0         0         0         0         0         0         0         0         0         0         0
@Sumon_Late_CS_L2C         0         0         0         0         0         0         0         0         0         0         0         0
@Sumon_Late_CPLX_L2C         0         0         0         0         0         0         0         0         0         0         0         0
DRAM PAGES: 1048576
Allocated PAGES: 2936
