Initialize SIGNATURE TABLE
ST_SET: 1
ST_WAY: 256
ST_TAG_BIT: 16
ST_TAG_MASK: ffff

Initialize PATTERN TABLE
PT_SET: 512
PT_WAY: 4
SIG_DELTA_BIT: 7
C_SIG_BIT: 4
C_DELTA_BIT: 4

Initialize PREFETCH FILTER
FILTER_SET: 1024

*** ChampSim Multicore Out-of-Order Simulator ***

Warmup Instructions: 10000000
Simulation Instructions: 50000000
Number of CPUs: 1
LLC sets: 2048
LLC ways: 16
Off-chip DRAM Size: 4096 MB Channels: 1 Width: 64-bit Data Rate: 533 MT/s
CPU 0 runs traces/clientserver/server_001.champsimtrace.xz
.xz
CPU 0 Bimodal branch predictor
BTB has LRU replacement policy
ITLB has LRU replacement policy
DTLB has LRU replacement policy
STLB has LRU replacement policy
L1I has LRU replacement policy
L1D has LRU replacement policy
ST_WAYS: 256
PT_SETS: 512
L2C has LRU replacement policy
LLC has LRU replacement policy
Heartbeat CPU 0 instructions: 10000003 cycles: 2758257 heartbeat IPC: 3.62548 cumulative IPC: 3.62548 (Simulation time: 1 hr 13 min 35 sec) 

Warmup complete CPU 0 instructions: 10000003 cycles: 2758257 (Simulation time: 1 hr 14 min 37 sec) 

Heartbeat CPU 0 instructions: 20000003 cycles: 20399535 heartbeat IPC: 0.566852 cumulative IPC: 0.566852 (Simulation time: 3 hr 11 min 31 sec) 
Heartbeat CPU 0 instructions: 30000000 cycles: 37680077 heartbeat IPC: 0.578685 cumulative IPC: 0.572708 (Simulation time: 3 hr 27 min 24 sec) 
Heartbeat CPU 0 instructions: 40000002 cycles: 55688628 heartbeat IPC: 0.555292 cumulative IPC: 0.566782 (Simulation time: 3 hr 47 min 1 sec) 
Heartbeat CPU 0 instructions: 50000002 cycles: 72938066 heartbeat IPC: 0.579729 cumulative IPC: 0.569964 (Simulation time: 4 hr 5 min 8 sec) 
Heartbeat CPU 0 instructions: 60000002 cycles: 90499185 heartbeat IPC: 0.56944 cumulative IPC: 0.569859 (Simulation time: 4 hr 20 min 27 sec) 
Finished CPU 0 instructions: 50000002 cycles: 87740929 cumulative IPC: 0.56986 (Simulation time: 4 hr 20 min 27 sec) 

ChampSim completed all CPUs

Region of Interest Statistics

CPU 0 cumulative IPC: 0.56986 instructions: 50000002 cycles: 87740929
ITLB TOTAL     ACCESS:    7440553  HIT:    7341017  MISS:      99536  HIT %:    98.6622  MISS %:    1.33775   MPKI: 1.99072
ITLB LOAD TRANSLATION ACCESS:    7440553  HIT:    7341017  MISS:      99536  HIT %:    98.6622  MISS %:    1.33775   MPKI: 1.99072
ITLB PREFETCH  REQUESTED:          0  ISSUED:          0  USEFUL:          0  USELESS:          0
ITLB USEFUL LOAD PREFETCHES:          0 PREFETCH ISSUED TO LOWER LEVEL:          0  ACCURACY: -nan
ITLB TIMELY PREFETCHES:          0 LATE PREFETCHES: 0 DROPPED PREFETCHES: 0
ITLB PREFETCHES SAME FILL-ORIGIN LEVEL: 0 DIFFERENT FILL-ORIGIN LEVEL: 0
ITLB AVERAGE MISS LATENCY: 15.474 cycles
ITLB RQ	ACCESS:    9211294	FORWARD:          0	MERGED:    1739868	TO_CACHE:    7471426

DTLB TOTAL     ACCESS:   10237428  HIT:    9931512  MISS:     305916  HIT %:    97.0118  MISS %:    2.98821   MPKI: 6.11832
DTLB LOAD TRANSLATION ACCESS:   10237428  HIT:    9931512  MISS:     305916  HIT %:    97.0118  MISS %:    2.98821   MPKI: 6.11832
DTLB PREFETCH  REQUESTED:          0  ISSUED:          0  USEFUL:          0  USELESS:          0
DTLB USEFUL LOAD PREFETCHES:          0 PREFETCH ISSUED TO LOWER LEVEL:          0  ACCURACY: -nan
DTLB TIMELY PREFETCHES:          0 LATE PREFETCHES: 0 DROPPED PREFETCHES: 0
DTLB PREFETCHES SAME FILL-ORIGIN LEVEL: 0 DIFFERENT FILL-ORIGIN LEVEL: 0
DTLB AVERAGE MISS LATENCY: 22.7868 cycles
DTLB RQ	ACCESS:   12518957	FORWARD:          0	MERGED:    2268328	TO_CACHE:   10250629

STLB TOTAL     ACCESS:     405452  HIT:     372931  MISS:      32521  HIT %:    91.9791  MISS %:    8.02092   MPKI: 0.65042
STLB LOAD TRANSLATION ACCESS:     405452  HIT:     372931  MISS:      32521  HIT %:    91.9791  MISS %:    8.02092   MPKI: 0.65042
STLB PREFETCH  REQUESTED:          0  ISSUED:          0  USEFUL:          0  USELESS:          0
STLB USEFUL LOAD PREFETCHES:          0 PREFETCH ISSUED TO LOWER LEVEL:          0  ACCURACY: -nan
STLB TIMELY PREFETCHES:          0 LATE PREFETCHES: 0 DROPPED PREFETCHES: 0
STLB PREFETCHES SAME FILL-ORIGIN LEVEL: 0 DIFFERENT FILL-ORIGIN LEVEL: 0
STLB AVERAGE MISS LATENCY: 149.142 cycles
STLB RQ	ACCESS:     405452	FORWARD:          0	MERGED:          0	TO_CACHE:     405452

STLB Hit, L1D data hit: 0
STLB Hit, L2C data hit: 0
STLB Hit, LLC data hit: 0
STLB Hit, LLC data miss: 0
STLB STLB hints to L2: 0
L1D TOTAL     ACCESS:   12150076  HIT:   11723537  MISS:     426539  HIT %:    96.4894  MISS %:    3.51059   MPKI: 8.53078
L1D LOAD      ACCESS:    7037256  HIT:    6715594  MISS:     321662  HIT %:    95.4292  MISS %:    4.57084   MPKI: 6.43324
L1D RFO       ACCESS:    5112820  HIT:    5007943  MISS:     104877  HIT %:    97.9487  MISS %:    2.05126   MPKI: 2.09754
L1D PREFETCH  REQUESTED:          0  ISSUED:          0  USEFUL:          0  USELESS:          0
L1D USEFUL LOAD PREFETCHES:          0 PREFETCH ISSUED TO LOWER LEVEL:          0  ACCURACY: -nan
L1D TIMELY PREFETCHES:          0 LATE PREFETCHES: 0 DROPPED PREFETCHES: 0
L1D PREFETCHES SAME FILL-ORIGIN LEVEL: 0 DIFFERENT FILL-ORIGIN LEVEL: 0
L1D AVERAGE MISS LATENCY: 249.127 cycles
L1D RQ	ACCESS:   10723080	FORWARD:          0	MERGED:    3581995	TO_CACHE:    7071712
L1D WQ	ACCESS:    5532902	FORWARD:      69373	MERGED:      85657	TO_CACHE:    5447245

L1D UNIQUE REGIONS ACCESSED: 0
L1D REGIONS CONFLICTS: 0
L1D Cross Page Prefetch Requests: 0
L1D Same Page Prefetch Requests: 0
L1D ROI Sum of L1D PQ occupancy: 0
L1D PREFETCHES PUSHED FROM L2C: 0
L1I TOTAL     ACCESS:    8999204  HIT:    8490794  MISS:     508410  HIT %:    94.3505  MISS %:     5.6495   MPKI: 10.1682
L1I LOAD      ACCESS:    8999204  HIT:    8490794  MISS:     508410  HIT %:    94.3505  MISS %:     5.6495   MPKI: 10.1682
L1I PREFETCH  REQUESTED:          0  ISSUED:          0  USEFUL:          0  USELESS:          0
L1I USEFUL LOAD PREFETCHES:          0 PREFETCH ISSUED TO LOWER LEVEL:          0  ACCURACY: -nan
L1I TIMELY PREFETCHES:          0 LATE PREFETCHES: 0 DROPPED PREFETCHES: 0
L1I PREFETCHES SAME FILL-ORIGIN LEVEL: 0 DIFFERENT FILL-ORIGIN LEVEL: 0
L1I AVERAGE MISS LATENCY: 38.6329 cycles
L1I RQ	ACCESS:   13358547	FORWARD:          0	MERGED:    4147253	TO_CACHE:    9211294

BTB TOTAL     ACCESS:    4006878  HIT:    3708536  MISS:     298342  HIT %:    92.5543  MISS %:    7.44575   MPKI: 5.96684
BTB BRANCH_DIRECT_JUMP	ACCESS:     351729  HIT:     340340  MISS:      11389
BTB BRANCH_INDIRECT	ACCESS:     151140  HIT:      90845  MISS:      60295
BTB BRANCH_CONDITIONAL	ACCESS:    2268946  HIT:    2221463  MISS:      47483
BTB BRANCH_DIRECT_CALL	ACCESS:     577843  HIT:     558068  MISS:      19775
BTB BRANCH_INDIRECT_CALL	ACCESS:      27215  HIT:      24769  MISS:       2446
BTB BRANCH_RETURN	ACCESS:     630005  HIT:     473051  MISS:     156954
BTB BRANCH_OTHER ACCESS:          0  HIT:          0  MISS:          0

L2C TOTAL     ACCESS:    1523746  HIT:    1060028  MISS:     463718  HIT %:    69.5672  MISS %:    30.4328   MPKI: 9.27436
L2C LOAD      ACCESS:     830070  HIT:     520008  MISS:     310062  HIT %:    62.6463  MISS %:    37.3537   MPKI: 6.20124
L2C DATA LOAD MPKI: 3.38304
L2C INSTRUCTION LOAD MPKI: 2.8182
L2C RFO       ACCESS:     104877  HIT:      16274  MISS:      88603  HIT %:    15.5172  MISS %:    84.4828   MPKI: 1.77206
L2C PREFETCH  ACCESS:     336918  HIT:     294562  MISS:      42356  HIT %:    87.4284  MISS %:    12.5716   MPKI: 0.84712
L2C DATA PREFETCH MPKI: 0.84712
L2C INSTRUCTION PREFETCH MPKI: 0
L2C WRITEBACK ACCESS:     210647  HIT:     210059  MISS:        588  HIT %:    99.7209  MISS %:    0.27914   MPKI: 0.01176
L2C LOAD TRANSLATION ACCESS:      41234  HIT:      19125  MISS:      22109  HIT %:    46.3816  MISS %:    53.6184   MPKI: 0.44218
L2C PREFETCH  REQUESTED:     996026  ISSUED:     989239  USEFUL:      40398  USELESS:       1941
L2C USEFUL LOAD PREFETCHES:      40398 PREFETCH ISSUED TO LOWER LEVEL:     590109  ACCURACY: 6.84585
L2C TIMELY PREFETCHES:      40398 LATE PREFETCHES: 3292 DROPPED PREFETCHES: 0
L2C PREFETCHES SAME FILL-ORIGIN LEVEL: 45648 DIFFERENT FILL-ORIGIN LEVEL: 544461
L2C AVERAGE MISS LATENCY: 252.144 cycles
L2C RQ	ACCESS:     976183	FORWARD:          0	MERGED:          0	TO_CACHE:     976181
L2C WQ	ACCESS:     210647	FORWARD:          2	MERGED:          0	TO_CACHE:     210647
L2C PQ	ACCESS:     989239	FORWARD:          0	MERGED:      87377	TO_CACHE:     901862

L2C Instructions Evicting Data 93088
L2C Translations Evicting Data 14030
L2C Data Evicting Data 195944
L2C Instructions Evicting Instructions 41399
L2C Translations Evicting Instructions 7041
L2C Data Evicting Instructions 89837
L2C Instructions Evicting Translations 6423
L2C Translations Evicting Translations 1038
L2C Data Evicting Translations 14330
L2C Dense regions hint from L2: 0
PSCL5 TOTAL     ACCESS:      32521  HIT:      32521  MISS:          0  HIT %:        100  MISS %:          0   MPKI: 0
PSCL5 LOAD TRANSLATION ACCESS:      32521  HIT:      32521  MISS:          0  HIT %:        100  MISS %:          0   MPKI: 0
PSCL5 PREFETCH  REQUESTED:          0  ISSUED:          0  USEFUL:          0  USELESS:          0
PSCL5 USEFUL LOAD PREFETCHES:          0 PREFETCH ISSUED TO LOWER LEVEL:          0  ACCURACY: -nan
PSCL5 TIMELY PREFETCHES:          0 LATE PREFETCHES: 0 DROPPED PREFETCHES: 0
PSCL5 PREFETCHES SAME FILL-ORIGIN LEVEL: 0 DIFFERENT FILL-ORIGIN LEVEL: 0

PSCL4 TOTAL     ACCESS:      31868  HIT:      31784  MISS:         84  HIT %:    99.7364  MISS %:   0.263587   MPKI: 0.00168
PSCL4 LOAD TRANSLATION ACCESS:      31868  HIT:      31784  MISS:         84  HIT %:    99.7364  MISS %:   0.263587   MPKI: 0.00168
PSCL4 PREFETCH  REQUESTED:          0  ISSUED:          0  USEFUL:          0  USELESS:          0
PSCL4 USEFUL LOAD PREFETCHES:          0 PREFETCH ISSUED TO LOWER LEVEL:          0  ACCURACY: -nan
PSCL4 TIMELY PREFETCHES:          0 LATE PREFETCHES: 0 DROPPED PREFETCHES: 0
PSCL4 PREFETCHES SAME FILL-ORIGIN LEVEL: 0 DIFFERENT FILL-ORIGIN LEVEL: 0

PSCL3 TOTAL     ACCESS:      32411  HIT:      32327  MISS:         84  HIT %:    99.7408  MISS %:   0.259171   MPKI: 0.00168
PSCL3 LOAD TRANSLATION ACCESS:      32411  HIT:      32327  MISS:         84  HIT %:    99.7408  MISS %:   0.259171   MPKI: 0.00168
PSCL3 PREFETCH  REQUESTED:          0  ISSUED:          0  USEFUL:          0  USELESS:          0
PSCL3 USEFUL LOAD PREFETCHES:          0 PREFETCH ISSUED TO LOWER LEVEL:          0  ACCURACY: -nan
PSCL3 TIMELY PREFETCHES:          0 LATE PREFETCHES: 0 DROPPED PREFETCHES: 0
PSCL3 PREFETCHES SAME FILL-ORIGIN LEVEL: 0 DIFFERENT FILL-ORIGIN LEVEL: 0

PSCL2 TOTAL     ACCESS:      32521  HIT:      23918  MISS:       8603  HIT %:    73.5463  MISS %:    26.4537   MPKI: 0.17206
PSCL2 LOAD TRANSLATION ACCESS:      32521  HIT:      23918  MISS:       8603  HIT %:    73.5463  MISS %:    26.4537   MPKI: 0.17206
PSCL2 PREFETCH  REQUESTED:          0  ISSUED:          0  USEFUL:          0  USELESS:          0
PSCL2 USEFUL LOAD PREFETCHES:          0 PREFETCH ISSUED TO LOWER LEVEL:          0  ACCURACY: -nan
PSCL2 TIMELY PREFETCHES:          0 LATE PREFETCHES: 0 DROPPED PREFETCHES: 0
PSCL2 PREFETCHES SAME FILL-ORIGIN LEVEL: 0 DIFFERENT FILL-ORIGIN LEVEL: 0

LLC TOTAL     ACCESS:    1164527  HIT:     849779  MISS:     314748  HIT %:     72.972  MISS %:     27.028   MPKI: 6.29496
LLC LOAD      ACCESS:     306769  HIT:     220418  MISS:      86351  HIT %:    71.8515  MISS %:    28.1485   MPKI: 1.72702
LLC RFO       ACCESS:      88603  HIT:      12357  MISS:      76246  HIT %:    13.9465  MISS %:    86.0535   MPKI: 1.52492
LLC PREFETCH  ACCESS:     567952  HIT:     426940  MISS:     141012  HIT %:    75.1718  MISS %:    24.8282   MPKI: 2.82024
LLC WRITEBACK ACCESS:     179094  HIT:     178949  MISS:        145  HIT %:     99.919  MISS %:  0.0809631   MPKI: 0.0029
LLC LOAD TRANSLATION ACCESS:      22109  HIT:      11115  MISS:      10994  HIT %:    50.2736  MISS %:    49.7264   MPKI: 0.21988
LLC PREFETCH  REQUESTED:          0  ISSUED:          0  USEFUL:      66767  USELESS:      74137
LLC USEFUL LOAD PREFETCHES:      66767 PREFETCH ISSUED TO LOWER LEVEL:     142482  ACCURACY: 46.86
LLC TIMELY PREFETCHES:      66767 LATE PREFETCHES: 1468 DROPPED PREFETCHES: 0
LLC PREFETCHES SAME FILL-ORIGIN LEVEL: 140116 DIFFERENT FILL-ORIGIN LEVEL: 0
LLC AVERAGE MISS LATENCY: 415.153 cycles
LLC RQ	ACCESS:     417482	FORWARD:          0	MERGED:          0	TO_CACHE:     417481
LLC WQ	ACCESS:     179094	FORWARD:          1	MERGED:          0	TO_CACHE:     179094
LLC PQ	ACCESS:     590109	FORWARD:          0	MERGED:       4497	TO_CACHE:     585612

LLC Dense regions hint to LLC: 0

RAW hits: 1039473
Loads Generated: 11762546
Loads sent to L1D: 10723080
Stores Generated: 5532898
Stores sent to L1D: 5532902
Major fault: 0 Minor fault: 12198
Allocated PAGES: 12198
 All Calls: 376258
 Critical Calls: 376258
------------------
Depth Distribution
------------------
depth 0: 0
depth 1: 306669
depth 2: 204896
depth 3: 168306
depth 4: 143509
depth 5: 122070
depth 6: 88993
depth 7: 52920
depth 8: 30892
depth 9: 14646
depth 10: 7846
depth 11: 4018
depth 12: 1747
depth 13: 425
depth 14: 0
depth 15: 0
depth 16: 0
depth 17: 0
depth 18: 0
depth 19: 0
depth 20: 0
depth 21: 0
depth 22: 0
depth 23: 0
depth 24: 0
depth 25: 0
depth 26: 0
depth 27: 0
depth 28: 0
depth 29: 0
Total: 1146937
-----------------------------
-----------------------------
	Captured at Filter
-----------------------------
depth 0: 0
depth 1: 2733
depth 2: 1398
depth 3: 1011
depth 4: 684
depth 5: 600
depth 6: 465
depth 7: 299
depth 8: 170
depth 9: 68
depth 10: 36
depth 11: 21
depth 12: 9
depth 13: 3
depth 14: 0
depth 15: 0
depth 16: 0
depth 17: 0
depth 18: 0
depth 19: 0
depth 20: 0
depth 21: 0
depth 22: 0
depth 23: 0
depth 24: 0
depth 25: 0
depth 26: 0
depth 27: 0
depth 28: 0
depth 29: 0
-----------------------------
-----------------------------
		Lost at Page
-----------------------------
depth 0: 0
depth 1: 7959
depth 2: 7216
depth 3: 8559
depth 4: 9878
depth 5: 10628
depth 6: 9400
depth 7: 6661
depth 8: 4673
depth 9: 2508
depth 10: 1509
depth 11: 853
depth 12: 429
depth 13: 113
depth 14: 1
depth 15: 1
depth 16: 0
depth 17: 0
depth 18: 0
depth 19: 0
depth 20: 0
depth 21: 0
depth 22: 0
depth 23: 0
depth 24: 0
depth 25: 0
depth 26: 0
depth 27: 0
depth 28: 0
depth 29: 0
-----------------------------
-----------------------------
	Lost due to PQ Size
-----------------------------
9862
-----------------------------
ST read accesses: 278742
ST write accesses: 42918
PT read accesses: 7203110
PT write accesses: 382171
FILTER read accesses: 1787784
FILTER write accesses: 624829
GHR read accesses: 667279
GHR write accesses: 62133
GHR counter read accesses: 6102504
GHR counter write accesses: 482959
ST tag read accesses: 145329683
ST tag write accesses: 14136515

DRAM Statistics
 CHANNEL 0
 RQ ROW_BUFFER_HIT:      86475  ROW_BUFFER_MISS:     228116
 DBUS_CONGESTED:     306974
 WQ ROW_BUFFER_HIT:      48780  ROW_BUFFER_MISS:     113740  FULL:          0

 AVG_CONGESTED_CYCLE: 48
 All warmup complete: 2
Channel 0 Bank busy for read cycles: 0
Channel 0 Bank busy for write cycles: 0
Channel 0
Rank 0
0banks busy for read cycles: 41949852
0banks busy for write cycles: 39192
1banks busy for read cycles: 15233092
1banks busy for write cycles: 5495541
2banks busy for read cycles: 5864333
2banks busy for write cycles: 2825528
3banks busy for read cycles: 1911040
3banks busy for write cycles: 1656685
4banks busy for read cycles: 793470
4banks busy for write cycles: 1135945
5banks busy for read cycles: 447140
5banks busy for write cycles: 894761
6banks busy for read cycles: 305118
6banks busy for write cycles: 814120
7banks busy for read cycles: 273619
7banks busy for write cycles: 1035079
8banks busy for read cycles: 3513090
8banks busy for write cycles: 3553325

CPU 0 Branch Prediction Accuracy: 95.5458% MPKI: 7.59568 Average ROB Occupancy at Mispredict: 40.3461
Branch types
NOT_BRANCH: 41473242 82.9465%
BRANCH_DIRECT_JUMP: 351729 0.703458%
BRANCH_INDIRECT: 151140 0.30228%
BRANCH_CONDITIONAL: 6788465 13.5769%
BRANCH_DIRECT_CALL: 577843 1.15569%
BRANCH_INDIRECT_CALL: 27215 0.05443%
BRANCH_RETURN: 630005 1.26001%
BRANCH_OTHER: 0 0%

@sumon_overall_L1D         0         0         0         0         0         0
@Sumon_Early_by_class_L1D         0         0         0         0
@Sumon_Late_by_class_L1D         0         0         0         0

@Sumon_Early_by_cycle_L1D         0         0         0         0         0         0         0         0         0         0         0         0
@Sumon_Late_by_cycle_L1D         0         0         0         0         0         0         0         0         0         0         0         0
@Sumon_Early_stream_L1D         0         0         0         0         0         0         0         0         0         0         0         0
@Sumon_Early_CS_L1D         0         0         0         0         0         0         0         0         0         0         0         0
@Sumon_Early_CPLX_L1D         0         0         0         0         0         0         0         0         0         0         0         0
@Sumon_Late_stream_L1D         0         0         0         0         0         0         0         0         0         0         0         0
@Sumon_Late_CS_L1D         0         0         0         0         0         0         0         0         0         0         0         0
@Sumon_Late_CPLX_L1D         0         0         0         0         0         0         0         0         0         0         0         0
@sumon_overall_L2C     40398      3292      1941     42356    989239    996026
@Sumon_Early_by_class_L2C         0         0         0         0
@Sumon_Late_by_class_L2C         0         0         0         0

@Sumon_Early_by_cycle_L2C      6124      5879      8849      8074      4162      3853      1719      1049       468       114        38        69
@Sumon_Late_by_cycle_L2C      3112       150        28         0         0         2         0         0         0         0         0         0
@Sumon_Early_stream_L2C         0         0         0         0         0         0         0         0         0         0         0         0
@Sumon_Early_CS_L2C         0         0         0         0         0         0         0         0         0         0         0         0
@Sumon_Early_CPLX_L2C         0         0         0         0         0         0         0         0         0         0         0         0
@Sumon_Late_stream_L2C         0         0         0         0         0         0         0         0         0         0         0         0
@Sumon_Late_CS_L2C         0         0         0         0         0         0         0         0         0         0         0         0
@Sumon_Late_CPLX_L2C         0         0         0         0         0         0         0         0         0         0         0         0
DRAM PAGES: 1048576
Allocated PAGES: 12198
