Initialize SIGNATURE TABLE
ST_SET: 1
ST_WAY: 256
ST_TAG_BIT: 16
ST_TAG_MASK: ffff

Initialize PATTERN TABLE
PT_SET: 512
PT_WAY: 4
SIG_DELTA_BIT: 7
C_SIG_BIT: 4
C_DELTA_BIT: 4

Initialize PREFETCH FILTER
FILTER_SET: 1024

*** ChampSim Multicore Out-of-Order Simulator ***

Warmup Instructions: 10000000
Simulation Instructions: 50000000
Number of CPUs: 1
LLC sets: 2048
LLC ways: 16
Off-chip DRAM Size: 4096 MB Channels: 1 Width: 64-bit Data Rate: 533 MT/s
CPU 0 runs traces/clientserver/server_018.champsimtrace.xz
.xz
CPU 0 Bimodal branch predictor
BTB has LRU replacement policy
ITLB has LRU replacement policy
DTLB has LRU replacement policy
STLB has LRU replacement policy
L1I has LRU replacement policy
L1D has LRU replacement policy
ST_WAYS: 256
PT_SETS: 512
L2C has LRU replacement policy
LLC has LRU replacement policy
Heartbeat CPU 0 instructions: 10000003 cycles: 3210692 heartbeat IPC: 3.11459 cumulative IPC: 3.11459 (Simulation time: 3 hr 22 min 36 sec) 

Warmup complete CPU 0 instructions: 10000003 cycles: 3210692 (Simulation time: 3 hr 22 min 39 sec) 

Heartbeat CPU 0 instructions: 20000000 cycles: 40528758 heartbeat IPC: 0.267967 cumulative IPC: 0.267967 (Simulation time: 4 hr 2 min 22 sec) 
Heartbeat CPU 0 instructions: 30000000 cycles: 77823750 heartbeat IPC: 0.268133 cumulative IPC: 0.26805 (Simulation time: 4 hr 31 min 24 sec) 
Heartbeat CPU 0 instructions: 40000000 cycles: 115356986 heartbeat IPC: 0.266431 cumulative IPC: 0.267508 (Simulation time: 4 hr 47 min 26 sec) 
Heartbeat CPU 0 instructions: 50000000 cycles: 152345219 heartbeat IPC: 0.270356 cumulative IPC: 0.268214 (Simulation time: 4 hr 55 min 4 sec) 
Heartbeat CPU 0 instructions: 60000000 cycles: 189451463 heartbeat IPC: 0.269496 cumulative IPC: 0.26847 (Simulation time: 5 hr 1 min 45 sec) 
Finished CPU 0 instructions: 50000003 cycles: 186240785 cumulative IPC: 0.26847 (Simulation time: 5 hr 1 min 45 sec) 

ChampSim completed all CPUs

Region of Interest Statistics

CPU 0 cumulative IPC: 0.26847 instructions: 50000003 cycles: 186240785
ITLB TOTAL     ACCESS:    9026267  HIT:    8690957  MISS:     335310  HIT %:    96.2852  MISS %:    3.71482   MPKI: 6.7062
ITLB LOAD TRANSLATION ACCESS:    9026267  HIT:    8690957  MISS:     335310  HIT %:    96.2852  MISS %:    3.71482   MPKI: 6.7062
ITLB PREFETCH  REQUESTED:          0  ISSUED:          0  USEFUL:          0  USELESS:          0
ITLB USEFUL LOAD PREFETCHES:          0 PREFETCH ISSUED TO LOWER LEVEL:          0  ACCURACY: -nan
ITLB TIMELY PREFETCHES:          0 LATE PREFETCHES: 0 DROPPED PREFETCHES: 0
ITLB PREFETCHES SAME FILL-ORIGIN LEVEL: 0 DIFFERENT FILL-ORIGIN LEVEL: 0
ITLB AVERAGE MISS LATENCY: 9.70215 cycles
ITLB RQ	ACCESS:   10523621	FORWARD:          0	MERGED:    1390121	TO_CACHE:    9133500

DTLB TOTAL     ACCESS:   11580084  HIT:   11143400  MISS:     436684  HIT %:     96.229  MISS %:    3.77099   MPKI: 8.73368
DTLB LOAD TRANSLATION ACCESS:   11580084  HIT:   11143400  MISS:     436684  HIT %:     96.229  MISS %:    3.77099   MPKI: 8.73368
DTLB PREFETCH  REQUESTED:          0  ISSUED:          0  USEFUL:          0  USELESS:          0
DTLB USEFUL LOAD PREFETCHES:          0 PREFETCH ISSUED TO LOWER LEVEL:          0  ACCURACY: -nan
DTLB TIMELY PREFETCHES:          0 LATE PREFETCHES: 0 DROPPED PREFETCHES: 0
DTLB PREFETCHES SAME FILL-ORIGIN LEVEL: 0 DIFFERENT FILL-ORIGIN LEVEL: 0
DTLB AVERAGE MISS LATENCY: 22.425 cycles
DTLB RQ	ACCESS:   15954746	FORWARD:          0	MERGED:    4321544	TO_CACHE:   11633202

STLB TOTAL     ACCESS:     771994  HIT:     729658  MISS:      42336  HIT %:     94.516  MISS %:    5.48398   MPKI: 0.84672
STLB LOAD TRANSLATION ACCESS:     771994  HIT:     729658  MISS:      42336  HIT %:     94.516  MISS %:    5.48398   MPKI: 0.84672
STLB PREFETCH  REQUESTED:          0  ISSUED:          0  USEFUL:          0  USELESS:          0
STLB USEFUL LOAD PREFETCHES:          0 PREFETCH ISSUED TO LOWER LEVEL:          0  ACCURACY: -nan
STLB TIMELY PREFETCHES:          0 LATE PREFETCHES: 0 DROPPED PREFETCHES: 0
STLB PREFETCHES SAME FILL-ORIGIN LEVEL: 0 DIFFERENT FILL-ORIGIN LEVEL: 0
STLB AVERAGE MISS LATENCY: 143.836 cycles
STLB RQ	ACCESS:     771995	FORWARD:          0	MERGED:          0	TO_CACHE:     771995

STLB Hit, L1D data hit: 0
STLB Hit, L2C data hit: 0
STLB Hit, LLC data hit: 0
STLB Hit, LLC data miss: 0
STLB STLB hints to L2: 0
L1D TOTAL     ACCESS:   13598355  HIT:   11865340  MISS:    1733015  HIT %:    87.2557  MISS %:    12.7443   MPKI: 34.6603
L1D LOAD      ACCESS:    7860560  HIT:    6992113  MISS:     868447  HIT %:    88.9518  MISS %:    11.0482   MPKI: 17.3689
L1D RFO       ACCESS:    5737795  HIT:    4873227  MISS:     864568  HIT %:    84.9321  MISS %:    15.0679   MPKI: 17.2914
L1D PREFETCH  REQUESTED:          0  ISSUED:          0  USEFUL:          0  USELESS:          0
L1D USEFUL LOAD PREFETCHES:          0 PREFETCH ISSUED TO LOWER LEVEL:          0  ACCURACY: -nan
L1D TIMELY PREFETCHES:          0 LATE PREFETCHES: 0 DROPPED PREFETCHES: 0
L1D PREFETCHES SAME FILL-ORIGIN LEVEL: 0 DIFFERENT FILL-ORIGIN LEVEL: 0
L1D AVERAGE MISS LATENCY: 607.713 cycles
L1D RQ	ACCESS:   11182846	FORWARD:          0	MERGED:    3167739	TO_CACHE:    7902478
L1D WQ	ACCESS:    8124999	FORWARD:     112629	MERGED:      72731	TO_CACHE:    8052268

L1D UNIQUE REGIONS ACCESSED: 0
L1D REGIONS CONFLICTS: 0
L1D Cross Page Prefetch Requests: 0
L1D Same Page Prefetch Requests: 0
L1D ROI Sum of L1D PQ occupancy: 0
L1D PREFETCHES PUSHED FROM L2C: 0
L1I TOTAL     ACCESS:    9877844  HIT:    7717690  MISS:    2160154  HIT %:    78.1313  MISS %:    21.8687   MPKI: 43.2031
L1I LOAD      ACCESS:    9877844  HIT:    7717690  MISS:    2160154  HIT %:    78.1313  MISS %:    21.8687   MPKI: 43.2031
L1I PREFETCH  REQUESTED:          0  ISSUED:          0  USEFUL:          0  USELESS:          0
L1I USEFUL LOAD PREFETCHES:          0 PREFETCH ISSUED TO LOWER LEVEL:          0  ACCURACY: -nan
L1I TIMELY PREFETCHES:          0 LATE PREFETCHES: 0 DROPPED PREFETCHES: 0
L1I PREFETCHES SAME FILL-ORIGIN LEVEL: 0 DIFFERENT FILL-ORIGIN LEVEL: 0
L1I AVERAGE MISS LATENCY: 17.5237 cycles
L1I RQ	ACCESS:   14557947	FORWARD:          0	MERGED:    4034326	TO_CACHE:   10523621

BTB TOTAL     ACCESS:    5422120  HIT:    5181249  MISS:     240871  HIT %:    95.5576  MISS %:    4.44238   MPKI: 4.81742
BTB BRANCH_DIRECT_JUMP	ACCESS:     465584  HIT:     463773  MISS:       1811
BTB BRANCH_INDIRECT	ACCESS:      44299  HIT:      44128  MISS:        171
BTB BRANCH_CONDITIONAL	ACCESS:    3164088  HIT:    3158244  MISS:       5844
BTB BRANCH_DIRECT_CALL	ACCESS:     670381  HIT:     666525  MISS:       3856
BTB BRANCH_INDIRECT_CALL	ACCESS:     203693  HIT:     177595  MISS:      26098
BTB BRANCH_RETURN	ACCESS:     874075  HIT:     670984  MISS:     203091
BTB BRANCH_OTHER ACCESS:          0  HIT:          0  MISS:          0

L2C TOTAL     ACCESS:    5579032  HIT:    3916325  MISS:    1662707  HIT %:    70.1972  MISS %:    29.8028   MPKI: 33.2541
L2C LOAD      ACCESS:    3028589  HIT:    2398179  MISS:     630410  HIT %:    79.1847  MISS %:    20.8153   MPKI: 12.6082
L2C DATA LOAD MPKI: 10.2741
L2C INSTRUCTION LOAD MPKI: 2.33406
L2C RFO       ACCESS:     864559  HIT:      20916  MISS:     843643  HIT %:    2.41927  MISS %:    97.5807   MPKI: 16.8729
L2C PREFETCH  ACCESS:     529806  HIT:     365474  MISS:     164332  HIT %:    68.9826  MISS %:    31.0174   MPKI: 3.28664
L2C DATA PREFETCH MPKI: 3.28664
L2C INSTRUCTION PREFETCH MPKI: 0
L2C WRITEBACK ACCESS:    1106445  HIT:    1104792  MISS:       1653  HIT %:    99.8506  MISS %:   0.149397   MPKI: 0.03306
L2C LOAD TRANSLATION ACCESS:      49633  HIT:      26964  MISS:      22669  HIT %:    54.3268  MISS %:    45.6732   MPKI: 0.45338
L2C PREFETCH  REQUESTED:    2734974  ISSUED:    2734879  USEFUL:     160626  USELESS:       3714
L2C USEFUL LOAD PREFETCHES:     160626 PREFETCH ISSUED TO LOWER LEVEL:    2296231  ACCURACY: 6.9952
L2C TIMELY PREFETCHES:     160626 LATE PREFETCHES: 15528 DROPPED PREFETCHES: 0
L2C PREFETCHES SAME FILL-ORIGIN LEVEL: 179860 DIFFERENT FILL-ORIGIN LEVEL: 2116371
L2C AVERAGE MISS LATENCY: 631.075 cycles
L2C RQ	ACCESS:    3942802	FORWARD:          0	MERGED:          0	TO_CACHE:    3942781
L2C WQ	ACCESS:    1106445	FORWARD:         21	MERGED:          0	TO_CACHE:    1106445
L2C PQ	ACCESS:    2734879	FORWARD:          0	MERGED:      40790	TO_CACHE:    2694089

L2C Instructions Evicting Data 108625
L2C Translations Evicting Data 20935
L2C Data Evicting Data 1393275
L2C Instructions Evicting Instructions 6349
L2C Translations Evicting Instructions 1492
L2C Data Evicting Instructions 107729
L2C Instructions Evicting Translations 1729
L2C Translations Evicting Translations 242
L2C Data Evicting Translations 20678
L2C Dense regions hint from L2: 0
PSCL5 TOTAL     ACCESS:      42336  HIT:      42336  MISS:          0  HIT %:        100  MISS %:          0   MPKI: 0
PSCL5 LOAD TRANSLATION ACCESS:      42336  HIT:      42336  MISS:          0  HIT %:        100  MISS %:          0   MPKI: 0
PSCL5 PREFETCH  REQUESTED:          0  ISSUED:          0  USEFUL:          0  USELESS:          0
PSCL5 USEFUL LOAD PREFETCHES:          0 PREFETCH ISSUED TO LOWER LEVEL:          0  ACCURACY: -nan
PSCL5 TIMELY PREFETCHES:          0 LATE PREFETCHES: 0 DROPPED PREFETCHES: 0
PSCL5 PREFETCHES SAME FILL-ORIGIN LEVEL: 0 DIFFERENT FILL-ORIGIN LEVEL: 0

PSCL4 TOTAL     ACCESS:      40249  HIT:      40151  MISS:         98  HIT %:    99.7565  MISS %:   0.243484   MPKI: 0.00196
PSCL4 LOAD TRANSLATION ACCESS:      40249  HIT:      40151  MISS:         98  HIT %:    99.7565  MISS %:   0.243484   MPKI: 0.00196
PSCL4 PREFETCH  REQUESTED:          0  ISSUED:          0  USEFUL:          0  USELESS:          0
PSCL4 USEFUL LOAD PREFETCHES:          0 PREFETCH ISSUED TO LOWER LEVEL:          0  ACCURACY: -nan
PSCL4 TIMELY PREFETCHES:          0 LATE PREFETCHES: 0 DROPPED PREFETCHES: 0
PSCL4 PREFETCHES SAME FILL-ORIGIN LEVEL: 0 DIFFERENT FILL-ORIGIN LEVEL: 0

PSCL3 TOTAL     ACCESS:      42313  HIT:      42211  MISS:        102  HIT %:    99.7589  MISS %:   0.241061   MPKI: 0.00204
PSCL3 LOAD TRANSLATION ACCESS:      42313  HIT:      42211  MISS:        102  HIT %:    99.7589  MISS %:   0.241061   MPKI: 0.00204
PSCL3 PREFETCH  REQUESTED:          0  ISSUED:          0  USEFUL:          0  USELESS:          0
PSCL3 USEFUL LOAD PREFETCHES:          0 PREFETCH ISSUED TO LOWER LEVEL:          0  ACCURACY: -nan
PSCL3 TIMELY PREFETCHES:          0 LATE PREFETCHES: 0 DROPPED PREFETCHES: 0
PSCL3 PREFETCHES SAME FILL-ORIGIN LEVEL: 0 DIFFERENT FILL-ORIGIN LEVEL: 0

PSCL2 TOTAL     ACCESS:      42336  HIT:      35206  MISS:       7130  HIT %:    83.1585  MISS %:    16.8415   MPKI: 0.1426
PSCL2 LOAD TRANSLATION ACCESS:      42336  HIT:      35206  MISS:       7130  HIT %:    83.1585  MISS %:    16.8415   MPKI: 0.1426
PSCL2 PREFETCH  REQUESTED:          0  ISSUED:          0  USEFUL:          0  USELESS:          0
PSCL2 USEFUL LOAD PREFETCHES:          0 PREFETCH ISSUED TO LOWER LEVEL:          0  ACCURACY: -nan
PSCL2 TIMELY PREFETCHES:          0 LATE PREFETCHES: 0 DROPPED PREFETCHES: 0
PSCL2 PREFETCHES SAME FILL-ORIGIN LEVEL: 0 DIFFERENT FILL-ORIGIN LEVEL: 0

LLC TOTAL     ACCESS:    4017449  HIT:    2674194  MISS:    1343255  HIT %:    66.5645  MISS %:    33.4355   MPKI: 26.8651
LLC LOAD      ACCESS:     614882  HIT:     402346  MISS:     212536  HIT %:    65.4347  MISS %:    34.5653   MPKI: 4.25072
LLC RFO       ACCESS:     843643  HIT:     129808  MISS:     713835  HIT %:    15.3866  MISS %:    84.6134   MPKI: 14.2767
LLC PREFETCH  ACCESS:    1482080  HIT:    1078484  MISS:     403596  HIT %:    72.7683  MISS %:    27.2317   MPKI: 8.07192
LLC WRITEBACK ACCESS:    1054175  HIT:    1052694  MISS:       1481  HIT %:    99.8595  MISS %:   0.140489   MPKI: 0.02962
LLC LOAD TRANSLATION ACCESS:      22669  HIT:      10862  MISS:      11807  HIT %:    47.9157  MISS %:    52.0843   MPKI: 0.23614
LLC PREFETCH  REQUESTED:          0  ISSUED:          0  USEFUL:     136059  USELESS:     267545
LLC USEFUL LOAD PREFETCHES:     136059 PREFETCH ISSUED TO LOWER LEVEL:     424691  ACCURACY: 32.0372
LLC TIMELY PREFETCHES:     136059 LATE PREFETCHES: 21095 DROPPED PREFETCHES: 0
LLC PREFETCHES SAME FILL-ORIGIN LEVEL: 420359 DIFFERENT FILL-ORIGIN LEVEL: 0
LLC AVERAGE MISS LATENCY: 902.899 cycles
LLC RQ	ACCESS:    1481194	FORWARD:          0	MERGED:          0	TO_CACHE:    1481194
LLC WQ	ACCESS:    1054175	FORWARD:          2	MERGED:          0	TO_CACHE:    1054175
LLC PQ	ACCESS:    2296231	FORWARD:          0	MERGED:       1979	TO_CACHE:    2294250

LLC Dense regions hint to LLC: 0

RAW hits: 857989
Loads Generated: 12040837
Loads sent to L1D: 11182846
Stores Generated: 8124995
Stores sent to L1D: 8124999
Major fault: 0 Minor fault: 14638
Allocated PAGES: 14638
 All Calls: 1035864
 Critical Calls: 1035864
------------------
Depth Distribution
------------------
depth 0: 0
depth 1: 788394
depth 2: 454014
depth 3: 390174
depth 4: 356278
depth 5: 326603
depth 6: 309388
depth 7: 285537
depth 8: 210342
depth 9: 147770
depth 10: 40150
depth 11: 6981
depth 12: 284
depth 13: 0
depth 14: 0
depth 15: 0
depth 16: 0
depth 17: 0
depth 18: 0
depth 19: 0
depth 20: 0
depth 21: 0
depth 22: 0
depth 23: 0
depth 24: 0
depth 25: 0
depth 26: 0
depth 27: 0
depth 28: 0
depth 29: 0
Total: 3315915
-----------------------------
-----------------------------
	Captured at Filter
-----------------------------
depth 0: 0
depth 1: 3504
depth 2: 1385
depth 3: 1034
depth 4: 783
depth 5: 743
depth 6: 745
depth 7: 737
depth 8: 622
depth 9: 491
depth 10: 150
depth 11: 23
depth 12: 0
depth 13: 0
depth 14: 0
depth 15: 0
depth 16: 0
depth 17: 0
depth 18: 0
depth 19: 0
depth 20: 0
depth 21: 0
depth 22: 0
depth 23: 0
depth 24: 0
depth 25: 0
depth 26: 0
depth 27: 0
depth 28: 0
depth 29: 0
-----------------------------
-----------------------------
		Lost at Page
-----------------------------
depth 0: 0
depth 1: 34239
depth 2: 16103
depth 3: 16125
depth 4: 19273
depth 5: 22911
depth 6: 27560
depth 7: 31284
depth 8: 27365
depth 9: 22469
depth 10: 7109
depth 11: 1441
depth 12: 67
depth 13: 0
depth 14: 0
depth 15: 0
depth 16: 0
depth 17: 0
depth 18: 0
depth 19: 0
depth 20: 0
depth 21: 0
depth 22: 0
depth 23: 0
depth 24: 0
depth 25: 0
depth 26: 0
depth 27: 0
depth 28: 0
depth 29: 0
-----------------------------
-----------------------------
	Lost due to PQ Size
-----------------------------
393
-----------------------------
ST read accesses: 767200
ST write accesses: 101235
PT read accesses: 19866882
PT write accesses: 1011327
FILTER read accesses: 5274349
FILTER write accesses: 2074768
GHR read accesses: 1960360
GHR write accesses: 185518
GHR counter read accesses: 16783418
GHR counter write accesses: 1277973
ST tag read accesses: 385027772
ST tag write accesses: 38512896

DRAM Statistics
 CHANNEL 0
 RQ ROW_BUFFER_HIT:     387005  ROW_BUFFER_MISS:     954625
 DBUS_CONGESTED:    1951446
 WQ ROW_BUFFER_HIT:     241505  ROW_BUFFER_MISS:     623023  FULL:          0

 AVG_CONGESTED_CYCLE: 52
 All warmup complete: 2
Channel 0 Bank busy for read cycles: 0
Channel 0 Bank busy for write cycles: 0
Channel 0
Rank 0
0banks busy for read cycles: 23249436
0banks busy for write cycles: 25133
1banks busy for read cycles: 22208679
1banks busy for write cycles: 3617965
2banks busy for read cycles: 13112201
2banks busy for write cycles: 2146853
3banks busy for read cycles: 7487228
3banks busy for write cycles: 1684083
4banks busy for read cycles: 4105287
4banks busy for write cycles: 1630480
5banks busy for read cycles: 3097035
5banks busy for write cycles: 1743047
6banks busy for read cycles: 2913257
6banks busy for write cycles: 2407090
7banks busy for read cycles: 3969661
7banks busy for write cycles: 5732138
8banks busy for read cycles: 42412741
8banks busy for write cycles: 44698472

CPU 0 Branch Prediction Accuracy: 95.5125% MPKI: 7.55984 Average ROB Occupancy at Mispredict: 64.4512
Branch types
NOT_BRANCH: 41576625 83.1532%
BRANCH_DIRECT_JUMP: 465584 0.931168%
BRANCH_INDIRECT: 44299 0.088598%
BRANCH_CONDITIONAL: 6165096 12.3302%
BRANCH_DIRECT_CALL: 670381 1.34076%
BRANCH_INDIRECT_CALL: 203693 0.407386%
BRANCH_RETURN: 874075 1.74815%
BRANCH_OTHER: 0 0%

@sumon_overall_L1D         0         0         0         0         0         0
@Sumon_Early_by_class_L1D         0         0         0         0
@Sumon_Late_by_class_L1D         0         0         0         0

@Sumon_Early_by_cycle_L1D         0         0         0         0         0         0         0         0         0         0         0         0
@Sumon_Late_by_cycle_L1D         0         0         0         0         0         0         0         0         0         0         0         0
@Sumon_Early_stream_L1D         0         0         0         0         0         0         0         0         0         0         0         0
@Sumon_Early_CS_L1D         0         0         0         0         0         0         0         0         0         0         0         0
@Sumon_Early_CPLX_L1D         0         0         0         0         0         0         0         0         0         0         0         0
@Sumon_Late_stream_L1D         0         0         0         0         0         0         0         0         0         0         0         0
@Sumon_Late_CS_L1D         0         0         0         0         0         0         0         0         0         0         0         0
@Sumon_Late_CPLX_L1D         0         0         0         0         0         0         0         0         0         0         0         0
@sumon_overall_L2C    160626     15528      3714    164332   2734879   2734974
@Sumon_Early_by_class_L2C         0         0         0         0
@Sumon_Late_by_class_L2C         0         0         0         0

@Sumon_Early_by_cycle_L2C    140749      1851      2058       741       962      5558      5772       377        47      1135       563       813
@Sumon_Late_by_cycle_L2C      4518      1827      2190      1799      2154      2971        69         0         0         0         0         0
@Sumon_Early_stream_L2C         0         0         0         0         0         0         0         0         0         0         0         0
@Sumon_Early_CS_L2C         0         0         0         0         0         0         0         0         0         0         0         0
@Sumon_Early_CPLX_L2C         0         0         0         0         0         0         0         0         0         0         0         0
@Sumon_Late_stream_L2C         0         0         0         0         0         0         0         0         0         0         0         0
@Sumon_Late_CS_L2C         0         0         0         0         0         0         0         0         0         0         0         0
@Sumon_Late_CPLX_L2C         0         0         0         0         0         0         0         0         0         0         0         0
DRAM PAGES: 1048576
Allocated PAGES: 14638
