Initialize SIGNATURE TABLE
ST_SET: 1
ST_WAY: 256
ST_TAG_BIT: 16
ST_TAG_MASK: ffff

Initialize PATTERN TABLE
PT_SET: 512
PT_WAY: 4
SIG_DELTA_BIT: 7
C_SIG_BIT: 4
C_DELTA_BIT: 4

Initialize PREFETCH FILTER
FILTER_SET: 1024

*** ChampSim Multicore Out-of-Order Simulator ***

Warmup Instructions: 10000000
Simulation Instructions: 50000000
Number of CPUs: 1
LLC sets: 2048
LLC ways: 16
Off-chip DRAM Size: 4096 MB Channels: 1 Width: 64-bit Data Rate: 533 MT/s
CPU 0 runs traces/clientserver/server_016.champsimtrace.xz
.xz
CPU 0 Bimodal branch predictor
BTB has LRU replacement policy
ITLB has LRU replacement policy
DTLB has LRU replacement policy
STLB has LRU replacement policy
L1I has LRU replacement policy
L1D has LRU replacement policy
ST_WAYS: 256
PT_SETS: 512
L2C has LRU replacement policy
LLC has LRU replacement policy
Heartbeat CPU 0 instructions: 10000000 cycles: 2877563 heartbeat IPC: 3.47516 cumulative IPC: 3.47516 (Simulation time: 0 hr 10 min 26 sec) 

Warmup complete CPU 0 instructions: 10000004 cycles: 2877564 (Simulation time: 0 hr 11 min 43 sec) 

Heartbeat CPU 0 instructions: 20000000 cycles: 26114226 heartbeat IPC: 0.430354 cumulative IPC: 0.430354 (Simulation time: 3 hr 4 min 29 sec) 
Heartbeat CPU 0 instructions: 30000001 cycles: 49321493 heartbeat IPC: 0.4309 cumulative IPC: 0.430627 (Simulation time: 3 hr 11 min 54 sec) 
Heartbeat CPU 0 instructions: 40000000 cycles: 65781980 heartbeat IPC: 0.607515 cumulative IPC: 0.476914 (Simulation time: 3 hr 21 min 29 sec) 
Heartbeat CPU 0 instructions: 50000002 cycles: 80096657 heartbeat IPC: 0.698584 cumulative IPC: 0.518007 (Simulation time: 3 hr 30 min 53 sec) 
Heartbeat CPU 0 instructions: 60000003 cycles: 95488710 heartbeat IPC: 0.649686 cumulative IPC: 0.539892 (Simulation time: 3 hr 43 min 57 sec) 
Finished CPU 0 instructions: 50000002 cycles: 92611147 cumulative IPC: 0.539892 (Simulation time: 3 hr 43 min 57 sec) 

ChampSim completed all CPUs

Region of Interest Statistics

CPU 0 cumulative IPC: 0.539892 instructions: 50000002 cycles: 92611147
ITLB TOTAL     ACCESS:   10319627  HIT:   10114012  MISS:     205615  HIT %:    98.0075  MISS %:    1.99247   MPKI: 4.1123
ITLB LOAD TRANSLATION ACCESS:   10319627  HIT:   10114012  MISS:     205615  HIT %:    98.0075  MISS %:    1.99247   MPKI: 4.1123
ITLB PREFETCH  REQUESTED:          0  ISSUED:          0  USEFUL:          0  USELESS:          0
ITLB USEFUL LOAD PREFETCHES:          0 PREFETCH ISSUED TO LOWER LEVEL:          0  ACCURACY: -nan
ITLB TIMELY PREFETCHES:          0 LATE PREFETCHES: 0 DROPPED PREFETCHES: 0
ITLB PREFETCHES SAME FILL-ORIGIN LEVEL: 0 DIFFERENT FILL-ORIGIN LEVEL: 0
ITLB AVERAGE MISS LATENCY: 9.13049 cycles
ITLB RQ	ACCESS:   11152177	FORWARD:          0	MERGED:     781486	TO_CACHE:   10370691

DTLB TOTAL     ACCESS:    8432523  HIT:    8215968  MISS:     216555  HIT %:    97.4319  MISS %:    2.56809   MPKI: 4.3311
DTLB LOAD TRANSLATION ACCESS:    8432523  HIT:    8215968  MISS:     216555  HIT %:    97.4319  MISS %:    2.56809   MPKI: 4.3311
DTLB PREFETCH  REQUESTED:          0  ISSUED:          0  USEFUL:          0  USELESS:          0
DTLB USEFUL LOAD PREFETCHES:          0 PREFETCH ISSUED TO LOWER LEVEL:          0  ACCURACY: -nan
DTLB TIMELY PREFETCHES:          0 LATE PREFETCHES: 0 DROPPED PREFETCHES: 0
DTLB PREFETCHES SAME FILL-ORIGIN LEVEL: 0 DIFFERENT FILL-ORIGIN LEVEL: 0
DTLB AVERAGE MISS LATENCY: 9.57842 cycles
DTLB RQ	ACCESS:   10108523	FORWARD:          0	MERGED:    1666207	TO_CACHE:    8442316

STLB TOTAL     ACCESS:     422170  HIT:     420786  MISS:       1384  HIT %:    99.6722  MISS %:    0.32783   MPKI: 0.02768
STLB LOAD TRANSLATION ACCESS:     422170  HIT:     420786  MISS:       1384  HIT %:    99.6722  MISS %:    0.32783   MPKI: 0.02768
STLB PREFETCH  REQUESTED:          0  ISSUED:          0  USEFUL:          0  USELESS:          0
STLB USEFUL LOAD PREFETCHES:          0 PREFETCH ISSUED TO LOWER LEVEL:          0  ACCURACY: -nan
STLB TIMELY PREFETCHES:          0 LATE PREFETCHES: 0 DROPPED PREFETCHES: 0
STLB PREFETCHES SAME FILL-ORIGIN LEVEL: 0 DIFFERENT FILL-ORIGIN LEVEL: 0
STLB AVERAGE MISS LATENCY: 105.697 cycles
STLB RQ	ACCESS:     422170	FORWARD:          0	MERGED:          0	TO_CACHE:     422170

STLB Hit, L1D data hit: 0
STLB Hit, L2C data hit: 0
STLB Hit, LLC data hit: 0
STLB Hit, LLC data miss: 0
STLB STLB hints to L2: 0
L1D TOTAL     ACCESS:    9893754  HIT:    9431667  MISS:     462087  HIT %:    95.3295  MISS %:    4.67049   MPKI: 9.24174
L1D LOAD      ACCESS:    6516555  HIT:    6183586  MISS:     332969  HIT %:    94.8904  MISS %:    5.10959   MPKI: 6.65938
L1D RFO       ACCESS:    3377199  HIT:    3248081  MISS:     129118  HIT %:    96.1768  MISS %:    3.82323   MPKI: 2.58236
L1D PREFETCH  REQUESTED:          0  ISSUED:          0  USEFUL:          0  USELESS:          0
L1D USEFUL LOAD PREFETCHES:          0 PREFETCH ISSUED TO LOWER LEVEL:          0  ACCURACY: -nan
L1D TIMELY PREFETCHES:          0 LATE PREFETCHES: 0 DROPPED PREFETCHES: 0
L1D PREFETCHES SAME FILL-ORIGIN LEVEL: 0 DIFFERENT FILL-ORIGIN LEVEL: 0
L1D AVERAGE MISS LATENCY: 37.9351 cycles
L1D RQ	ACCESS:    8251721	FORWARD:          0	MERGED:    1668411	TO_CACHE:    6534029
L1D WQ	ACCESS:    3595475	FORWARD:      49281	MERGED:      20981	TO_CACHE:    3574494

L1D UNIQUE REGIONS ACCESSED: 0
L1D REGIONS CONFLICTS: 0
L1D Cross Page Prefetch Requests: 0
L1D Same Page Prefetch Requests: 0
L1D ROI Sum of L1D PQ occupancy: 0
L1D PREFETCHES PUSHED FROM L2C: 0
L1I TOTAL     ACCESS:   10958922  HIT:    9800986  MISS:    1157936  HIT %:    89.4339  MISS %:    10.5661   MPKI: 23.1587
L1I LOAD      ACCESS:   10958922  HIT:    9800986  MISS:    1157936  HIT %:    89.4339  MISS %:    10.5661   MPKI: 23.1587
L1I PREFETCH  REQUESTED:          0  ISSUED:          0  USEFUL:          0  USELESS:          0
L1I USEFUL LOAD PREFETCHES:          0 PREFETCH ISSUED TO LOWER LEVEL:          0  ACCURACY: -nan
L1I TIMELY PREFETCHES:          0 LATE PREFETCHES: 0 DROPPED PREFETCHES: 0
L1I PREFETCHES SAME FILL-ORIGIN LEVEL: 0 DIFFERENT FILL-ORIGIN LEVEL: 0
L1I AVERAGE MISS LATENCY: 17.45 cycles
L1I RQ	ACCESS:   13263893	FORWARD:          0	MERGED:    2111716	TO_CACHE:   11152177

BTB TOTAL     ACCESS:    7190442  HIT:    6378062  MISS:     812380  HIT %:    88.7019  MISS %:    11.2981   MPKI: 16.2476
BTB BRANCH_DIRECT_JUMP	ACCESS:     339309  HIT:     269834  MISS:      69475
BTB BRANCH_INDIRECT	ACCESS:     121946  HIT:     106677  MISS:      15269
BTB BRANCH_CONDITIONAL	ACCESS:    5612686  HIT:    5396939  MISS:     215747
BTB BRANCH_DIRECT_CALL	ACCESS:     483868  HIT:     323040  MISS:     160828
BTB BRANCH_INDIRECT_CALL	ACCESS:      74389  HIT:      41457  MISS:      32932
BTB BRANCH_RETURN	ACCESS:     558244  HIT:     240115  MISS:     318129
BTB BRANCH_OTHER ACCESS:          0  HIT:          0  MISS:          0

L2C TOTAL     ACCESS:    2024635  HIT:    1808943  MISS:     215692  HIT %:    89.3466  MISS %:    10.6534   MPKI: 4.31384
L2C LOAD      ACCESS:    1490905  HIT:    1314934  MISS:     175971  HIT %:     88.197  MISS %:     11.803   MPKI: 3.51942
L2C DATA LOAD MPKI: 1.11348
L2C INSTRUCTION LOAD MPKI: 2.40594
L2C RFO       ACCESS:     129115  HIT:      94505  MISS:      34610  HIT %:    73.1944  MISS %:    26.8056   MPKI: 0.6922
L2C PREFETCH  ACCESS:     186890  HIT:     185120  MISS:       1770  HIT %:    99.0529  MISS %:   0.947081   MPKI: 0.0354
L2C DATA PREFETCH MPKI: 0.0354
L2C INSTRUCTION PREFETCH MPKI: 0
L2C WRITEBACK ACCESS:     216176  HIT:     213847  MISS:       2329  HIT %:    98.9226  MISS %:    1.07736   MPKI: 0.04658
L2C LOAD TRANSLATION ACCESS:       1549  HIT:        537  MISS:       1012  HIT %:    34.6675  MISS %:    65.3325   MPKI: 0.02024
L2C PREFETCH  REQUESTED:     394753  ISSUED:     394753  USEFUL:       1444  USELESS:        328
L2C USEFUL LOAD PREFETCHES:       1444 PREFETCH ISSUED TO LOWER LEVEL:     169593  ACCURACY: 0.85145
L2C TIMELY PREFETCHES:       1444 LATE PREFETCHES: 2136 DROPPED PREFETCHES: 0
L2C PREFETCHES SAME FILL-ORIGIN LEVEL: 3906 DIFFERENT FILL-ORIGIN LEVEL: 165687
L2C AVERAGE MISS LATENCY: 67.7734 cycles
L2C RQ	ACCESS:    1621572	FORWARD:          0	MERGED:          0	TO_CACHE:    1621569
L2C WQ	ACCESS:     216176	FORWARD:          3	MERGED:          0	TO_CACHE:     216176
L2C PQ	ACCESS:     394753	FORWARD:          0	MERGED:      36381	TO_CACHE:     358372

L2C Instructions Evicting Data 46287
L2C Translations Evicting Data 663
L2C Data Evicting Data 46883
L2C Instructions Evicting Instructions 73665
L2C Translations Evicting Instructions 335
L2C Data Evicting Instructions 44548
L2C Instructions Evicting Translations 345
L2C Translations Evicting Translations 14
L2C Data Evicting Translations 623
L2C Dense regions hint from L2: 0
PSCL5 TOTAL     ACCESS:       1384  HIT:       1384  MISS:          0  HIT %:        100  MISS %:          0   MPKI: 0
PSCL5 LOAD TRANSLATION ACCESS:       1384  HIT:       1384  MISS:          0  HIT %:        100  MISS %:          0   MPKI: 0
PSCL5 PREFETCH  REQUESTED:          0  ISSUED:          0  USEFUL:          0  USELESS:          0
PSCL5 USEFUL LOAD PREFETCHES:          0 PREFETCH ISSUED TO LOWER LEVEL:          0  ACCURACY: -nan
PSCL5 TIMELY PREFETCHES:          0 LATE PREFETCHES: 0 DROPPED PREFETCHES: 0
PSCL5 PREFETCHES SAME FILL-ORIGIN LEVEL: 0 DIFFERENT FILL-ORIGIN LEVEL: 0

PSCL4 TOTAL     ACCESS:       1265  HIT:       1259  MISS:          6  HIT %:    99.5257  MISS %:   0.474308   MPKI: 0.00012
PSCL4 LOAD TRANSLATION ACCESS:       1265  HIT:       1259  MISS:          6  HIT %:    99.5257  MISS %:   0.474308   MPKI: 0.00012
PSCL4 PREFETCH  REQUESTED:          0  ISSUED:          0  USEFUL:          0  USELESS:          0
PSCL4 USEFUL LOAD PREFETCHES:          0 PREFETCH ISSUED TO LOWER LEVEL:          0  ACCURACY: -nan
PSCL4 TIMELY PREFETCHES:          0 LATE PREFETCHES: 0 DROPPED PREFETCHES: 0
PSCL4 PREFETCHES SAME FILL-ORIGIN LEVEL: 0 DIFFERENT FILL-ORIGIN LEVEL: 0

PSCL3 TOTAL     ACCESS:       1372  HIT:       1366  MISS:          6  HIT %:    99.5627  MISS %:   0.437318   MPKI: 0.00012
PSCL3 LOAD TRANSLATION ACCESS:       1372  HIT:       1366  MISS:          6  HIT %:    99.5627  MISS %:   0.437318   MPKI: 0.00012
PSCL3 PREFETCH  REQUESTED:          0  ISSUED:          0  USEFUL:          0  USELESS:          0
PSCL3 USEFUL LOAD PREFETCHES:          0 PREFETCH ISSUED TO LOWER LEVEL:          0  ACCURACY: -nan
PSCL3 TIMELY PREFETCHES:          0 LATE PREFETCHES: 0 DROPPED PREFETCHES: 0
PSCL3 PREFETCHES SAME FILL-ORIGIN LEVEL: 0 DIFFERENT FILL-ORIGIN LEVEL: 0

PSCL2 TOTAL     ACCESS:       1384  HIT:       1227  MISS:        157  HIT %:    88.6561  MISS %:    11.3439   MPKI: 0.00314
PSCL2 LOAD TRANSLATION ACCESS:       1384  HIT:       1227  MISS:        157  HIT %:    88.6561  MISS %:    11.3439   MPKI: 0.00314
PSCL2 PREFETCH  REQUESTED:          0  ISSUED:          0  USEFUL:          0  USELESS:          0
PSCL2 USEFUL LOAD PREFETCHES:          0 PREFETCH ISSUED TO LOWER LEVEL:          0  ACCURACY: -nan
PSCL2 TIMELY PREFETCHES:          0 LATE PREFETCHES: 0 DROPPED PREFETCHES: 0
PSCL2 PREFETCHES SAME FILL-ORIGIN LEVEL: 0 DIFFERENT FILL-ORIGIN LEVEL: 0

LLC TOTAL     ACCESS:     416846  HIT:     392204  MISS:      24642  HIT %:    94.0885  MISS %:    5.91154   MPKI: 0.49284
LLC LOAD      ACCESS:     173835  HIT:     167980  MISS:       5855  HIT %:    96.6319  MISS %:    3.36814   MPKI: 0.1171
LLC RFO       ACCESS:      34609  HIT:      24186  MISS:      10423  HIT %:    69.8836  MISS %:    30.1164   MPKI: 0.20846
LLC PREFETCH  ACCESS:     157874  HIT:     149798  MISS:       8076  HIT %:    94.8845  MISS %:    5.11547   MPKI: 0.16152
LLC WRITEBACK ACCESS:      49516  HIT:      49395  MISS:        121  HIT %:    99.7556  MISS %:   0.244365   MPKI: 0.00242
LLC LOAD TRANSLATION ACCESS:       1012  HIT:        845  MISS:        167  HIT %:     83.498  MISS %:     16.502   MPKI: 0.00334
LLC PREFETCH  REQUESTED:          0  ISSUED:          0  USEFUL:       2942  USELESS:       2985
LLC USEFUL LOAD PREFETCHES:       2942 PREFETCH ISSUED TO LOWER LEVEL:       8823  ACCURACY: 33.3447
LLC TIMELY PREFETCHES:       2942 LATE PREFETCHES: 747 DROPPED PREFETCHES: 0
LLC PREFETCHES SAME FILL-ORIGIN LEVEL: 8805 DIFFERENT FILL-ORIGIN LEVEL: 0
LLC AVERAGE MISS LATENCY: 402.585 cycles
LLC RQ	ACCESS:     209457	FORWARD:          0	MERGED:          0	TO_CACHE:     209456
LLC WQ	ACCESS:      49516	FORWARD:          1	MERGED:          0	TO_CACHE:      49516
LLC PQ	ACCESS:     169593	FORWARD:          0	MERGED:       7932	TO_CACHE:     161661

LLC Dense regions hint to LLC: 0

RAW hits: 341825
Loads Generated: 8593547
Loads sent to L1D: 8251721
Stores Generated: 3595476
Stores sent to L1D: 3595475
Major fault: 0 Minor fault: 2141
Allocated PAGES: 2141
 All Calls: 476852
 Critical Calls: 476852
------------------
Depth Distribution
------------------
depth 0: 0
depth 1: 328591
depth 2: 64372
depth 3: 45383
depth 4: 34300
depth 5: 21806
depth 6: 12133
depth 7: 5821
depth 8: 3392
depth 9: 1959
depth 10: 862
depth 11: 344
depth 12: 74
depth 13: 0
depth 14: 0
depth 15: 0
depth 16: 0
depth 17: 0
depth 18: 0
depth 19: 0
depth 20: 0
depth 21: 0
depth 22: 0
depth 23: 0
depth 24: 0
depth 25: 0
depth 26: 0
depth 27: 0
depth 28: 0
depth 29: 0
Total: 519037
-----------------------------
-----------------------------
	Captured at Filter
-----------------------------
depth 0: 0
depth 1: 9413
depth 2: 6472
depth 3: 5946
depth 4: 5562
depth 5: 3415
depth 6: 1608
depth 7: 372
depth 8: 79
depth 9: 27
depth 10: 3
depth 11: 1
depth 12: 0
depth 13: 0
depth 14: 0
depth 15: 0
depth 16: 0
depth 17: 0
depth 18: 0
depth 19: 0
depth 20: 0
depth 21: 0
depth 22: 0
depth 23: 0
depth 24: 0
depth 25: 0
depth 26: 0
depth 27: 0
depth 28: 0
depth 29: 0
-----------------------------
-----------------------------
		Lost at Page
-----------------------------
depth 0: 0
depth 1: 22499
depth 2: 1908
depth 3: 2111
depth 4: 2561
depth 5: 2142
depth 6: 1467
depth 7: 802
depth 8: 512
depth 9: 359
depth 10: 189
depth 11: 89
depth 12: 23
depth 13: 0
depth 14: 0
depth 15: 0
depth 16: 0
depth 17: 0
depth 18: 0
depth 19: 0
depth 20: 0
depth 21: 0
depth 22: 0
depth 23: 0
depth 24: 0
depth 25: 0
depth 26: 0
depth 27: 0
depth 28: 0
depth 29: 0
-----------------------------
-----------------------------
	Lost due to PQ Size
-----------------------------
11393
-----------------------------
ST read accesses: 282194
ST write accesses: 50775
PT read accesses: 4279958
PT write accesses: 364436
FILTER read accesses: 963776
FILTER write accesses: 242312
GHR read accesses: 597447
GHR write accesses: 27297
GHR counter read accesses: 3608826
GHR counter write accesses: 357555
ST tag read accesses: 152439097
ST tag write accesses: 24778777

DRAM Statistics
 CHANNEL 0
 RQ ROW_BUFFER_HIT:      10393  ROW_BUFFER_MISS:      14120
 DBUS_CONGESTED:      20215
 WQ ROW_BUFFER_HIT:        927  ROW_BUFFER_MISS:       4868  FULL:          0

 AVG_CONGESTED_CYCLE: 51
 All warmup complete: 2
Channel 0 Bank busy for read cycles: 0
Channel 0 Bank busy for write cycles: 0
Channel 0
Rank 0
0banks busy for read cycles: 89971672
0banks busy for write cycles: 1805
1banks busy for read cycles: 949157
1banks busy for write cycles: 249662
2banks busy for read cycles: 327087
2banks busy for write cycles: 83721
3banks busy for read cycles: 151620
3banks busy for write cycles: 49870
4banks busy for read cycles: 80284
4banks busy for write cycles: 41487
5banks busy for read cycles: 47790
5banks busy for write cycles: 32557
6banks busy for read cycles: 46208
6banks busy for write cycles: 29908
7banks busy for read cycles: 62692
7banks busy for write cycles: 28971
8banks busy for read cycles: 371822
8banks busy for write cycles: 84835

CPU 0 Branch Prediction Accuracy: 95.9591% MPKI: 7.17098 Average ROB Occupancy at Mispredict: 18.7395
Branch types
NOT_BRANCH: 41127046 82.2541%
BRANCH_DIRECT_JUMP: 339309 0.678618%
BRANCH_INDIRECT: 121946 0.243892%
BRANCH_CONDITIONAL: 7295134 14.5903%
BRANCH_DIRECT_CALL: 483868 0.967736%
BRANCH_INDIRECT_CALL: 74389 0.148778%
BRANCH_RETURN: 558244 1.11649%
BRANCH_OTHER: 0 0%

@sumon_overall_L1D         0         0         0         0         0         0
@Sumon_Early_by_class_L1D         0         0         0         0
@Sumon_Late_by_class_L1D         0         0         0         0

@Sumon_Early_by_cycle_L1D         0         0         0         0         0         0         0         0         0         0         0         0
@Sumon_Late_by_cycle_L1D         0         0         0         0         0         0         0         0         0         0         0         0
@Sumon_Early_stream_L1D         0         0         0         0         0         0         0         0         0         0         0         0
@Sumon_Early_CS_L1D         0         0         0         0         0         0         0         0         0         0         0         0
@Sumon_Early_CPLX_L1D         0         0         0         0         0         0         0         0         0         0         0         0
@Sumon_Late_stream_L1D         0         0         0         0         0         0         0         0         0         0         0         0
@Sumon_Late_CS_L1D         0         0         0         0         0         0         0         0         0         0         0         0
@Sumon_Late_CPLX_L1D         0         0         0         0         0         0         0         0         0         0         0         0
@sumon_overall_L2C      1444      2136       328      1770    394753    394753
@Sumon_Early_by_class_L2C         0         0         0         0
@Sumon_Late_by_class_L2C         0         0         0         0

@Sumon_Early_by_cycle_L2C      1121       222        13        14        52         7         3         5         0         0         0         7
@Sumon_Late_by_cycle_L2C      2083        19         2         0        19        13         0         0         0         0         0         0
@Sumon_Early_stream_L2C         0         0         0         0         0         0         0         0         0         0         0         0
@Sumon_Early_CS_L2C         0         0         0         0         0         0         0         0         0         0         0         0
@Sumon_Early_CPLX_L2C         0         0         0         0         0         0         0         0         0         0         0         0
@Sumon_Late_stream_L2C         0         0         0         0         0         0         0         0         0         0         0         0
@Sumon_Late_CS_L2C         0         0         0         0         0         0         0         0         0         0         0         0
@Sumon_Late_CPLX_L2C         0         0         0         0         0         0         0         0         0         0         0         0
DRAM PAGES: 1048576
Allocated PAGES: 2141
