Initialize SIGNATURE TABLE
ST_SET: 1
ST_WAY: 256
ST_TAG_BIT: 16
ST_TAG_MASK: ffff

Initialize PATTERN TABLE
PT_SET: 512
PT_WAY: 4
SIG_DELTA_BIT: 7
C_SIG_BIT: 4
C_DELTA_BIT: 4

Initialize PREFETCH FILTER
FILTER_SET: 1024

*** ChampSim Multicore Out-of-Order Simulator ***

Warmup Instructions: 10000000
Simulation Instructions: 50000000
Number of CPUs: 1
LLC sets: 2048
LLC ways: 16
Off-chip DRAM Size: 4096 MB Channels: 1 Width: 64-bit Data Rate: 533 MT/s
CPU 0 runs traces/clientserver/server_026.champsimtrace.xz
.xz
CPU 0 Bimodal branch predictor
BTB has LRU replacement policy
ITLB has LRU replacement policy
DTLB has LRU replacement policy
STLB has LRU replacement policy
L1I has LRU replacement policy
L1D has LRU replacement policy
ST_WAYS: 256
PT_SETS: 512
L2C has LRU replacement policy
LLC has LRU replacement policy
Heartbeat CPU 0 instructions: 10000000 cycles: 2886907 heartbeat IPC: 3.46391 cumulative IPC: 3.46391 (Simulation time: 3 hr 0 min 47 sec) 

Warmup complete CPU 0 instructions: 10000001 cycles: 2886908 (Simulation time: 3 hr 0 min 51 sec) 

Heartbeat CPU 0 instructions: 20000002 cycles: 27525890 heartbeat IPC: 0.405861 cumulative IPC: 0.405861 (Simulation time: 3 hr 7 min 7 sec) 
Heartbeat CPU 0 instructions: 30000000 cycles: 52025244 heartbeat IPC: 0.408174 cumulative IPC: 0.407014 (Simulation time: 3 hr 16 min 33 sec) 
Heartbeat CPU 0 instructions: 40000002 cycles: 76639750 heartbeat IPC: 0.406265 cumulative IPC: 0.406764 (Simulation time: 3 hr 30 min 21 sec) 
Heartbeat CPU 0 instructions: 50000000 cycles: 101023999 heartbeat IPC: 0.410101 cumulative IPC: 0.407593 (Simulation time: 3 hr 49 min 18 sec) 
*** Reached end of trace for Core: 0 Repeating trace: traces/clientserver/server_026.champsimtrace.xz
Heartbeat CPU 0 instructions: 60000000 cycles: 125752681 heartbeat IPC: 0.404389 cumulative IPC: 0.406948 (Simulation time: 4 hr 6 min 30 sec) 
Finished CPU 0 instructions: 50000001 cycles: 122865781 cumulative IPC: 0.406948 (Simulation time: 4 hr 6 min 30 sec) 

ChampSim completed all CPUs

Region of Interest Statistics

CPU 0 cumulative IPC: 0.406948 instructions: 50000001 cycles: 122865781
ITLB TOTAL     ACCESS:    8440294  HIT:    7953147  MISS:     487147  HIT %:    94.2283  MISS %:    5.77168   MPKI: 9.74294
ITLB LOAD TRANSLATION ACCESS:    8440294  HIT:    7953147  MISS:     487147  HIT %:    94.2283  MISS %:    5.77168   MPKI: 9.74294
ITLB PREFETCH  REQUESTED:          0  ISSUED:          0  USEFUL:          0  USELESS:          0
ITLB USEFUL LOAD PREFETCHES:          0 PREFETCH ISSUED TO LOWER LEVEL:          0  ACCURACY: -nan
ITLB TIMELY PREFETCHES:          0 LATE PREFETCHES: 0 DROPPED PREFETCHES: 0
ITLB PREFETCHES SAME FILL-ORIGIN LEVEL: 0 DIFFERENT FILL-ORIGIN LEVEL: 0
ITLB AVERAGE MISS LATENCY: 9.06869 cycles
ITLB RQ	ACCESS:   10066896	FORWARD:          0	MERGED:    1503122	TO_CACHE:    8563774

DTLB TOTAL     ACCESS:   12557992  HIT:   12081148  MISS:     476844  HIT %:    96.2029  MISS %:    3.79714   MPKI: 9.53688
DTLB LOAD TRANSLATION ACCESS:   12557992  HIT:   12081148  MISS:     476844  HIT %:    96.2029  MISS %:    3.79714   MPKI: 9.53688
DTLB PREFETCH  REQUESTED:          0  ISSUED:          0  USEFUL:          0  USELESS:          0
DTLB USEFUL LOAD PREFETCHES:          0 PREFETCH ISSUED TO LOWER LEVEL:          0  ACCURACY: -nan
DTLB TIMELY PREFETCHES:          0 LATE PREFETCHES: 0 DROPPED PREFETCHES: 0
DTLB PREFETCHES SAME FILL-ORIGIN LEVEL: 0 DIFFERENT FILL-ORIGIN LEVEL: 0
DTLB AVERAGE MISS LATENCY: 9.40874 cycles
DTLB RQ	ACCESS:   15677403	FORWARD:          0	MERGED:    3099190	TO_CACHE:   12578213

STLB TOTAL     ACCESS:     963991  HIT:     961765  MISS:       2226  HIT %:    99.7691  MISS %:   0.230915   MPKI: 0.04452
STLB LOAD TRANSLATION ACCESS:     963991  HIT:     961765  MISS:       2226  HIT %:    99.7691  MISS %:   0.230915   MPKI: 0.04452
STLB PREFETCH  REQUESTED:          0  ISSUED:          0  USEFUL:          0  USELESS:          0
STLB USEFUL LOAD PREFETCHES:          0 PREFETCH ISSUED TO LOWER LEVEL:          0  ACCURACY: -nan
STLB TIMELY PREFETCHES:          0 LATE PREFETCHES: 0 DROPPED PREFETCHES: 0
STLB PREFETCHES SAME FILL-ORIGIN LEVEL: 0 DIFFERENT FILL-ORIGIN LEVEL: 0
STLB AVERAGE MISS LATENCY: 98.1505 cycles
STLB RQ	ACCESS:     963991	FORWARD:          0	MERGED:          0	TO_CACHE:     963991

STLB Hit, L1D data hit: 0
STLB Hit, L2C data hit: 0
STLB Hit, LLC data hit: 0
STLB Hit, LLC data miss: 0
STLB STLB hints to L2: 0
L1D TOTAL     ACCESS:   15202392  HIT:   14143321  MISS:    1059071  HIT %:    93.0335  MISS %:    6.96648   MPKI: 21.1814
L1D LOAD      ACCESS:    8794259  HIT:    8026868  MISS:     767391  HIT %:     91.274  MISS %:    8.72605   MPKI: 15.3478
L1D RFO       ACCESS:    6408133  HIT:    6116453  MISS:     291680  HIT %:    95.4483  MISS %:    4.55172   MPKI: 5.8336
L1D PREFETCH  REQUESTED:          0  ISSUED:          0  USEFUL:          0  USELESS:          0
L1D USEFUL LOAD PREFETCHES:          0 PREFETCH ISSUED TO LOWER LEVEL:          0  ACCURACY: -nan
L1D TIMELY PREFETCHES:          0 LATE PREFETCHES: 0 DROPPED PREFETCHES: 0
L1D PREFETCHES SAME FILL-ORIGIN LEVEL: 0 DIFFERENT FILL-ORIGIN LEVEL: 0
L1D AVERAGE MISS LATENCY: 32.343 cycles
L1D RQ	ACCESS:   12091727	FORWARD:          0	MERGED:    3153329	TO_CACHE:    8824638
L1D WQ	ACCESS:    6899106	FORWARD:     113760	MERGED:      46341	TO_CACHE:    6852765

L1D UNIQUE REGIONS ACCESSED: 0
L1D REGIONS CONFLICTS: 0
L1D Cross Page Prefetch Requests: 0
L1D Same Page Prefetch Requests: 0
L1D ROI Sum of L1D PQ occupancy: 0
L1D PREFETCHES PUSHED FROM L2C: 0
L1I TOTAL     ACCESS:    9612702  HIT:    6878191  MISS:    2734511  HIT %:    71.5531  MISS %:    28.4469   MPKI: 54.6902
L1I LOAD      ACCESS:    9612702  HIT:    6878191  MISS:    2734511  HIT %:    71.5531  MISS %:    28.4469   MPKI: 54.6902
L1I PREFETCH  REQUESTED:          0  ISSUED:          0  USEFUL:          0  USELESS:          0
L1I USEFUL LOAD PREFETCHES:          0 PREFETCH ISSUED TO LOWER LEVEL:          0  ACCURACY: -nan
L1I TIMELY PREFETCHES:          0 LATE PREFETCHES: 0 DROPPED PREFETCHES: 0
L1I PREFETCHES SAME FILL-ORIGIN LEVEL: 0 DIFFERENT FILL-ORIGIN LEVEL: 0
L1I AVERAGE MISS LATENCY: 17.3724 cycles
L1I RQ	ACCESS:   13809731	FORWARD:          0	MERGED:    3742835	TO_CACHE:   10066896

BTB TOTAL     ACCESS:    5982230  HIT:    3991090  MISS:    1991140  HIT %:    66.7158  MISS %:    33.2842   MPKI: 39.8228
BTB BRANCH_DIRECT_JUMP	ACCESS:     522633  HIT:     348042  MISS:     174591
BTB BRANCH_INDIRECT	ACCESS:     204723  HIT:     167232  MISS:      37491
BTB BRANCH_CONDITIONAL	ACCESS:    3049093  HIT:    2491585  MISS:     557508
BTB BRANCH_DIRECT_CALL	ACCESS:     929734  HIT:     525672  MISS:     404062
BTB BRANCH_INDIRECT_CALL	ACCESS:     173167  HIT:      95072  MISS:      78095
BTB BRANCH_RETURN	ACCESS:    1102880  HIT:     363487  MISS:     739393
BTB BRANCH_OTHER ACCESS:          0  HIT:          0  MISS:          0

L2C TOTAL     ACCESS:    4655470  HIT:    4151606  MISS:     503864  HIT %:    89.1769  MISS %:    10.8231   MPKI: 10.0773
L2C LOAD      ACCESS:    3501897  HIT:    3085228  MISS:     416669  HIT %:    88.1016  MISS %:    11.8984   MPKI: 8.33338
L2C DATA LOAD MPKI: 2.49374
L2C INSTRUCTION LOAD MPKI: 5.83964
L2C RFO       ACCESS:     291680  HIT:     214895  MISS:      76785  HIT %:    73.6749  MISS %:    26.3251   MPKI: 1.5357
L2C PREFETCH  ACCESS:     349883  HIT:     346775  MISS:       3108  HIT %:    99.1117  MISS %:   0.888297   MPKI: 0.06216
L2C DATA PREFETCH MPKI: 0.06216
L2C INSTRUCTION PREFETCH MPKI: 0
L2C WRITEBACK ACCESS:     509623  HIT:     503790  MISS:       5833  HIT %:    98.8554  MISS %:    1.14457   MPKI: 0.11666
L2C LOAD TRANSLATION ACCESS:       2387  HIT:        918  MISS:       1469  HIT %:    38.4583  MISS %:    61.5417   MPKI: 0.02938
L2C PREFETCH  REQUESTED:     698652  ISSUED:     698652  USEFUL:       2377  USELESS:        714
L2C USEFUL LOAD PREFETCHES:       2377 PREFETCH ISSUED TO LOWER LEVEL:     305457  ACCURACY: 0.778178
L2C TIMELY PREFETCHES:       2377 LATE PREFETCHES: 4955 DROPPED PREFETCHES: 0
L2C PREFETCHES SAME FILL-ORIGIN LEVEL: 8063 DIFFERENT FILL-ORIGIN LEVEL: 297394
L2C AVERAGE MISS LATENCY: 54.6678 cycles
L2C RQ	ACCESS:    3795969	FORWARD:          0	MERGED:          0	TO_CACHE:    3795964
L2C WQ	ACCESS:     509623	FORWARD:          5	MERGED:          0	TO_CACHE:     509623
L2C PQ	ACCESS:     698652	FORWARD:          0	MERGED:      37648	TO_CACHE:     661004

L2C Instructions Evicting Data 108281
L2C Translations Evicting Data 1065
L2C Data Evicting Data 99300
L2C Instructions Evicting Instructions 183333
L2C Translations Evicting Instructions 322
L2C Data Evicting Instructions 104201
L2C Instructions Evicting Translations 362
L2C Translations Evicting Translations 81
L2C Data Evicting Translations 1024
L2C Dense regions hint from L2: 0
PSCL5 TOTAL     ACCESS:       2226  HIT:       2226  MISS:          0  HIT %:        100  MISS %:          0   MPKI: 0
PSCL5 LOAD TRANSLATION ACCESS:       2226  HIT:       2226  MISS:          0  HIT %:        100  MISS %:          0   MPKI: 0
PSCL5 PREFETCH  REQUESTED:          0  ISSUED:          0  USEFUL:          0  USELESS:          0
PSCL5 USEFUL LOAD PREFETCHES:          0 PREFETCH ISSUED TO LOWER LEVEL:          0  ACCURACY: -nan
PSCL5 TIMELY PREFETCHES:          0 LATE PREFETCHES: 0 DROPPED PREFETCHES: 0
PSCL5 PREFETCHES SAME FILL-ORIGIN LEVEL: 0 DIFFERENT FILL-ORIGIN LEVEL: 0

PSCL4 TOTAL     ACCESS:       2042  HIT:       2027  MISS:         15  HIT %:    99.2654  MISS %:   0.734574   MPKI: 0.0003
PSCL4 LOAD TRANSLATION ACCESS:       2042  HIT:       2027  MISS:         15  HIT %:    99.2654  MISS %:   0.734574   MPKI: 0.0003
PSCL4 PREFETCH  REQUESTED:          0  ISSUED:          0  USEFUL:          0  USELESS:          0
PSCL4 USEFUL LOAD PREFETCHES:          0 PREFETCH ISSUED TO LOWER LEVEL:          0  ACCURACY: -nan
PSCL4 TIMELY PREFETCHES:          0 LATE PREFETCHES: 0 DROPPED PREFETCHES: 0
PSCL4 PREFETCHES SAME FILL-ORIGIN LEVEL: 0 DIFFERENT FILL-ORIGIN LEVEL: 0

PSCL3 TOTAL     ACCESS:       2104  HIT:       2088  MISS:         16  HIT %:    99.2395  MISS %:   0.760456   MPKI: 0.00032
PSCL3 LOAD TRANSLATION ACCESS:       2104  HIT:       2088  MISS:         16  HIT %:    99.2395  MISS %:   0.760456   MPKI: 0.00032
PSCL3 PREFETCH  REQUESTED:          0  ISSUED:          0  USEFUL:          0  USELESS:          0
PSCL3 USEFUL LOAD PREFETCHES:          0 PREFETCH ISSUED TO LOWER LEVEL:          0  ACCURACY: -nan
PSCL3 TIMELY PREFETCHES:          0 LATE PREFETCHES: 0 DROPPED PREFETCHES: 0
PSCL3 PREFETCHES SAME FILL-ORIGIN LEVEL: 0 DIFFERENT FILL-ORIGIN LEVEL: 0

PSCL2 TOTAL     ACCESS:       2226  HIT:       2087  MISS:        139  HIT %:    93.7556  MISS %:    6.24438   MPKI: 0.00278
PSCL2 LOAD TRANSLATION ACCESS:       2226  HIT:       2087  MISS:        139  HIT %:    93.7556  MISS %:    6.24438   MPKI: 0.00278
PSCL2 PREFETCH  REQUESTED:          0  ISSUED:          0  USEFUL:          0  USELESS:          0
PSCL2 USEFUL LOAD PREFETCHES:          0 PREFETCH ISSUED TO LOWER LEVEL:          0  ACCURACY: -nan
PSCL2 TIMELY PREFETCHES:          0 LATE PREFETCHES: 0 DROPPED PREFETCHES: 0
PSCL2 PREFETCHES SAME FILL-ORIGIN LEVEL: 0 DIFFERENT FILL-ORIGIN LEVEL: 0

LLC TOTAL     ACCESS:     889013  HIT:     854129  MISS:      34884  HIT %:    96.0761  MISS %:     3.9239   MPKI: 0.69768
LLC LOAD      ACCESS:     411711  HIT:     404317  MISS:       7394  HIT %:    98.2041  MISS %:    1.79592   MPKI: 0.14788
LLC RFO       ACCESS:      76784  HIT:      60671  MISS:      16113  HIT %:    79.0152  MISS %:    20.9848   MPKI: 0.32226
LLC PREFETCH  ACCESS:     284865  HIT:     273831  MISS:      11034  HIT %:    96.1266  MISS %:    3.87341   MPKI: 0.22068
LLC WRITEBACK ACCESS:     114184  HIT:     114045  MISS:        139  HIT %:    99.8783  MISS %:   0.121733   MPKI: 0.00278
LLC LOAD TRANSLATION ACCESS:       1469  HIT:       1265  MISS:        204  HIT %:     86.113  MISS %:     13.887   MPKI: 0.00408
LLC PREFETCH  REQUESTED:          0  ISSUED:          0  USEFUL:       3878  USELESS:       3746
LLC USEFUL LOAD PREFETCHES:       3878 PREFETCH ISSUED TO LOWER LEVEL:      12368  ACCURACY: 31.3551
LLC TIMELY PREFETCHES:       3878 LATE PREFETCHES: 1334 DROPPED PREFETCHES: 0
LLC PREFETCHES SAME FILL-ORIGIN LEVEL: 12226 DIFFERENT FILL-ORIGIN LEVEL: 0
LLC AVERAGE MISS LATENCY: 423.062 cycles
LLC RQ	ACCESS:     489968	FORWARD:          0	MERGED:          0	TO_CACHE:     489964
LLC WQ	ACCESS:     114184	FORWARD:          4	MERGED:          0	TO_CACHE:     114184
LLC PQ	ACCESS:     305457	FORWARD:          0	MERGED:      13505	TO_CACHE:     291952

LLC Dense regions hint to LLC: 0

RAW hits: 525776
Loads Generated: 12617505
Loads sent to L1D: 12091727
Stores Generated: 6899109
Stores sent to L1D: 6899106
Major fault: 0 Minor fault: 2264
Allocated PAGES: 2264
 All Calls: 923229
 Critical Calls: 923229
------------------
Depth Distribution
------------------
depth 0: 0
depth 1: 612607
depth 2: 94453
depth 3: 58074
depth 4: 22210
depth 5: 7883
depth 6: 4425
depth 7: 2690
depth 8: 1631
depth 9: 730
depth 10: 180
depth 11: 35
depth 12: 2
depth 13: 0
depth 14: 0
depth 15: 0
depth 16: 0
depth 17: 0
depth 18: 0
depth 19: 0
depth 20: 0
depth 21: 0
depth 22: 0
depth 23: 0
depth 24: 0
depth 25: 0
depth 26: 0
depth 27: 0
depth 28: 0
depth 29: 0
Total: 804920
-----------------------------
-----------------------------
	Captured at Filter
-----------------------------
depth 0: 0
depth 1: 16169
depth 2: 10239
depth 3: 8333
depth 4: 3146
depth 5: 544
depth 6: 154
depth 7: 36
depth 8: 4
depth 9: 2
depth 10: 2
depth 11: 0
depth 12: 0
depth 13: 0
depth 14: 0
depth 15: 0
depth 16: 0
depth 17: 0
depth 18: 0
depth 19: 0
depth 20: 0
depth 21: 0
depth 22: 0
depth 23: 0
depth 24: 0
depth 25: 0
depth 26: 0
depth 27: 0
depth 28: 0
depth 29: 0
-----------------------------
-----------------------------
		Lost at Page
-----------------------------
depth 0: 0
depth 1: 38857
depth 2: 3631
depth 3: 3163
depth 4: 1987
depth 5: 802
depth 6: 495
depth 7: 353
depth 8: 246
depth 9: 135
depth 10: 39
depth 11: 15
depth 12: 2
depth 13: 0
depth 14: 0
depth 15: 0
depth 16: 0
depth 17: 0
depth 18: 0
depth 19: 0
depth 20: 0
depth 21: 0
depth 22: 0
depth 23: 0
depth 24: 0
depth 25: 0
depth 26: 0
depth 27: 0
depth 28: 0
depth 29: 0
-----------------------------
-----------------------------
	Lost due to PQ Size
-----------------------------
7711
-----------------------------
ST read accesses: 646917
ST write accesses: 120469
PT read accesses: 8714005
PT write accesses: 842373
FILTER read accesses: 1997584
FILTER write accesses: 545932
GHR read accesses: 1283927
GHR write accesses: 43282
GHR counter read accesses: 7372304
GHR counter write accesses: 803341
ST tag read accesses: 351902530
ST tag write accesses: 57060385

DRAM Statistics
 CHANNEL 0
 RQ ROW_BUFFER_HIT:      16168  ROW_BUFFER_MISS:      18564
 DBUS_CONGESTED:      28193
 WQ ROW_BUFFER_HIT:        760  ROW_BUFFER_MISS:       6951  FULL:          0

 AVG_CONGESTED_CYCLE: 52
 All warmup complete: 2
Channel 0 Bank busy for read cycles: 0
Channel 0 Bank busy for write cycles: 0
Channel 0
Rank 0
0banks busy for read cycles: 119262905
0banks busy for write cycles: 2485
1banks busy for read cycles: 1334041
1banks busy for write cycles: 335821
2banks busy for read cycles: 387612
2banks busy for write cycles: 93755
3banks busy for read cycles: 178906
3banks busy for write cycles: 58156
4banks busy for read cycles: 111119
4banks busy for write cycles: 47938
5banks busy for read cycles: 68429
5banks busy for write cycles: 43806
6banks busy for read cycles: 58704
6banks busy for write cycles: 36812
7banks busy for read cycles: 95015
7banks busy for write cycles: 34038
8banks busy for read cycles: 613622
8banks busy for write cycles: 102618

CPU 0 Branch Prediction Accuracy: 91.6417% MPKI: 15.2922 Average ROB Occupancy at Mispredict: 17.7278
Branch types
NOT_BRANCH: 40851764 81.7035%
BRANCH_DIRECT_JUMP: 522633 1.04527%
BRANCH_INDIRECT: 204723 0.409446%
BRANCH_CONDITIONAL: 6214815 12.4296%
BRANCH_DIRECT_CALL: 929734 1.85947%
BRANCH_INDIRECT_CALL: 173167 0.346334%
BRANCH_RETURN: 1102880 2.20576%
BRANCH_OTHER: 0 0%

@sumon_overall_L1D         0         0         0         0         0         0
@Sumon_Early_by_class_L1D         0         0         0         0
@Sumon_Late_by_class_L1D         0         0         0         0

@Sumon_Early_by_cycle_L1D         0         0         0         0         0         0         0         0         0         0         0         0
@Sumon_Late_by_cycle_L1D         0         0         0         0         0         0         0         0         0         0         0         0
@Sumon_Early_stream_L1D         0         0         0         0         0         0         0         0         0         0         0         0
@Sumon_Early_CS_L1D         0         0         0         0         0         0         0         0         0         0         0         0
@Sumon_Early_CPLX_L1D         0         0         0         0         0         0         0         0         0         0         0         0
@Sumon_Late_stream_L1D         0         0         0         0         0         0         0         0         0         0         0         0
@Sumon_Late_CS_L1D         0         0         0         0         0         0         0         0         0         0         0         0
@Sumon_Late_CPLX_L1D         0         0         0         0         0         0         0         0         0         0         0         0
@sumon_overall_L2C      2377      4955       714      3108    698652    698652
@Sumon_Early_by_class_L2C         0         0         0         0
@Sumon_Late_by_class_L2C         0         0         0         0

@Sumon_Early_by_cycle_L2C      1853       370        24        20        78        11         0         0        15         0         0         6
@Sumon_Late_by_cycle_L2C      4503        63       119       132        95        43         0         0         0         0         0         0
@Sumon_Early_stream_L2C         0         0         0         0         0         0         0         0         0         0         0         0
@Sumon_Early_CS_L2C         0         0         0         0         0         0         0         0         0         0         0         0
@Sumon_Early_CPLX_L2C         0         0         0         0         0         0         0         0         0         0         0         0
@Sumon_Late_stream_L2C         0         0         0         0         0         0         0         0         0         0         0         0
@Sumon_Late_CS_L2C         0         0         0         0         0         0         0         0         0         0         0         0
@Sumon_Late_CPLX_L2C         0         0         0         0         0         0         0         0         0         0         0         0
DRAM PAGES: 1048576
Allocated PAGES: 2264
