Initialize SIGNATURE TABLE
ST_SET: 1
ST_WAY: 256
ST_TAG_BIT: 16
ST_TAG_MASK: ffff

Initialize PATTERN TABLE
PT_SET: 512
PT_WAY: 4
SIG_DELTA_BIT: 7
C_SIG_BIT: 4
C_DELTA_BIT: 4

Initialize PREFETCH FILTER
FILTER_SET: 1024

*** ChampSim Multicore Out-of-Order Simulator ***

Warmup Instructions: 10000000
Simulation Instructions: 50000000
Number of CPUs: 1
LLC sets: 2048
LLC ways: 16
Off-chip DRAM Size: 4096 MB Channels: 1 Width: 64-bit Data Rate: 1600 MT/s
CPU 0 runs traces/clientserver/client_003.champsimtrace.xz
.xz
CPU 0 Bimodal branch predictor
BTB has LRU replacement policy
ITLB has LRU replacement policy
DTLB has LRU replacement policy
STLB has LRU replacement policy
L1I has LRU replacement policy
L1D has LRU replacement policy
ST_WAYS: 256
PT_SETS: 512
L2C has LRU replacement policy
LLC has LRU replacement policy
Heartbeat CPU 0 instructions: 10000000 cycles: 2804641 heartbeat IPC: 3.56552 cumulative IPC: 3.56552 (Simulation time: 0 hr 12 min 51 sec) 

Warmup complete CPU 0 instructions: 10000004 cycles: 2804642 (Simulation time: 0 hr 12 min 51 sec) 

Heartbeat CPU 0 instructions: 20000000 cycles: 20693157 heartbeat IPC: 0.559018 cumulative IPC: 0.559018 (Simulation time: 0 hr 28 min 1 sec) 
Heartbeat CPU 0 instructions: 30000000 cycles: 35733658 heartbeat IPC: 0.664871 cumulative IPC: 0.607367 (Simulation time: 0 hr 43 min 26 sec) 
Heartbeat CPU 0 instructions: 40000000 cycles: 50305239 heartbeat IPC: 0.686267 cumulative IPC: 0.631571 (Simulation time: 0 hr 59 min 20 sec) 
Heartbeat CPU 0 instructions: 50000003 cycles: 64396699 heartbeat IPC: 0.70965 cumulative IPC: 0.649434 (Simulation time: 1 hr 14 min 53 sec) 
Heartbeat CPU 0 instructions: 60000002 cycles: 78964867 heartbeat IPC: 0.686428 cumulative IPC: 0.656511 (Simulation time: 1 hr 28 min 43 sec) 
Finished CPU 0 instructions: 50000001 cycles: 76160227 cumulative IPC: 0.656511 (Simulation time: 1 hr 28 min 43 sec) 

ChampSim completed all CPUs

Region of Interest Statistics

CPU 0 cumulative IPC: 0.656511 instructions: 50000001 cycles: 76160227
ITLB TOTAL     ACCESS:    8474926  HIT:    8403528  MISS:      71398  HIT %:    99.1575  MISS %:   0.842462   MPKI: 1.42796
ITLB LOAD TRANSLATION ACCESS:    8474926  HIT:    8403528  MISS:      71398  HIT %:    99.1575  MISS %:   0.842462   MPKI: 1.42796
ITLB PREFETCH  REQUESTED:          0  ISSUED:          0  USEFUL:          0  USELESS:          0
ITLB USEFUL LOAD PREFETCHES:          0 PREFETCH ISSUED TO LOWER LEVEL:          0  ACCURACY: -nan
ITLB TIMELY PREFETCHES:          0 LATE PREFETCHES: 0 DROPPED PREFETCHES: 0
ITLB PREFETCHES SAME FILL-ORIGIN LEVEL: 0 DIFFERENT FILL-ORIGIN LEVEL: 0
ITLB AVERAGE MISS LATENCY: 9.9584 cycles
ITLB RQ	ACCESS:   10052369	FORWARD:          0	MERGED:    1557153	TO_CACHE:    8495216

DTLB TOTAL     ACCESS:   10991025  HIT:   10870798  MISS:     120227  HIT %:    98.9061  MISS %:    1.09387   MPKI: 2.40454
DTLB LOAD TRANSLATION ACCESS:   10991025  HIT:   10870798  MISS:     120227  HIT %:    98.9061  MISS %:    1.09387   MPKI: 2.40454
DTLB PREFETCH  REQUESTED:          0  ISSUED:          0  USEFUL:          0  USELESS:          0
DTLB USEFUL LOAD PREFETCHES:          0 PREFETCH ISSUED TO LOWER LEVEL:          0  ACCURACY: -nan
DTLB TIMELY PREFETCHES:          0 LATE PREFETCHES: 0 DROPPED PREFETCHES: 0
DTLB PREFETCHES SAME FILL-ORIGIN LEVEL: 0 DIFFERENT FILL-ORIGIN LEVEL: 0
DTLB AVERAGE MISS LATENCY: 10.3044 cycles
DTLB RQ	ACCESS:   15109401	FORWARD:          0	MERGED:    4110086	TO_CACHE:   10999315

STLB TOTAL     ACCESS:     191625  HIT:     189852  MISS:       1773  HIT %:    99.0748  MISS %:   0.925245   MPKI: 0.03546
STLB LOAD TRANSLATION ACCESS:     191625  HIT:     189852  MISS:       1773  HIT %:    99.0748  MISS %:   0.925245   MPKI: 0.03546
STLB PREFETCH  REQUESTED:          0  ISSUED:          0  USEFUL:          0  USELESS:          0
STLB USEFUL LOAD PREFETCHES:          0 PREFETCH ISSUED TO LOWER LEVEL:          0  ACCURACY: -nan
STLB TIMELY PREFETCHES:          0 LATE PREFETCHES: 0 DROPPED PREFETCHES: 0
STLB PREFETCHES SAME FILL-ORIGIN LEVEL: 0 DIFFERENT FILL-ORIGIN LEVEL: 0
STLB AVERAGE MISS LATENCY: 124.095 cycles
STLB RQ	ACCESS:     191625	FORWARD:          0	MERGED:          0	TO_CACHE:     191625

STLB Hit, L1D data hit: 0
STLB Hit, L2C data hit: 0
STLB Hit, LLC data hit: 0
STLB Hit, LLC data miss: 0
STLB STLB hints to L2: 0
L1D TOTAL     ACCESS:   14750496  HIT:   14461950  MISS:     288546  HIT %:    98.0438  MISS %:    1.95618   MPKI: 5.77092
L1D LOAD      ACCESS:    7420543  HIT:    7289075  MISS:     131468  HIT %:    98.2283  MISS %:    1.77168   MPKI: 2.62936
L1D RFO       ACCESS:    7329953  HIT:    7172875  MISS:     157078  HIT %:     97.857  MISS %:    2.14296   MPKI: 3.14156
L1D PREFETCH  REQUESTED:          0  ISSUED:          0  USEFUL:          0  USELESS:          0
L1D USEFUL LOAD PREFETCHES:          0 PREFETCH ISSUED TO LOWER LEVEL:          0  ACCURACY: -nan
L1D TIMELY PREFETCHES:          0 LATE PREFETCHES: 0 DROPPED PREFETCHES: 0
L1D PREFETCHES SAME FILL-ORIGIN LEVEL: 0 DIFFERENT FILL-ORIGIN LEVEL: 0
L1D AVERAGE MISS LATENCY: 73.0484 cycles
L1D RQ	ACCESS:   12004773	FORWARD:          0	MERGED:    4399573	TO_CACHE:    7436695
L1D WQ	ACCESS:    7811254	FORWARD:     168505	MERGED:     138548	TO_CACHE:    7672706

L1D UNIQUE REGIONS ACCESSED: 0
L1D REGIONS CONFLICTS: 0
L1D Cross Page Prefetch Requests: 0
L1D Same Page Prefetch Requests: 0
L1D ROI Sum of L1D PQ occupancy: 0
L1D PREFETCHES PUSHED FROM L2C: 0
L1I TOTAL     ACCESS:    9925134  HIT:    9390019  MISS:     535115  HIT %:    94.6085  MISS %:    5.39151   MPKI: 10.7023
L1I LOAD      ACCESS:    9925134  HIT:    9390019  MISS:     535115  HIT %:    94.6085  MISS %:    5.39151   MPKI: 10.7023
L1I PREFETCH  REQUESTED:          0  ISSUED:          0  USEFUL:          0  USELESS:          0
L1I USEFUL LOAD PREFETCHES:          0 PREFETCH ISSUED TO LOWER LEVEL:          0  ACCURACY: -nan
L1I TIMELY PREFETCHES:          0 LATE PREFETCHES: 0 DROPPED PREFETCHES: 0
L1I PREFETCHES SAME FILL-ORIGIN LEVEL: 0 DIFFERENT FILL-ORIGIN LEVEL: 0
L1I AVERAGE MISS LATENCY: 22.6672 cycles
L1I RQ	ACCESS:   14768419	FORWARD:          0	MERGED:    4716050	TO_CACHE:   10052369

BTB TOTAL     ACCESS:    6766808  HIT:    6169221  MISS:     597587  HIT %:    91.1688  MISS %:    8.83115   MPKI: 11.9517
BTB BRANCH_DIRECT_JUMP	ACCESS:     494781  HIT:     477302  MISS:      17479
BTB BRANCH_INDIRECT	ACCESS:     114379  HIT:      50385  MISS:      63994
BTB BRANCH_CONDITIONAL	ACCESS:    3862756  HIT:    3810705  MISS:      52051
BTB BRANCH_DIRECT_CALL	ACCESS:     995377  HIT:     956807  MISS:      38570
BTB BRANCH_INDIRECT_CALL	ACCESS:     151743  HIT:     115162  MISS:      36581
BTB BRANCH_RETURN	ACCESS:    1147772  HIT:     758860  MISS:     388912
BTB BRANCH_OTHER ACCESS:          0  HIT:          0  MISS:          0

L2C TOTAL     ACCESS:    1034836  HIT:     805789  MISS:     229047  HIT %:    77.8663  MISS %:    22.1337   MPKI: 4.58094
L2C LOAD      ACCESS:     666582  HIT:     558153  MISS:     108429  HIT %:    83.7336  MISS %:    16.2664   MPKI: 2.16858
L2C DATA LOAD MPKI: 0.87622
L2C INSTRUCTION LOAD MPKI: 1.29236
L2C RFO       ACCESS:     157074  HIT:      40166  MISS:     116908  HIT %:    25.5714  MISS %:    74.4286   MPKI: 2.33816
L2C PREFETCH  ACCESS:      24179  HIT:      22734  MISS:       1445  HIT %:    94.0237  MISS %:    5.97626   MPKI: 0.0289
L2C DATA PREFETCH MPKI: 0.0289
L2C INSTRUCTION PREFETCH MPKI: 0
L2C WRITEBACK ACCESS:     185160  HIT:     183829  MISS:       1331  HIT %:    99.2812  MISS %:   0.718838   MPKI: 0.02662
L2C LOAD TRANSLATION ACCESS:       1841  HIT:        907  MISS:        934  HIT %:    49.2667  MISS %:    50.7333   MPKI: 0.01868
L2C PREFETCH  REQUESTED:      52594  ISSUED:      52594  USEFUL:       1411  USELESS:         33
L2C USEFUL LOAD PREFETCHES:       1411 PREFETCH ISSUED TO LOWER LEVEL:      28777  ACCURACY: 4.90322
L2C TIMELY PREFETCHES:       1411 LATE PREFETCHES: 37 DROPPED PREFETCHES: 0
L2C PREFETCHES SAME FILL-ORIGIN LEVEL: 1482 DIFFERENT FILL-ORIGIN LEVEL: 27295
L2C AVERAGE MISS LATENCY: 93.8667 cycles
L2C RQ	ACCESS:     825502	FORWARD:          0	MERGED:          0	TO_CACHE:     825497
L2C WQ	ACCESS:     185160	FORWARD:          5	MERGED:          0	TO_CACHE:     185160
L2C PQ	ACCESS:      52594	FORWARD:          0	MERGED:        598	TO_CACHE:      51996

L2C Instructions Evicting Data 41267
L2C Translations Evicting Data 633
L2C Data Evicting Data 119526
L2C Instructions Evicting Instructions 23045
L2C Translations Evicting Instructions 297
L2C Data Evicting Instructions 41988
L2C Instructions Evicting Translations 306
L2C Translations Evicting Translations 4
L2C Data Evicting Translations 650
L2C Dense regions hint from L2: 0
PSCL5 TOTAL     ACCESS:       1773  HIT:       1773  MISS:          0  HIT %:        100  MISS %:          0   MPKI: 0
PSCL5 LOAD TRANSLATION ACCESS:       1773  HIT:       1773  MISS:          0  HIT %:        100  MISS %:          0   MPKI: 0
PSCL5 PREFETCH  REQUESTED:          0  ISSUED:          0  USEFUL:          0  USELESS:          0
PSCL5 USEFUL LOAD PREFETCHES:          0 PREFETCH ISSUED TO LOWER LEVEL:          0  ACCURACY: -nan
PSCL5 TIMELY PREFETCHES:          0 LATE PREFETCHES: 0 DROPPED PREFETCHES: 0
PSCL5 PREFETCHES SAME FILL-ORIGIN LEVEL: 0 DIFFERENT FILL-ORIGIN LEVEL: 0

PSCL4 TOTAL     ACCESS:       1773  HIT:       1773  MISS:          0  HIT %:        100  MISS %:          0   MPKI: 0
PSCL4 LOAD TRANSLATION ACCESS:       1773  HIT:       1773  MISS:          0  HIT %:        100  MISS %:          0   MPKI: 0
PSCL4 PREFETCH  REQUESTED:          0  ISSUED:          0  USEFUL:          0  USELESS:          0
PSCL4 USEFUL LOAD PREFETCHES:          0 PREFETCH ISSUED TO LOWER LEVEL:          0  ACCURACY: -nan
PSCL4 TIMELY PREFETCHES:          0 LATE PREFETCHES: 0 DROPPED PREFETCHES: 0
PSCL4 PREFETCHES SAME FILL-ORIGIN LEVEL: 0 DIFFERENT FILL-ORIGIN LEVEL: 0

PSCL3 TOTAL     ACCESS:       1771  HIT:       1771  MISS:          0  HIT %:        100  MISS %:          0   MPKI: 0
PSCL3 LOAD TRANSLATION ACCESS:       1771  HIT:       1771  MISS:          0  HIT %:        100  MISS %:          0   MPKI: 0
PSCL3 PREFETCH  REQUESTED:          0  ISSUED:          0  USEFUL:          0  USELESS:          0
PSCL3 USEFUL LOAD PREFETCHES:          0 PREFETCH ISSUED TO LOWER LEVEL:          0  ACCURACY: -nan
PSCL3 TIMELY PREFETCHES:          0 LATE PREFETCHES: 0 DROPPED PREFETCHES: 0
PSCL3 PREFETCHES SAME FILL-ORIGIN LEVEL: 0 DIFFERENT FILL-ORIGIN LEVEL: 0

PSCL2 TOTAL     ACCESS:       1773  HIT:       1702  MISS:         71  HIT %:    95.9955  MISS %:    4.00451   MPKI: 0.00142
PSCL2 LOAD TRANSLATION ACCESS:       1773  HIT:       1702  MISS:         71  HIT %:    95.9955  MISS %:    4.00451   MPKI: 0.00142
PSCL2 PREFETCH  REQUESTED:          0  ISSUED:          0  USEFUL:          0  USELESS:          0
PSCL2 USEFUL LOAD PREFETCHES:          0 PREFETCH ISSUED TO LOWER LEVEL:          0  ACCURACY: -nan
PSCL2 TIMELY PREFETCHES:          0 LATE PREFETCHES: 0 DROPPED PREFETCHES: 0
PSCL2 PREFETCHES SAME FILL-ORIGIN LEVEL: 0 DIFFERENT FILL-ORIGIN LEVEL: 0

LLC TOTAL     ACCESS:     381621  HIT:     296047  MISS:      85574  HIT %:    77.5762  MISS %:    22.4238   MPKI: 1.71148
LLC LOAD      ACCESS:     108392  HIT:      85370  MISS:      23022  HIT %:    78.7604  MISS %:    21.2396   MPKI: 0.46044
LLC RFO       ACCESS:     116908  HIT:      60581  MISS:      56327  HIT %:    51.8194  MISS %:    48.1806   MPKI: 1.12654
LLC PREFETCH  ACCESS:      25383  HIT:      19811  MISS:       5572  HIT %:    78.0483  MISS %:    21.9517   MPKI: 0.11144
LLC WRITEBACK ACCESS:     130004  HIT:     129787  MISS:        217  HIT %:    99.8331  MISS %:   0.166918   MPKI: 0.00434
LLC LOAD TRANSLATION ACCESS:        934  HIT:        498  MISS:        436  HIT %:    53.3191  MISS %:    46.6809   MPKI: 0.00872
LLC PREFETCH  REQUESTED:          0  ISSUED:          0  USEFUL:       2985  USELESS:       2294
LLC USEFUL LOAD PREFETCHES:       2985 PREFETCH ISSUED TO LOWER LEVEL:       5787  ACCURACY: 51.5811
LLC TIMELY PREFETCHES:       2985 LATE PREFETCHES: 215 DROPPED PREFETCHES: 0
LLC PREFETCHES SAME FILL-ORIGIN LEVEL: 5751 DIFFERENT FILL-ORIGIN LEVEL: 0
LLC AVERAGE MISS LATENCY: 182.458 cycles
LLC RQ	ACCESS:     226234	FORWARD:          0	MERGED:          0	TO_CACHE:     226234
LLC WQ	ACCESS:     130004	FORWARD:          0	MERGED:          0	TO_CACHE:     130004
LLC PQ	ACCESS:      28777	FORWARD:          0	MERGED:         61	TO_CACHE:      28716

LLC Dense regions hint to LLC: 0

RAW hits: 1570083
Loads Generated: 13574857
Loads sent to L1D: 12004773
Stores Generated: 7811247
Stores sent to L1D: 7811254
Major fault: 0 Minor fault: 2338
Allocated PAGES: 2338
 All Calls: 161484
 Critical Calls: 161484
------------------
Depth Distribution
------------------
depth 0: 0
depth 1: 35030
depth 2: 11480
depth 3: 8105
depth 4: 5617
depth 5: 3683
depth 6: 1447
depth 7: 569
depth 8: 233
depth 9: 0
depth 10: 0
depth 11: 0
depth 12: 0
depth 13: 0
depth 14: 0
depth 15: 0
depth 16: 0
depth 17: 0
depth 18: 0
depth 19: 0
depth 20: 0
depth 21: 0
depth 22: 0
depth 23: 0
depth 24: 0
depth 25: 0
depth 26: 0
depth 27: 0
depth 28: 0
depth 29: 0
Total: 66164
-----------------------------
-----------------------------
	Captured at Filter
-----------------------------
depth 0: 0
depth 1: 234
depth 2: 107
depth 3: 80
depth 4: 58
depth 5: 43
depth 6: 22
depth 7: 4
depth 8: 0
depth 9: 0
depth 10: 0
depth 11: 0
depth 12: 0
depth 13: 0
depth 14: 0
depth 15: 0
depth 16: 0
depth 17: 0
depth 18: 0
depth 19: 0
depth 20: 0
depth 21: 0
depth 22: 0
depth 23: 0
depth 24: 0
depth 25: 0
depth 26: 0
depth 27: 0
depth 28: 0
depth 29: 0
-----------------------------
-----------------------------
		Lost at Page
-----------------------------
depth 0: 0
depth 1: 870
depth 2: 325
depth 3: 347
depth 4: 334
depth 5: 304
depth 6: 156
depth 7: 62
depth 8: 28
depth 9: 0
depth 10: 0
depth 11: 0
depth 12: 0
depth 13: 0
depth 14: 0
depth 15: 0
depth 16: 0
depth 17: 0
depth 18: 0
depth 19: 0
depth 20: 0
depth 21: 0
depth 22: 0
depth 23: 0
depth 24: 0
depth 25: 0
depth 26: 0
depth 27: 0
depth 28: 0
depth 29: 0
-----------------------------
-----------------------------
	Lost due to PQ Size
-----------------------------
0
-----------------------------
ST read accesses: 126338
ST write accesses: 5129
PT read accesses: 1500841
PT write accesses: 172628
FILTER read accesses: 413534
FILTER write accesses: 234442
GHR read accesses: 49548
GHR write accesses: 1838
GHR counter read accesses: 1006058
GHR counter write accesses: 135743
ST tag read accesses: 53429369
ST tag write accesses: 5449170

DRAM Statistics
 CHANNEL 0
 RQ ROW_BUFFER_HIT:      31849  ROW_BUFFER_MISS:      53508
 DBUS_CONGESTED:      59778
 WQ ROW_BUFFER_HIT:      12386  ROW_BUFFER_MISS:      45840  FULL:          0

 AVG_CONGESTED_CYCLE: 14
 All warmup complete: 2
Channel 0 Bank busy for read cycles: 0
Channel 0 Bank busy for write cycles: 0
Channel 0
Rank 0
0banks busy for read cycles: 64714503
0banks busy for write cycles: 20504
1banks busy for read cycles: 4923650
1banks busy for write cycles: 2677148
2banks busy for read cycles: 973498
2banks busy for write cycles: 884233
3banks busy for read cycles: 171881
3banks busy for write cycles: 363577
4banks busy for read cycles: 62310
4banks busy for write cycles: 199010
5banks busy for read cycles: 47188
5banks busy for write cycles: 123933
6banks busy for read cycles: 41175
6banks busy for write cycles: 100357
7banks busy for read cycles: 65333
7banks busy for write cycles: 100901
8banks busy for read cycles: 388657
8banks busy for write cycles: 302370

CPU 0 Branch Prediction Accuracy: 95.2436% MPKI: 8.774 Average ROB Occupancy at Mispredict: 38.307
Branch types
NOT_BRANCH: 40776380 81.5528%
BRANCH_DIRECT_JUMP: 494781 0.989562%
BRANCH_INDIRECT: 114379 0.228758%
BRANCH_CONDITIONAL: 6319235 12.6385%
BRANCH_DIRECT_CALL: 995377 1.99075%
BRANCH_INDIRECT_CALL: 151743 0.303486%
BRANCH_RETURN: 1147772 2.29554%
BRANCH_OTHER: 0 0%

@sumon_overall_L1D         0         0         0         0         0         0
@Sumon_Early_by_class_L1D         0         0         0         0
@Sumon_Late_by_class_L1D         0         0         0         0

@Sumon_Early_by_cycle_L1D         0         0         0         0         0         0         0         0         0         0         0         0
@Sumon_Late_by_cycle_L1D         0         0         0         0         0         0         0         0         0         0         0         0
@Sumon_Early_stream_L1D         0         0         0         0         0         0         0         0         0         0         0         0
@Sumon_Early_CS_L1D         0         0         0         0         0         0         0         0         0         0         0         0
@Sumon_Early_CPLX_L1D         0         0         0         0         0         0         0         0         0         0         0         0
@Sumon_Late_stream_L1D         0         0         0         0         0         0         0         0         0         0         0         0
@Sumon_Late_CS_L1D         0         0         0         0         0         0         0         0         0         0         0         0
@Sumon_Late_CPLX_L1D         0         0         0         0         0         0         0         0         0         0         0         0
@sumon_overall_L2C      1411        37        33      1445     52594     52594
@Sumon_Early_by_class_L2C         0         0         0         0
@Sumon_Late_by_class_L2C         0         0         0         0

@Sumon_Early_by_cycle_L2C       696        49        13        27        33       125        93       100        41        35        58       141
@Sumon_Late_by_cycle_L2C        26        11         0         0         0         0         0         0         0         0         0         0
@Sumon_Early_stream_L2C         0         0         0         0         0         0         0         0         0         0         0         0
@Sumon_Early_CS_L2C         0         0         0         0         0         0         0         0         0         0         0         0
@Sumon_Early_CPLX_L2C         0         0         0         0         0         0         0         0         0         0         0         0
@Sumon_Late_stream_L2C         0         0         0         0         0         0         0         0         0         0         0         0
@Sumon_Late_CS_L2C         0         0         0         0         0         0         0         0         0         0         0         0
@Sumon_Late_CPLX_L2C         0         0         0         0         0         0         0         0         0         0         0         0
DRAM PAGES: 1048576
Allocated PAGES: 2338
