Initialize SIGNATURE TABLE
ST_SET: 1
ST_WAY: 256
ST_TAG_BIT: 16
ST_TAG_MASK: ffff

Initialize PATTERN TABLE
PT_SET: 512
PT_WAY: 4
SIG_DELTA_BIT: 7
C_SIG_BIT: 4
C_DELTA_BIT: 4

Initialize PREFETCH FILTER
FILTER_SET: 1024

*** ChampSim Multicore Out-of-Order Simulator ***

Warmup Instructions: 10000000
Simulation Instructions: 50000000
Number of CPUs: 1
LLC sets: 2048
LLC ways: 16
Off-chip DRAM Size: 4096 MB Channels: 1 Width: 64-bit Data Rate: 1600 MT/s
CPU 0 runs traces/clientserver/client_006.champsimtrace.xz
.xz
CPU 0 Bimodal branch predictor
BTB has LRU replacement policy
ITLB has LRU replacement policy
DTLB has LRU replacement policy
STLB has LRU replacement policy
L1I has LRU replacement policy
L1D has LRU replacement policy
ST_WAYS: 256
PT_SETS: 512
L2C has LRU replacement policy
LLC has LRU replacement policy
Heartbeat CPU 0 instructions: 10000001 cycles: 3366323 heartbeat IPC: 2.9706 cumulative IPC: 2.9706 (Simulation time: 0 hr 14 min 33 sec) 

Warmup complete CPU 0 instructions: 10000001 cycles: 3366323 (Simulation time: 0 hr 14 min 33 sec) 

Heartbeat CPU 0 instructions: 20000000 cycles: 19837102 heartbeat IPC: 0.607136 cumulative IPC: 0.607136 (Simulation time: 0 hr 32 min 26 sec) 
Heartbeat CPU 0 instructions: 30000003 cycles: 36806559 heartbeat IPC: 0.589294 cumulative IPC: 0.598082 (Simulation time: 0 hr 47 min 24 sec) 
Heartbeat CPU 0 instructions: 40000000 cycles: 53000624 heartbeat IPC: 0.61751 cumulative IPC: 0.604421 (Simulation time: 1 hr 3 min 5 sec) 
Heartbeat CPU 0 instructions: 50000003 cycles: 72077069 heartbeat IPC: 0.524207 cumulative IPC: 0.582151 (Simulation time: 1 hr 21 min 35 sec) 
Heartbeat CPU 0 instructions: 60000002 cycles: 88681159 heartbeat IPC: 0.602261 cumulative IPC: 0.586065 (Simulation time: 1 hr 31 min 14 sec) 
Finished CPU 0 instructions: 50000001 cycles: 85314836 cumulative IPC: 0.586065 (Simulation time: 1 hr 31 min 14 sec) 

ChampSim completed all CPUs

Region of Interest Statistics

CPU 0 cumulative IPC: 0.586065 instructions: 50000001 cycles: 85314836
ITLB TOTAL     ACCESS:    7924627  HIT:    7784886  MISS:     139741  HIT %:    98.2366  MISS %:    1.76338   MPKI: 2.79482
ITLB LOAD TRANSLATION ACCESS:    7924627  HIT:    7784886  MISS:     139741  HIT %:    98.2366  MISS %:    1.76338   MPKI: 2.79482
ITLB PREFETCH  REQUESTED:          0  ISSUED:          0  USEFUL:          0  USELESS:          0
ITLB USEFUL LOAD PREFETCHES:          0 PREFETCH ISSUED TO LOWER LEVEL:          0  ACCURACY: -nan
ITLB TIMELY PREFETCHES:          0 LATE PREFETCHES: 0 DROPPED PREFETCHES: 0
ITLB PREFETCHES SAME FILL-ORIGIN LEVEL: 0 DIFFERENT FILL-ORIGIN LEVEL: 0
ITLB AVERAGE MISS LATENCY: 11.8297 cycles
ITLB RQ	ACCESS:    9533038	FORWARD:          0	MERGED:    1592046	TO_CACHE:    7940992

DTLB TOTAL     ACCESS:   11134191  HIT:   10781143  MISS:     353048  HIT %:    96.8292  MISS %:    3.17085   MPKI: 7.06096
DTLB LOAD TRANSLATION ACCESS:   11134191  HIT:   10781143  MISS:     353048  HIT %:    96.8292  MISS %:    3.17085   MPKI: 7.06096
DTLB PREFETCH  REQUESTED:          0  ISSUED:          0  USEFUL:          0  USELESS:          0
DTLB USEFUL LOAD PREFETCHES:          0 PREFETCH ISSUED TO LOWER LEVEL:          0  ACCURACY: -nan
DTLB TIMELY PREFETCHES:          0 LATE PREFETCHES: 0 DROPPED PREFETCHES: 0
DTLB PREFETCHES SAME FILL-ORIGIN LEVEL: 0 DIFFERENT FILL-ORIGIN LEVEL: 0
DTLB AVERAGE MISS LATENCY: 18.1706 cycles
DTLB RQ	ACCESS:   13187898	FORWARD:          0	MERGED:    2038634	TO_CACHE:   11149264

STLB TOTAL     ACCESS:     492788  HIT:     468160  MISS:      24628  HIT %:    95.0023  MISS %:    4.99769   MPKI: 0.49256
STLB LOAD TRANSLATION ACCESS:     492788  HIT:     468160  MISS:      24628  HIT %:    95.0023  MISS %:    4.99769   MPKI: 0.49256
STLB PREFETCH  REQUESTED:          0  ISSUED:          0  USEFUL:          0  USELESS:          0
STLB USEFUL LOAD PREFETCHES:          0 PREFETCH ISSUED TO LOWER LEVEL:          0  ACCURACY: -nan
STLB TIMELY PREFETCHES:          0 LATE PREFETCHES: 0 DROPPED PREFETCHES: 0
STLB PREFETCHES SAME FILL-ORIGIN LEVEL: 0 DIFFERENT FILL-ORIGIN LEVEL: 0
STLB AVERAGE MISS LATENCY: 146.368 cycles
STLB RQ	ACCESS:     492788	FORWARD:          0	MERGED:          0	TO_CACHE:     492788

STLB Hit, L1D data hit: 0
STLB Hit, L2C data hit: 0
STLB Hit, LLC data hit: 0
STLB Hit, LLC data miss: 0
STLB STLB hints to L2: 0
L1D TOTAL     ACCESS:   12985399  HIT:   12247625  MISS:     737774  HIT %:    94.3184  MISS %:    5.68157   MPKI: 14.7555
L1D LOAD      ACCESS:    8703577  HIT:    8040047  MISS:     663530  HIT %:    92.3764  MISS %:    7.62365   MPKI: 13.2706
L1D RFO       ACCESS:    4281822  HIT:    4207578  MISS:      74244  HIT %:    98.2661  MISS %:    1.73393   MPKI: 1.48488
L1D PREFETCH  REQUESTED:          0  ISSUED:          0  USEFUL:          0  USELESS:          0
L1D USEFUL LOAD PREFETCHES:          0 PREFETCH ISSUED TO LOWER LEVEL:          0  ACCURACY: -nan
L1D TIMELY PREFETCHES:          0 LATE PREFETCHES: 0 DROPPED PREFETCHES: 0
L1D PREFETCHES SAME FILL-ORIGIN LEVEL: 0 DIFFERENT FILL-ORIGIN LEVEL: 0
L1D AVERAGE MISS LATENCY: 65.0467 cycles
L1D RQ	ACCESS:   12173451	FORWARD:          0	MERGED:    3350261	TO_CACHE:    8756049
L1D WQ	ACCESS:    4484002	FORWARD:      67141	MERGED:      52153	TO_CACHE:    4431849

L1D UNIQUE REGIONS ACCESSED: 0
L1D REGIONS CONFLICTS: 0
L1D Cross Page Prefetch Requests: 0
L1D Same Page Prefetch Requests: 0
L1D ROI Sum of L1D PQ occupancy: 0
L1D PREFETCHES PUSHED FROM L2C: 0
L1I TOTAL     ACCESS:    9270548  HIT:    8538246  MISS:     732302  HIT %:    92.1008  MISS %:    7.89923   MPKI: 14.646
L1I LOAD      ACCESS:    9270548  HIT:    8538246  MISS:     732302  HIT %:    92.1008  MISS %:    7.89923   MPKI: 14.646
L1I PREFETCH  REQUESTED:          0  ISSUED:          0  USEFUL:          0  USELESS:          0
L1I USEFUL LOAD PREFETCHES:          0 PREFETCH ISSUED TO LOWER LEVEL:          0  ACCURACY: -nan
L1I TIMELY PREFETCHES:          0 LATE PREFETCHES: 0 DROPPED PREFETCHES: 0
L1I PREFETCHES SAME FILL-ORIGIN LEVEL: 0 DIFFERENT FILL-ORIGIN LEVEL: 0
L1I AVERAGE MISS LATENCY: 21.0556 cycles
L1I RQ	ACCESS:   13574783	FORWARD:          0	MERGED:    4041745	TO_CACHE:    9533038

BTB TOTAL     ACCESS:    5171861  HIT:    4886345  MISS:     285516  HIT %:    94.4794  MISS %:    5.52057   MPKI: 5.71032
BTB BRANCH_DIRECT_JUMP	ACCESS:     468887  HIT:     465580  MISS:       3307
BTB BRANCH_INDIRECT	ACCESS:      51898  HIT:      32201  MISS:      19697
BTB BRANCH_CONDITIONAL	ACCESS:    3126383  HIT:    3119589  MISS:       6794
BTB BRANCH_DIRECT_CALL	ACCESS:     511782  HIT:     508568  MISS:       3214
BTB BRANCH_INDIRECT_CALL	ACCESS:     249632  HIT:     190154  MISS:      59478
BTB BRANCH_RETURN	ACCESS:     763279  HIT:     570253  MISS:     193026
BTB BRANCH_OTHER ACCESS:          0  HIT:          0  MISS:          0

L2C TOTAL     ACCESS:    2083627  HIT:    1628124  MISS:     455503  HIT %:    78.1389  MISS %:    21.8611   MPKI: 9.11006
L2C LOAD      ACCESS:    1395826  HIT:    1028447  MISS:     367379  HIT %:    73.6802  MISS %:    26.3198   MPKI: 7.34758
L2C DATA LOAD MPKI: 6.42342
L2C INSTRUCTION LOAD MPKI: 0.92416
L2C RFO       ACCESS:      74243  HIT:      18251  MISS:      55992  HIT %:    24.5828  MISS %:    75.4172   MPKI: 1.11984
L2C PREFETCH  ACCESS:     362052  HIT:     343744  MISS:      18308  HIT %:    94.9433  MISS %:    5.05673   MPKI: 0.36616
L2C DATA PREFETCH MPKI: 0.36616
L2C INSTRUCTION PREFETCH MPKI: 0
L2C WRITEBACK ACCESS:     224160  HIT:     223371  MISS:        789  HIT %:     99.648  MISS %:   0.351981   MPKI: 0.01578
L2C LOAD TRANSLATION ACCESS:      27346  HIT:      14311  MISS:      13035  HIT %:    52.3331  MISS %:    47.6669   MPKI: 0.2607
L2C PREFETCH  REQUESTED:    2130259  ISSUED:    2121378  USEFUL:      17430  USELESS:        945
L2C USEFUL LOAD PREFETCHES:      17430 PREFETCH ISSUED TO LOWER LEVEL:    1090136  ACCURACY: 1.59888
L2C TIMELY PREFETCHES:      17430 LATE PREFETCHES: 49294 DROPPED PREFETCHES: 0
L2C PREFETCHES SAME FILL-ORIGIN LEVEL: 67602 DIFFERENT FILL-ORIGIN LEVEL: 1022534
L2C AVERAGE MISS LATENCY: 98.6962 cycles
L2C RQ	ACCESS:    1497422	FORWARD:          0	MERGED:          0	TO_CACHE:    1497415
L2C WQ	ACCESS:     224160	FORWARD:          7	MERGED:          0	TO_CACHE:     224160
L2C PQ	ACCESS:    2121378	FORWARD:          0	MERGED:     603169	TO_CACHE:    1518209

L2C Instructions Evicting Data 42509
L2C Translations Evicting Data 11837
L2C Data Evicting Data 341162
L2C Instructions Evicting Instructions 2762
L2C Translations Evicting Instructions 859
L2C Data Evicting Instructions 42651
L2C Instructions Evicting Translations 937
L2C Translations Evicting Translations 339
L2C Data Evicting Translations 11658
L2C Dense regions hint from L2: 0
PSCL5 TOTAL     ACCESS:      24628  HIT:      24628  MISS:          0  HIT %:        100  MISS %:          0   MPKI: 0
PSCL5 LOAD TRANSLATION ACCESS:      24628  HIT:      24628  MISS:          0  HIT %:        100  MISS %:          0   MPKI: 0
PSCL5 PREFETCH  REQUESTED:          0  ISSUED:          0  USEFUL:          0  USELESS:          0
PSCL5 USEFUL LOAD PREFETCHES:          0 PREFETCH ISSUED TO LOWER LEVEL:          0  ACCURACY: -nan
PSCL5 TIMELY PREFETCHES:          0 LATE PREFETCHES: 0 DROPPED PREFETCHES: 0
PSCL5 PREFETCHES SAME FILL-ORIGIN LEVEL: 0 DIFFERENT FILL-ORIGIN LEVEL: 0

PSCL4 TOTAL     ACCESS:      22440  HIT:      22415  MISS:         25  HIT %:    99.8886  MISS %:   0.111408   MPKI: 0.0005
PSCL4 LOAD TRANSLATION ACCESS:      22440  HIT:      22415  MISS:         25  HIT %:    99.8886  MISS %:   0.111408   MPKI: 0.0005
PSCL4 PREFETCH  REQUESTED:          0  ISSUED:          0  USEFUL:          0  USELESS:          0
PSCL4 USEFUL LOAD PREFETCHES:          0 PREFETCH ISSUED TO LOWER LEVEL:          0  ACCURACY: -nan
PSCL4 TIMELY PREFETCHES:          0 LATE PREFETCHES: 0 DROPPED PREFETCHES: 0
PSCL4 PREFETCHES SAME FILL-ORIGIN LEVEL: 0 DIFFERENT FILL-ORIGIN LEVEL: 0

PSCL3 TOTAL     ACCESS:      24530  HIT:      24453  MISS:         77  HIT %:    99.6861  MISS %:   0.313901   MPKI: 0.00154
PSCL3 LOAD TRANSLATION ACCESS:      24530  HIT:      24453  MISS:         77  HIT %:    99.6861  MISS %:   0.313901   MPKI: 0.00154
PSCL3 PREFETCH  REQUESTED:          0  ISSUED:          0  USEFUL:          0  USELESS:          0
PSCL3 USEFUL LOAD PREFETCHES:          0 PREFETCH ISSUED TO LOWER LEVEL:          0  ACCURACY: -nan
PSCL3 TIMELY PREFETCHES:          0 LATE PREFETCHES: 0 DROPPED PREFETCHES: 0
PSCL3 PREFETCHES SAME FILL-ORIGIN LEVEL: 0 DIFFERENT FILL-ORIGIN LEVEL: 0

PSCL2 TOTAL     ACCESS:      24628  HIT:      21882  MISS:       2746  HIT %:    88.8501  MISS %:    11.1499   MPKI: 0.05492
PSCL2 LOAD TRANSLATION ACCESS:      24628  HIT:      21882  MISS:       2746  HIT %:    88.8501  MISS %:    11.1499   MPKI: 0.05492
PSCL2 PREFETCH  REQUESTED:          0  ISSUED:          0  USEFUL:          0  USELESS:          0
PSCL2 USEFUL LOAD PREFETCHES:          0 PREFETCH ISSUED TO LOWER LEVEL:          0  ACCURACY: -nan
PSCL2 TIMELY PREFETCHES:          0 LATE PREFETCHES: 0 DROPPED PREFETCHES: 0
PSCL2 PREFETCHES SAME FILL-ORIGIN LEVEL: 0 DIFFERENT FILL-ORIGIN LEVEL: 0

LLC TOTAL     ACCESS:    1369395  HIT:    1085169  MISS:     284226  HIT %:    79.2444  MISS %:    20.7556   MPKI: 5.68452
LLC LOAD      ACCESS:     318085  HIT:     222142  MISS:      95943  HIT %:    69.8373  MISS %:    30.1627   MPKI: 1.91886
LLC RFO       ACCESS:      55991  HIT:      12119  MISS:      43872  HIT %:    21.6446  MISS %:    78.3554   MPKI: 0.87744
LLC PREFETCH  ACCESS:     840139  HIT:     704160  MISS:     135979  HIT %:    83.8147  MISS %:    16.1853   MPKI: 2.71958
LLC WRITEBACK ACCESS:     142145  HIT:     141429  MISS:        716  HIT %:    99.4963  MISS %:   0.503711   MPKI: 0.01432
LLC LOAD TRANSLATION ACCESS:      13035  HIT:       5319  MISS:       7716  HIT %:    40.8055  MISS %:    59.1945   MPKI: 0.15432
LLC PREFETCH  REQUESTED:          0  ISSUED:          0  USEFUL:      77964  USELESS:      57916
LLC USEFUL LOAD PREFETCHES:      77964 PREFETCH ISSUED TO LOWER LEVEL:     148094  ACCURACY: 52.6449
LLC TIMELY PREFETCHES:      77964 LATE PREFETCHES: 12115 DROPPED PREFETCHES: 0
LLC PREFETCHES SAME FILL-ORIGIN LEVEL: 146419 DIFFERENT FILL-ORIGIN LEVEL: 0
LLC AVERAGE MISS LATENCY: 189.272 cycles
LLC RQ	ACCESS:     387112	FORWARD:          0	MERGED:          0	TO_CACHE:     387111
LLC WQ	ACCESS:     142145	FORWARD:          1	MERGED:          0	TO_CACHE:     142145
LLC PQ	ACCESS:    1090136	FORWARD:          0	MERGED:     206504	TO_CACHE:     883632

LLC Dense regions hint to LLC: 0

RAW hits: 778511
Loads Generated: 12951965
Loads sent to L1D: 12173451
Stores Generated: 4483996
Stores sent to L1D: 4484002
Major fault: 0 Minor fault: 9084
Allocated PAGES: 9084
 All Calls: 835474
 Critical Calls: 835474
------------------
Depth Distribution
------------------
depth 0: 0
depth 1: 712254
depth 2: 354582
depth 3: 260202
depth 4: 213772
depth 5: 181413
depth 6: 157970
depth 7: 134883
depth 8: 113467
depth 9: 85584
depth 10: 69842
depth 11: 53273
depth 12: 36979
depth 13: 20282
depth 14: 4781
depth 15: 4651
depth 16: 2
depth 17: 0
depth 18: 0
depth 19: 0
depth 20: 0
depth 21: 0
depth 22: 0
depth 23: 0
depth 24: 0
depth 25: 0
depth 26: 0
depth 27: 0
depth 28: 0
depth 29: 0
Total: 2403937
-----------------------------
-----------------------------
	Captured at Filter
-----------------------------
depth 0: 0
depth 1: 48843
depth 2: 36873
depth 3: 26816
depth 4: 11562
depth 5: 3433
depth 6: 1414
depth 7: 930
depth 8: 778
depth 9: 564
depth 10: 466
depth 11: 337
depth 12: 256
depth 13: 165
depth 14: 37
depth 15: 29
depth 16: 0
depth 17: 0
depth 18: 0
depth 19: 0
depth 20: 0
depth 21: 0
depth 22: 0
depth 23: 0
depth 24: 0
depth 25: 0
depth 26: 0
depth 27: 0
depth 28: 0
depth 29: 0
-----------------------------
-----------------------------
		Lost at Page
-----------------------------
depth 0: 0
depth 1: 60332
depth 2: 16318
depth 3: 17009
depth 4: 17474
depth 5: 16684
depth 6: 16999
depth 7: 17094
depth 8: 16780
depth 9: 14649
depth 10: 13584
depth 11: 11617
depth 12: 9061
depth 13: 5710
depth 14: 1443
depth 15: 1546
depth 16: 0
depth 17: 0
depth 18: 0
depth 19: 0
depth 20: 0
depth 21: 0
depth 22: 0
depth 23: 0
depth 24: 0
depth 25: 0
depth 26: 0
depth 27: 0
depth 28: 0
depth 29: 0
-----------------------------
-----------------------------
	Lost due to PQ Size
-----------------------------
19581
-----------------------------
ST read accesses: 612475
ST write accesses: 51049
PT read accesses: 15934949
PT write accesses: 849678
FILTER read accesses: 3316932
FILTER write accesses: 687808
GHR read accesses: 1492564
GHR write accesses: 193908
GHR counter read accesses: 13328372
GHR counter write accesses: 894070
ST tag read accesses: 282501519
ST tag write accesses: 29767657

DRAM Statistics
 CHANNEL 0
 RQ ROW_BUFFER_HIT:      65848  ROW_BUFFER_MISS:     217656
 DBUS_CONGESTED:     171410
 WQ ROW_BUFFER_HIT:      30199  ROW_BUFFER_MISS:      93807  FULL:          0

 AVG_CONGESTED_CYCLE: 13
 All warmup complete: 2
Channel 0 Bank busy for read cycles: 0
Channel 0 Bank busy for write cycles: 0
Channel 0
Rank 0
0banks busy for read cycles: 54953294
0banks busy for write cycles: 31695
1banks busy for read cycles: 10521026
1banks busy for write cycles: 3828152
2banks busy for read cycles: 5249007
2banks busy for write cycles: 1764274
3banks busy for read cycles: 2291741
3banks busy for write cycles: 1103627
4banks busy for read cycles: 957425
4banks busy for write cycles: 752526
5banks busy for read cycles: 379765
5banks busy for write cycles: 533609
6banks busy for read cycles: 165957
6banks busy for write cycles: 412260
7banks busy for read cycles: 116313
7banks busy for write cycles: 438005
8banks busy for read cycles: 499808
8banks busy for write cycles: 1316353

CPU 0 Branch Prediction Accuracy: 95.4558% MPKI: 7.81132 Average ROB Occupancy at Mispredict: 45.6596
Branch types
NOT_BRANCH: 41404794 82.8096%
BRANCH_DIRECT_JUMP: 468887 0.937774%
BRANCH_INDIRECT: 51898 0.103796%
BRANCH_CONDITIONAL: 6549378 13.0988%
BRANCH_DIRECT_CALL: 511782 1.02356%
BRANCH_INDIRECT_CALL: 249632 0.499264%
BRANCH_RETURN: 763279 1.52656%
BRANCH_OTHER: 0 0%

@sumon_overall_L1D         0         0         0         0         0         0
@Sumon_Early_by_class_L1D         0         0         0         0
@Sumon_Late_by_class_L1D         0         0         0         0

@Sumon_Early_by_cycle_L1D         0         0         0         0         0         0         0         0         0         0         0         0
@Sumon_Late_by_cycle_L1D         0         0         0         0         0         0         0         0         0         0         0         0
@Sumon_Early_stream_L1D         0         0         0         0         0         0         0         0         0         0         0         0
@Sumon_Early_CS_L1D         0         0         0         0         0         0         0         0         0         0         0         0
@Sumon_Early_CPLX_L1D         0         0         0         0         0         0         0         0         0         0         0         0
@Sumon_Late_stream_L1D         0         0         0         0         0         0         0         0         0         0         0         0
@Sumon_Late_CS_L1D         0         0         0         0         0         0         0         0         0         0         0         0
@Sumon_Late_CPLX_L1D         0         0         0         0         0         0         0         0         0         0         0         0
@sumon_overall_L2C     17430     49294       945     18308   2121378   2130259
@Sumon_Early_by_class_L2C         0         0         0         0
@Sumon_Late_by_class_L2C         0         0         0         0

@Sumon_Early_by_cycle_L2C      7579      3064       444       579       981      3703       448       400        65        51        23        93
@Sumon_Late_by_cycle_L2C     47096       844       323       737       270        24         0         0         0         0         0         0
@Sumon_Early_stream_L2C         0         0         0         0         0         0         0         0         0         0         0         0
@Sumon_Early_CS_L2C         0         0         0         0         0         0         0         0         0         0         0         0
@Sumon_Early_CPLX_L2C         0         0         0         0         0         0         0         0         0         0         0         0
@Sumon_Late_stream_L2C         0         0         0         0         0         0         0         0         0         0         0         0
@Sumon_Late_CS_L2C         0         0         0         0         0         0         0         0         0         0         0         0
@Sumon_Late_CPLX_L2C         0         0         0         0         0         0         0         0         0         0         0         0
DRAM PAGES: 1048576
Allocated PAGES: 9084
