Initialize SIGNATURE TABLE
ST_SET: 1
ST_WAY: 256
ST_TAG_BIT: 16
ST_TAG_MASK: ffff

Initialize PATTERN TABLE
PT_SET: 512
PT_WAY: 4
SIG_DELTA_BIT: 7
C_SIG_BIT: 4
C_DELTA_BIT: 4

Initialize PREFETCH FILTER
FILTER_SET: 1024

*** ChampSim Multicore Out-of-Order Simulator ***

Warmup Instructions: 10000000
Simulation Instructions: 50000000
Number of CPUs: 1
LLC sets: 2048
LLC ways: 16
Off-chip DRAM Size: 4096 MB Channels: 1 Width: 64-bit Data Rate: 1600 MT/s
CPU 0 runs traces/clientserver/client_007.champsimtrace.xz
.xz
CPU 0 Bimodal branch predictor
BTB has LRU replacement policy
ITLB has LRU replacement policy
DTLB has LRU replacement policy
STLB has LRU replacement policy
L1I has LRU replacement policy
L1D has LRU replacement policy
ST_WAYS: 256
PT_SETS: 512
L2C has LRU replacement policy
LLC has LRU replacement policy
Heartbeat CPU 0 instructions: 10000003 cycles: 3032972 heartbeat IPC: 3.2971 cumulative IPC: 3.2971 (Simulation time: 0 hr 12 min 28 sec) 

Warmup complete CPU 0 instructions: 10000003 cycles: 3032972 (Simulation time: 0 hr 12 min 28 sec) 

Heartbeat CPU 0 instructions: 20000003 cycles: 20240313 heartbeat IPC: 0.581147 cumulative IPC: 0.581147 (Simulation time: 0 hr 28 min 1 sec) 
Heartbeat CPU 0 instructions: 30000001 cycles: 36372675 heartbeat IPC: 0.619872 cumulative IPC: 0.599885 (Simulation time: 0 hr 45 min 11 sec) 
Heartbeat CPU 0 instructions: 40000003 cycles: 52884566 heartbeat IPC: 0.605624 cumulative IPC: 0.601786 (Simulation time: 1 hr 3 min 26 sec) 
Heartbeat CPU 0 instructions: 50000001 cycles: 70055425 heartbeat IPC: 0.582382 cumulative IPC: 0.596815 (Simulation time: 1 hr 19 min 30 sec) 
Heartbeat CPU 0 instructions: 60000003 cycles: 85940088 heartbeat IPC: 0.629538 cumulative IPC: 0.603085 (Simulation time: 1 hr 31 min 12 sec) 
Finished CPU 0 instructions: 50000000 cycles: 82907116 cumulative IPC: 0.603085 (Simulation time: 1 hr 31 min 12 sec) 

ChampSim completed all CPUs

Region of Interest Statistics

CPU 0 cumulative IPC: 0.603085 instructions: 50000000 cycles: 82907116
ITLB TOTAL     ACCESS:    8187974  HIT:    8036633  MISS:     151341  HIT %:    98.1517  MISS %:    1.84833   MPKI: 3.02682
ITLB LOAD TRANSLATION ACCESS:    8187974  HIT:    8036633  MISS:     151341  HIT %:    98.1517  MISS %:    1.84833   MPKI: 3.02682
ITLB PREFETCH  REQUESTED:          0  ISSUED:          0  USEFUL:          0  USELESS:          0
ITLB USEFUL LOAD PREFETCHES:          0 PREFETCH ISSUED TO LOWER LEVEL:          0  ACCURACY: -nan
ITLB TIMELY PREFETCHES:          0 LATE PREFETCHES: 0 DROPPED PREFETCHES: 0
ITLB PREFETCHES SAME FILL-ORIGIN LEVEL: 0 DIFFERENT FILL-ORIGIN LEVEL: 0
ITLB AVERAGE MISS LATENCY: 9.83805 cycles
ITLB RQ	ACCESS:    9760131	FORWARD:          0	MERGED:    1546658	TO_CACHE:    8213473

DTLB TOTAL     ACCESS:   13008811  HIT:   12685792  MISS:     323019  HIT %:    97.5169  MISS %:    2.48308   MPKI: 6.46038
DTLB LOAD TRANSLATION ACCESS:   13008811  HIT:   12685792  MISS:     323019  HIT %:    97.5169  MISS %:    2.48308   MPKI: 6.46038
DTLB PREFETCH  REQUESTED:          0  ISSUED:          0  USEFUL:          0  USELESS:          0
DTLB USEFUL LOAD PREFETCHES:          0 PREFETCH ISSUED TO LOWER LEVEL:          0  ACCURACY: -nan
DTLB TIMELY PREFETCHES:          0 LATE PREFETCHES: 0 DROPPED PREFETCHES: 0
DTLB PREFETCHES SAME FILL-ORIGIN LEVEL: 0 DIFFERENT FILL-ORIGIN LEVEL: 0
DTLB AVERAGE MISS LATENCY: 10.3789 cycles
DTLB RQ	ACCESS:   15104106	FORWARD:          0	MERGED:    2081263	TO_CACHE:   13022843

STLB TOTAL     ACCESS:     474360  HIT:     470599  MISS:       3761  HIT %:    99.2071  MISS %:   0.792858   MPKI: 0.07522
STLB LOAD TRANSLATION ACCESS:     474360  HIT:     470599  MISS:       3761  HIT %:    99.2071  MISS %:   0.792858   MPKI: 0.07522
STLB PREFETCH  REQUESTED:          0  ISSUED:          0  USEFUL:          0  USELESS:          0
STLB USEFUL LOAD PREFETCHES:          0 PREFETCH ISSUED TO LOWER LEVEL:          0  ACCURACY: -nan
STLB TIMELY PREFETCHES:          0 LATE PREFETCHES: 0 DROPPED PREFETCHES: 0
STLB PREFETCHES SAME FILL-ORIGIN LEVEL: 0 DIFFERENT FILL-ORIGIN LEVEL: 0
STLB AVERAGE MISS LATENCY: 149.344 cycles
STLB RQ	ACCESS:     474360	FORWARD:          0	MERGED:          0	TO_CACHE:     474360

STLB Hit, L1D data hit: 0
STLB Hit, L2C data hit: 0
STLB Hit, LLC data hit: 0
STLB Hit, LLC data miss: 0
STLB STLB hints to L2: 0
L1D TOTAL     ACCESS:   14926755  HIT:   14181999  MISS:     744756  HIT %:    95.0106  MISS %:     4.9894   MPKI: 14.8951
L1D LOAD      ACCESS:   10885733  HIT:   10227816  MISS:     657917  HIT %:    93.9562  MISS %:    6.04385   MPKI: 13.1583
L1D RFO       ACCESS:    4041022  HIT:    3954183  MISS:      86839  HIT %:    97.8511  MISS %:    2.14894   MPKI: 1.73678
L1D PREFETCH  REQUESTED:          0  ISSUED:          0  USEFUL:          0  USELESS:          0
L1D USEFUL LOAD PREFETCHES:          0 PREFETCH ISSUED TO LOWER LEVEL:          0  ACCURACY: -nan
L1D TIMELY PREFETCHES:          0 LATE PREFETCHES: 0 DROPPED PREFETCHES: 0
L1D PREFETCHES SAME FILL-ORIGIN LEVEL: 0 DIFFERENT FILL-ORIGIN LEVEL: 0
L1D AVERAGE MISS LATENCY: 34.8243 cycles
L1D RQ	ACCESS:   14198899	FORWARD:          0	MERGED:    3194042	TO_CACHE:   10928713
L1D WQ	ACCESS:    4262314	FORWARD:      76144	MERGED:      86921	TO_CACHE:    4175393

L1D UNIQUE REGIONS ACCESSED: 0
L1D REGIONS CONFLICTS: 0
L1D Cross Page Prefetch Requests: 0
L1D Same Page Prefetch Requests: 0
L1D ROI Sum of L1D PQ occupancy: 0
L1D PREFETCHES PUSHED FROM L2C: 0
L1I TOTAL     ACCESS:    9429806  HIT:    8500020  MISS:     929786  HIT %:    90.1399  MISS %:    9.86008   MPKI: 18.5957
L1I LOAD      ACCESS:    9429806  HIT:    8500020  MISS:     929786  HIT %:    90.1399  MISS %:    9.86008   MPKI: 18.5957
L1I PREFETCH  REQUESTED:          0  ISSUED:          0  USEFUL:          0  USELESS:          0
L1I USEFUL LOAD PREFETCHES:          0 PREFETCH ISSUED TO LOWER LEVEL:          0  ACCURACY: -nan
L1I TIMELY PREFETCHES:          0 LATE PREFETCHES: 0 DROPPED PREFETCHES: 0
L1I PREFETCHES SAME FILL-ORIGIN LEVEL: 0 DIFFERENT FILL-ORIGIN LEVEL: 0
L1I AVERAGE MISS LATENCY: 16.1821 cycles
L1I RQ	ACCESS:   14294058	FORWARD:          0	MERGED:    4533927	TO_CACHE:    9760131

BTB TOTAL     ACCESS:    6697829  HIT:    6283948  MISS:     413881  HIT %:    93.8207  MISS %:    6.17933   MPKI: 8.27762
BTB BRANCH_DIRECT_JUMP	ACCESS:     755928  HIT:     751742  MISS:       4186
BTB BRANCH_INDIRECT	ACCESS:     348209  HIT:     188037  MISS:     160172
BTB BRANCH_CONDITIONAL	ACCESS:    4185151  HIT:    4172629  MISS:      12522
BTB BRANCH_DIRECT_CALL	ACCESS:     451943  HIT:     445427  MISS:       6516
BTB BRANCH_INDIRECT_CALL	ACCESS:     241100  HIT:     182621  MISS:      58479
BTB BRANCH_RETURN	ACCESS:     715498  HIT:     543492  MISS:     172006
BTB BRANCH_OTHER ACCESS:          0  HIT:          0  MISS:          0

L2C TOTAL     ACCESS:    2302990  HIT:    2154361  MISS:     148629  HIT %:    93.5463  MISS %:    6.45374   MPKI: 2.97258
L2C LOAD      ACCESS:    1587563  HIT:    1484485  MISS:     103078  HIT %:    93.5072  MISS %:    6.49284   MPKI: 2.06156
L2C DATA LOAD MPKI: 1.81226
L2C INSTRUCTION LOAD MPKI: 0.2493
L2C RFO       ACCESS:      86838  HIT:      44166  MISS:      42672  HIT %:    50.8602  MISS %:    49.1398   MPKI: 0.85344
L2C PREFETCH  ACCESS:     355959  HIT:     354925  MISS:       1034  HIT %:    99.7095  MISS %:   0.290483   MPKI: 0.02068
L2C DATA PREFETCH MPKI: 0.02068
L2C INSTRUCTION PREFETCH MPKI: 0
L2C WRITEBACK ACCESS:     268670  HIT:     268374  MISS:        296  HIT %:    99.8898  MISS %:   0.110172   MPKI: 0.00592
L2C LOAD TRANSLATION ACCESS:       3960  HIT:       2411  MISS:       1549  HIT %:    60.8838  MISS %:    39.1162   MPKI: 0.03098
L2C PREFETCH  REQUESTED:     582414  ISSUED:     582412  USEFUL:        878  USELESS:        133
L2C USEFUL LOAD PREFETCHES:        878 PREFETCH ISSUED TO LOWER LEVEL:     207077  ACCURACY: 0.423997
L2C TIMELY PREFETCHES:        878 LATE PREFETCHES: 264 DROPPED PREFETCHES: 0
L2C PREFETCHES SAME FILL-ORIGIN LEVEL: 1298 DIFFERENT FILL-ORIGIN LEVEL: 205779
L2C AVERAGE MISS LATENCY: 114.638 cycles
L2C RQ	ACCESS:    1678502	FORWARD:          0	MERGED:          0	TO_CACHE:    1678361
L2C WQ	ACCESS:     268670	FORWARD:        150	MERGED:          0	TO_CACHE:     268670
L2C PQ	ACCESS:     582412	FORWARD:          0	MERGED:      14196	TO_CACHE:     568207

L2C Instructions Evicting Data 10819
L2C Translations Evicting Data 1380
L2C Data Evicting Data 123086
L2C Instructions Evicting Instructions 1484
L2C Translations Evicting Instructions 133
L2C Data Evicting Instructions 10000
L2C Instructions Evicting Translations 162
L2C Translations Evicting Translations 36
L2C Data Evicting Translations 1233
L2C Dense regions hint from L2: 0
PSCL5 TOTAL     ACCESS:       3761  HIT:       3761  MISS:          0  HIT %:        100  MISS %:          0   MPKI: 0
PSCL5 LOAD TRANSLATION ACCESS:       3761  HIT:       3761  MISS:          0  HIT %:        100  MISS %:          0   MPKI: 0
PSCL5 PREFETCH  REQUESTED:          0  ISSUED:          0  USEFUL:          0  USELESS:          0
PSCL5 USEFUL LOAD PREFETCHES:          0 PREFETCH ISSUED TO LOWER LEVEL:          0  ACCURACY: -nan
PSCL5 TIMELY PREFETCHES:          0 LATE PREFETCHES: 0 DROPPED PREFETCHES: 0
PSCL5 PREFETCHES SAME FILL-ORIGIN LEVEL: 0 DIFFERENT FILL-ORIGIN LEVEL: 0

PSCL4 TOTAL     ACCESS:       3712  HIT:       3707  MISS:          5  HIT %:    99.8653  MISS %:   0.134698   MPKI: 0.0001
PSCL4 LOAD TRANSLATION ACCESS:       3712  HIT:       3707  MISS:          5  HIT %:    99.8653  MISS %:   0.134698   MPKI: 0.0001
PSCL4 PREFETCH  REQUESTED:          0  ISSUED:          0  USEFUL:          0  USELESS:          0
PSCL4 USEFUL LOAD PREFETCHES:          0 PREFETCH ISSUED TO LOWER LEVEL:          0  ACCURACY: -nan
PSCL4 TIMELY PREFETCHES:          0 LATE PREFETCHES: 0 DROPPED PREFETCHES: 0
PSCL4 PREFETCHES SAME FILL-ORIGIN LEVEL: 0 DIFFERENT FILL-ORIGIN LEVEL: 0

PSCL3 TOTAL     ACCESS:       3747  HIT:       3735  MISS:         12  HIT %:    99.6797  MISS %:   0.320256   MPKI: 0.00024
PSCL3 LOAD TRANSLATION ACCESS:       3747  HIT:       3735  MISS:         12  HIT %:    99.6797  MISS %:   0.320256   MPKI: 0.00024
PSCL3 PREFETCH  REQUESTED:          0  ISSUED:          0  USEFUL:          0  USELESS:          0
PSCL3 USEFUL LOAD PREFETCHES:          0 PREFETCH ISSUED TO LOWER LEVEL:          0  ACCURACY: -nan
PSCL3 TIMELY PREFETCHES:          0 LATE PREFETCHES: 0 DROPPED PREFETCHES: 0
PSCL3 PREFETCHES SAME FILL-ORIGIN LEVEL: 0 DIFFERENT FILL-ORIGIN LEVEL: 0

PSCL2 TOTAL     ACCESS:       3761  HIT:       3576  MISS:        185  HIT %:    95.0811  MISS %:     4.9189   MPKI: 0.0037
PSCL2 LOAD TRANSLATION ACCESS:       3761  HIT:       3576  MISS:        185  HIT %:    95.0811  MISS %:     4.9189   MPKI: 0.0037
PSCL2 PREFETCH  REQUESTED:          0  ISSUED:          0  USEFUL:          0  USELESS:          0
PSCL2 USEFUL LOAD PREFETCHES:          0 PREFETCH ISSUED TO LOWER LEVEL:          0  ACCURACY: -nan
PSCL2 TIMELY PREFETCHES:          0 LATE PREFETCHES: 0 DROPPED PREFETCHES: 0
PSCL2 PREFETCHES SAME FILL-ORIGIN LEVEL: 0 DIFFERENT FILL-ORIGIN LEVEL: 0

LLC TOTAL     ACCESS:     415609  HIT:     314161  MISS:     101448  HIT %:    75.5905  MISS %:    24.4095   MPKI: 2.02896
LLC LOAD      ACCESS:     102814  HIT:      65707  MISS:      37107  HIT %:    63.9086  MISS %:    36.0914   MPKI: 0.74214
LLC RFO       ACCESS:      42672  HIT:       7502  MISS:      35170  HIT %:    17.5806  MISS %:    82.4194   MPKI: 0.7034
LLC PREFETCH  ACCESS:     203667  HIT:     175937  MISS:      27730  HIT %:    86.3846  MISS %:    13.6154   MPKI: 0.5546
LLC WRITEBACK ACCESS:      64907  HIT:      64771  MISS:        136  HIT %:    99.7905  MISS %:   0.209531   MPKI: 0.00272
LLC LOAD TRANSLATION ACCESS:       1549  HIT:        244  MISS:       1305  HIT %:    15.7521  MISS %:    84.2479   MPKI: 0.0261
LLC PREFETCH  REQUESTED:          0  ISSUED:          0  USEFUL:      10814  USELESS:      11558
LLC USEFUL LOAD PREFETCHES:      10814 PREFETCH ISSUED TO LOWER LEVEL:      28653  ACCURACY: 37.7412
LLC TIMELY PREFETCHES:      10814 LATE PREFETCHES: 923 DROPPED PREFETCHES: 0
LLC PREFETCHES SAME FILL-ORIGIN LEVEL: 28577 DIFFERENT FILL-ORIGIN LEVEL: 0
LLC AVERAGE MISS LATENCY: 173.7 cycles
LLC RQ	ACCESS:     147035	FORWARD:          0	MERGED:          0	TO_CACHE:     147035
LLC WQ	ACCESS:      64907	FORWARD:          0	MERGED:          0	TO_CACHE:      64907
LLC PQ	ACCESS:     207077	FORWARD:          0	MERGED:        859	TO_CACHE:     206218

LLC Dense regions hint to LLC: 0

RAW hits: 742191
Loads Generated: 14941095
Loads sent to L1D: 14198899
Stores Generated: 4262313
Stores sent to L1D: 4262314
Major fault: 0 Minor fault: 3373
Allocated PAGES: 3373
 All Calls: 751648
 Critical Calls: 751648
------------------
Depth Distribution
------------------
depth 0: 0
depth 1: 498920
depth 2: 92646
depth 3: 25596
depth 4: 9964
depth 5: 4589
depth 6: 1835
depth 7: 413
depth 8: 81
depth 9: 5
depth 10: 0
depth 11: 0
depth 12: 0
depth 13: 0
depth 14: 0
depth 15: 0
depth 16: 0
depth 17: 0
depth 18: 0
depth 19: 0
depth 20: 0
depth 21: 0
depth 22: 0
depth 23: 0
depth 24: 0
depth 25: 0
depth 26: 0
depth 27: 0
depth 28: 0
depth 29: 0
Total: 634049
-----------------------------
-----------------------------
	Captured at Filter
-----------------------------
depth 0: 0
depth 1: 30657
depth 2: 16550
depth 3: 9281
depth 4: 3581
depth 5: 1232
depth 6: 250
depth 7: 24
depth 8: 0
depth 9: 0
depth 10: 0
depth 11: 0
depth 12: 0
depth 13: 0
depth 14: 0
depth 15: 0
depth 16: 0
depth 17: 0
depth 18: 0
depth 19: 0
depth 20: 0
depth 21: 0
depth 22: 0
depth 23: 0
depth 24: 0
depth 25: 0
depth 26: 0
depth 27: 0
depth 28: 0
depth 29: 0
-----------------------------
-----------------------------
		Lost at Page
-----------------------------
depth 0: 0
depth 1: 28091
depth 2: 8280
depth 3: 4586
depth 4: 2142
depth 5: 1001
depth 6: 296
depth 7: 65
depth 8: 7
depth 9: 0
depth 10: 0
depth 11: 0
depth 12: 0
depth 13: 0
depth 14: 0
depth 15: 0
depth 16: 0
depth 17: 0
depth 18: 0
depth 19: 0
depth 20: 0
depth 21: 0
depth 22: 0
depth 23: 0
depth 24: 0
depth 25: 0
depth 26: 0
depth 27: 0
depth 28: 0
depth 29: 0
-----------------------------
-----------------------------
	Lost due to PQ Size
-----------------------------
2
-----------------------------
ST read accesses: 633845
ST write accesses: 23932
PT read accesses: 8296559
PT write accesses: 875981
FILTER read accesses: 1449586
FILTER write accesses: 161668
GHR read accesses: 456045
GHR write accesses: 42460
GHR counter read accesses: 6456954
GHR counter write accesses: 668454
ST tag read accesses: 266382242
ST tag write accesses: 24964265

DRAM Statistics
 CHANNEL 0
 RQ ROW_BUFFER_HIT:      15917  ROW_BUFFER_MISS:      85395
 DBUS_CONGESTED:      49595
 WQ ROW_BUFFER_HIT:      13534  ROW_BUFFER_MISS:      49057  FULL:          0

 AVG_CONGESTED_CYCLE: 13
 All warmup complete: 2
Channel 0 Bank busy for read cycles: 0
Channel 0 Bank busy for write cycles: 0
Channel 0
Rank 0
0banks busy for read cycles: 67809314
0banks busy for write cycles: 23286
1banks busy for read cycles: 6435629
1banks busy for write cycles: 3055908
2banks busy for read cycles: 1825767
2banks busy for write cycles: 866029
3banks busy for read cycles: 607691
3banks busy for write cycles: 489946
4banks busy for read cycles: 263681
4banks busy for write cycles: 310792
5banks busy for read cycles: 101452
5banks busy for write cycles: 229120
6banks busy for read cycles: 45500
6banks busy for write cycles: 195752
7banks busy for read cycles: 26600
7banks busy for write cycles: 200016
8banks busy for read cycles: 20529
8banks busy for write cycles: 400105

CPU 0 Branch Prediction Accuracy: 95.4787% MPKI: 8.10268 Average ROB Occupancy at Mispredict: 47.5023
Branch types
NOT_BRANCH: 41039511 82.079%
BRANCH_DIRECT_JUMP: 755928 1.51186%
BRANCH_INDIRECT: 348209 0.696418%
BRANCH_CONDITIONAL: 6447952 12.8959%
BRANCH_DIRECT_CALL: 451943 0.903886%
BRANCH_INDIRECT_CALL: 241100 0.4822%
BRANCH_RETURN: 715498 1.431%
BRANCH_OTHER: 0 0%

@sumon_overall_L1D         0         0         0         0         0         0
@Sumon_Early_by_class_L1D         0         0         0         0
@Sumon_Late_by_class_L1D         0         0         0         0

@Sumon_Early_by_cycle_L1D         0         0         0         0         0         0         0         0         0         0         0         0
@Sumon_Late_by_cycle_L1D         0         0         0         0         0         0         0         0         0         0         0         0
@Sumon_Early_stream_L1D         0         0         0         0         0         0         0         0         0         0         0         0
@Sumon_Early_CS_L1D         0         0         0         0         0         0         0         0         0         0         0         0
@Sumon_Early_CPLX_L1D         0         0         0         0         0         0         0         0         0         0         0         0
@Sumon_Late_stream_L1D         0         0         0         0         0         0         0         0         0         0         0         0
@Sumon_Late_CS_L1D         0         0         0         0         0         0         0         0         0         0         0         0
@Sumon_Late_CPLX_L1D         0         0         0         0         0         0         0         0         0         0         0         0
@sumon_overall_L2C       878       264       133      1034    582412    582414
@Sumon_Early_by_class_L2C         0         0         0         0
@Sumon_Late_by_class_L2C         0         0         0         0

@Sumon_Early_by_cycle_L2C       368       164        77        53        40       118        21         2         2         4         4        25
@Sumon_Late_by_cycle_L2C       204        35        19         2         2         2         0         0         0         0         0         0
@Sumon_Early_stream_L2C         0         0         0         0         0         0         0         0         0         0         0         0
@Sumon_Early_CS_L2C         0         0         0         0         0         0         0         0         0         0         0         0
@Sumon_Early_CPLX_L2C         0         0         0         0         0         0         0         0         0         0         0         0
@Sumon_Late_stream_L2C         0         0         0         0         0         0         0         0         0         0         0         0
@Sumon_Late_CS_L2C         0         0         0         0         0         0         0         0         0         0         0         0
@Sumon_Late_CPLX_L2C         0         0         0         0         0         0         0         0         0         0         0         0
DRAM PAGES: 1048576
Allocated PAGES: 3373
