Initialize SIGNATURE TABLE
ST_SET: 1
ST_WAY: 256
ST_TAG_BIT: 16
ST_TAG_MASK: ffff

Initialize PATTERN TABLE
PT_SET: 512
PT_WAY: 4
SIG_DELTA_BIT: 7
C_SIG_BIT: 4
C_DELTA_BIT: 4

Initialize PREFETCH FILTER
FILTER_SET: 1024

*** ChampSim Multicore Out-of-Order Simulator ***

Warmup Instructions: 10000000
Simulation Instructions: 50000000
Number of CPUs: 1
LLC sets: 2048
LLC ways: 16
Off-chip DRAM Size: 4096 MB Channels: 1 Width: 64-bit Data Rate: 1600 MT/s
CPU 0 runs traces/clientserver/server_035.champsimtrace.xz
.xz
CPU 0 Bimodal branch predictor
BTB has LRU replacement policy
ITLB has LRU replacement policy
DTLB has LRU replacement policy
STLB has LRU replacement policy
L1I has LRU replacement policy
L1D has LRU replacement policy
ST_WAYS: 256
PT_SETS: 512
L2C has LRU replacement policy
LLC has LRU replacement policy
Heartbeat CPU 0 instructions: 10000001 cycles: 2766762 heartbeat IPC: 3.61433 cumulative IPC: 3.61433 (Simulation time: 0 hr 12 min 53 sec) 

Warmup complete CPU 0 instructions: 10000001 cycles: 2766762 (Simulation time: 0 hr 12 min 53 sec) 

Heartbeat CPU 0 instructions: 20000000 cycles: 24404077 heartbeat IPC: 0.462164 cumulative IPC: 0.462164 (Simulation time: 0 hr 29 min 4 sec) 
Heartbeat CPU 0 instructions: 30000000 cycles: 45379450 heartbeat IPC: 0.47675 cumulative IPC: 0.469344 (Simulation time: 0 hr 44 min 53 sec) 
Heartbeat CPU 0 instructions: 40000000 cycles: 66960053 heartbeat IPC: 0.463379 cumulative IPC: 0.467339 (Simulation time: 1 hr 1 min 4 sec) 
Heartbeat CPU 0 instructions: 50000000 cycles: 87768685 heartbeat IPC: 0.48057 cumulative IPC: 0.470578 (Simulation time: 1 hr 16 min 58 sec) 
Heartbeat CPU 0 instructions: 60000001 cycles: 109143998 heartbeat IPC: 0.467829 cumulative IPC: 0.470025 (Simulation time: 1 hr 30 min 10 sec) 
Finished CPU 0 instructions: 50000000 cycles: 106377236 cumulative IPC: 0.470025 (Simulation time: 1 hr 30 min 10 sec) 

ChampSim completed all CPUs

Region of Interest Statistics

CPU 0 cumulative IPC: 0.470025 instructions: 50000000 cycles: 106377236
ITLB TOTAL     ACCESS:    8921115  HIT:    8417454  MISS:     503661  HIT %:    94.3543  MISS %:    5.64572   MPKI: 10.0732
ITLB LOAD TRANSLATION ACCESS:    8921115  HIT:    8417454  MISS:     503661  HIT %:    94.3543  MISS %:    5.64572   MPKI: 10.0732
ITLB PREFETCH  REQUESTED:          0  ISSUED:          0  USEFUL:          0  USELESS:          0
ITLB USEFUL LOAD PREFETCHES:          0 PREFETCH ISSUED TO LOWER LEVEL:          0  ACCURACY: -nan
ITLB TIMELY PREFETCHES:          0 LATE PREFETCHES: 0 DROPPED PREFETCHES: 0
ITLB PREFETCHES SAME FILL-ORIGIN LEVEL: 0 DIFFERENT FILL-ORIGIN LEVEL: 0
ITLB AVERAGE MISS LATENCY: 9.13281 cycles
ITLB RQ	ACCESS:   10584955	FORWARD:          0	MERGED:    1540098	TO_CACHE:    9044857

DTLB TOTAL     ACCESS:   10621429  HIT:   10171431  MISS:     449998  HIT %:    95.7633  MISS %:     4.2367   MPKI: 8.99996
DTLB LOAD TRANSLATION ACCESS:   10621429  HIT:   10171431  MISS:     449998  HIT %:    95.7633  MISS %:     4.2367   MPKI: 8.99996
DTLB PREFETCH  REQUESTED:          0  ISSUED:          0  USEFUL:          0  USELESS:          0
DTLB USEFUL LOAD PREFETCHES:          0 PREFETCH ISSUED TO LOWER LEVEL:          0  ACCURACY: -nan
DTLB TIMELY PREFETCHES:          0 LATE PREFETCHES: 0 DROPPED PREFETCHES: 0
DTLB PREFETCHES SAME FILL-ORIGIN LEVEL: 0 DIFFERENT FILL-ORIGIN LEVEL: 0
DTLB AVERAGE MISS LATENCY: 11.0568 cycles
DTLB RQ	ACCESS:   14214514	FORWARD:          0	MERGED:    3581941	TO_CACHE:   10632573

STLB TOTAL     ACCESS:     953659  HIT:     944715  MISS:       8944  HIT %:    99.0621  MISS %:   0.937861   MPKI: 0.17888
STLB LOAD TRANSLATION ACCESS:     953659  HIT:     944715  MISS:       8944  HIT %:    99.0621  MISS %:   0.937861   MPKI: 0.17888
STLB PREFETCH  REQUESTED:          0  ISSUED:          0  USEFUL:          0  USELESS:          0
STLB USEFUL LOAD PREFETCHES:          0 PREFETCH ISSUED TO LOWER LEVEL:          0  ACCURACY: -nan
STLB TIMELY PREFETCHES:          0 LATE PREFETCHES: 0 DROPPED PREFETCHES: 0
STLB PREFETCHES SAME FILL-ORIGIN LEVEL: 0 DIFFERENT FILL-ORIGIN LEVEL: 0
STLB AVERAGE MISS LATENCY: 108.206 cycles
STLB RQ	ACCESS:     953659	FORWARD:          0	MERGED:          0	TO_CACHE:     953659

STLB Hit, L1D data hit: 0
STLB Hit, L2C data hit: 0
STLB Hit, LLC data hit: 0
STLB Hit, LLC data miss: 0
STLB STLB hints to L2: 0
L1D TOTAL     ACCESS:   14092526  HIT:   13460723  MISS:     631803  HIT %:    95.5168  MISS %:    4.48325   MPKI: 12.6361
L1D LOAD      ACCESS:    7761430  HIT:    7222049  MISS:     539381  HIT %:    93.0505  MISS %:    6.94951   MPKI: 10.7876
L1D RFO       ACCESS:    6331096  HIT:    6238674  MISS:      92422  HIT %:    98.5402  MISS %:    1.45981   MPKI: 1.84844
L1D PREFETCH  REQUESTED:          0  ISSUED:          0  USEFUL:          0  USELESS:          0
L1D USEFUL LOAD PREFETCHES:          0 PREFETCH ISSUED TO LOWER LEVEL:          0  ACCURACY: -nan
L1D TIMELY PREFETCHES:          0 LATE PREFETCHES: 0 DROPPED PREFETCHES: 0
L1D PREFETCHES SAME FILL-ORIGIN LEVEL: 0 DIFFERENT FILL-ORIGIN LEVEL: 0
L1D AVERAGE MISS LATENCY: 55.5649 cycles
L1D RQ	ACCESS:   11118137	FORWARD:          0	MERGED:    3180168	TO_CACHE:    7790054
L1D WQ	ACCESS:    6513311	FORWARD:     147915	MERGED:      88851	TO_CACHE:    6424460

L1D UNIQUE REGIONS ACCESSED: 0
L1D REGIONS CONFLICTS: 0
L1D Cross Page Prefetch Requests: 0
L1D Same Page Prefetch Requests: 0
L1D ROI Sum of L1D PQ occupancy: 0
L1D PREFETCHES PUSHED FROM L2C: 0
L1I TOTAL     ACCESS:    9854168  HIT:    6514668  MISS:    3339500  HIT %:    66.1108  MISS %:    33.8892   MPKI: 66.79
L1I LOAD      ACCESS:    9854168  HIT:    6514668  MISS:    3339500  HIT %:    66.1108  MISS %:    33.8892   MPKI: 66.79
L1I PREFETCH  REQUESTED:          0  ISSUED:          0  USEFUL:          0  USELESS:          0
L1I USEFUL LOAD PREFETCHES:          0 PREFETCH ISSUED TO LOWER LEVEL:          0  ACCURACY: -nan
L1I TIMELY PREFETCHES:          0 LATE PREFETCHES: 0 DROPPED PREFETCHES: 0
L1I PREFETCHES SAME FILL-ORIGIN LEVEL: 0 DIFFERENT FILL-ORIGIN LEVEL: 0
L1I AVERAGE MISS LATENCY: 14.6165 cycles
L1I RQ	ACCESS:   14701258	FORWARD:          0	MERGED:    4116303	TO_CACHE:   10584955

BTB TOTAL     ACCESS:    6340911  HIT:    5350572  MISS:     990339  HIT %:    84.3818  MISS %:    15.6182   MPKI: 19.8068
BTB BRANCH_DIRECT_JUMP	ACCESS:     773568  HIT:     696055  MISS:      77513
BTB BRANCH_INDIRECT	ACCESS:     108366  HIT:      73637  MISS:      34729
BTB BRANCH_CONDITIONAL	ACCESS:    2912412  HIT:    2697482  MISS:     214930
BTB BRANCH_DIRECT_CALL	ACCESS:    1062754  HIT:     948424  MISS:     114330
BTB BRANCH_INDIRECT_CALL	ACCESS:     210539  HIT:     143968  MISS:      66571
BTB BRANCH_RETURN	ACCESS:    1273272  HIT:     791006  MISS:     482266
BTB BRANCH_OTHER ACCESS:          0  HIT:          0  MISS:          0

L2C TOTAL     ACCESS:    4415415  HIT:    4212426  MISS:     202989  HIT %:    95.4027  MISS %:    4.59728   MPKI: 4.05978
L2C LOAD      ACCESS:    3878872  HIT:    3710307  MISS:     168565  HIT %:    95.6543  MISS %:    4.34572   MPKI: 3.3713
L2C DATA LOAD MPKI: 3.14062
L2C INSTRUCTION LOAD MPKI: 0.23068
L2C RFO       ACCESS:      92419  HIT:      65203  MISS:      27216  HIT %:    70.5515  MISS %:    29.4485   MPKI: 0.54432
L2C PREFETCH  ACCESS:     205945  HIT:     203692  MISS:       2253  HIT %:     98.906  MISS %:    1.09398   MPKI: 0.04506
L2C DATA PREFETCH MPKI: 0.04506
L2C INSTRUCTION PREFETCH MPKI: 0
L2C WRITEBACK ACCESS:     228576  HIT:     227310  MISS:       1266  HIT %:    99.4461  MISS %:   0.553864   MPKI: 0.02532
L2C LOAD TRANSLATION ACCESS:       9603  HIT:       5914  MISS:       3689  HIT %:    61.5849  MISS %:    38.4151   MPKI: 0.07378
L2C PREFETCH  REQUESTED:     488194  ISSUED:     488194  USEFUL:       1777  USELESS:        495
L2C USEFUL LOAD PREFETCHES:       1777 PREFETCH ISSUED TO LOWER LEVEL:     242239  ACCURACY: 0.733573
L2C TIMELY PREFETCHES:       1777 LATE PREFETCHES: 411 DROPPED PREFETCHES: 0
L2C PREFETCHES SAME FILL-ORIGIN LEVEL: 2664 DIFFERENT FILL-ORIGIN LEVEL: 239575
L2C AVERAGE MISS LATENCY: 136.993 cycles
L2C RQ	ACCESS:    3980906	FORWARD:          0	MERGED:          0	TO_CACHE:    3980894
L2C WQ	ACCESS:     228576	FORWARD:         12	MERGED:          0	TO_CACHE:     228576
L2C PQ	ACCESS:     488194	FORWARD:          0	MERGED:      22629	TO_CACHE:     465565

L2C Instructions Evicting Data 9026
L2C Translations Evicting Data 3432
L2C Data Evicting Data 174178
L2C Instructions Evicting Instructions 2343
L2C Translations Evicting Instructions 180
L2C Data Evicting Instructions 8889
L2C Instructions Evicting Translations 165
L2C Translations Evicting Translations 77
L2C Data Evicting Translations 3433
L2C Dense regions hint from L2: 0
PSCL5 TOTAL     ACCESS:       8944  HIT:       8944  MISS:          0  HIT %:        100  MISS %:          0   MPKI: 0
PSCL5 LOAD TRANSLATION ACCESS:       8944  HIT:       8944  MISS:          0  HIT %:        100  MISS %:          0   MPKI: 0
PSCL5 PREFETCH  REQUESTED:          0  ISSUED:          0  USEFUL:          0  USELESS:          0
PSCL5 USEFUL LOAD PREFETCHES:          0 PREFETCH ISSUED TO LOWER LEVEL:          0  ACCURACY: -nan
PSCL5 TIMELY PREFETCHES:          0 LATE PREFETCHES: 0 DROPPED PREFETCHES: 0
PSCL5 PREFETCHES SAME FILL-ORIGIN LEVEL: 0 DIFFERENT FILL-ORIGIN LEVEL: 0

PSCL4 TOTAL     ACCESS:       8431  HIT:       8395  MISS:         36  HIT %:     99.573  MISS %:   0.426996   MPKI: 0.00072
PSCL4 LOAD TRANSLATION ACCESS:       8431  HIT:       8395  MISS:         36  HIT %:     99.573  MISS %:   0.426996   MPKI: 0.00072
PSCL4 PREFETCH  REQUESTED:          0  ISSUED:          0  USEFUL:          0  USELESS:          0
PSCL4 USEFUL LOAD PREFETCHES:          0 PREFETCH ISSUED TO LOWER LEVEL:          0  ACCURACY: -nan
PSCL4 TIMELY PREFETCHES:          0 LATE PREFETCHES: 0 DROPPED PREFETCHES: 0
PSCL4 PREFETCHES SAME FILL-ORIGIN LEVEL: 0 DIFFERENT FILL-ORIGIN LEVEL: 0

PSCL3 TOTAL     ACCESS:       8710  HIT:       8674  MISS:         36  HIT %:    99.5867  MISS %:   0.413318   MPKI: 0.00072
PSCL3 LOAD TRANSLATION ACCESS:       8710  HIT:       8674  MISS:         36  HIT %:    99.5867  MISS %:   0.413318   MPKI: 0.00072
PSCL3 PREFETCH  REQUESTED:          0  ISSUED:          0  USEFUL:          0  USELESS:          0
PSCL3 USEFUL LOAD PREFETCHES:          0 PREFETCH ISSUED TO LOWER LEVEL:          0  ACCURACY: -nan
PSCL3 TIMELY PREFETCHES:          0 LATE PREFETCHES: 0 DROPPED PREFETCHES: 0
PSCL3 PREFETCHES SAME FILL-ORIGIN LEVEL: 0 DIFFERENT FILL-ORIGIN LEVEL: 0

PSCL2 TOTAL     ACCESS:       8944  HIT:       8352  MISS:        592  HIT %:     93.381  MISS %:    6.61896   MPKI: 0.01184
PSCL2 LOAD TRANSLATION ACCESS:       8944  HIT:       8352  MISS:        592  HIT %:     93.381  MISS %:    6.61896   MPKI: 0.01184
PSCL2 PREFETCH  REQUESTED:          0  ISSUED:          0  USEFUL:          0  USELESS:          0
PSCL2 USEFUL LOAD PREFETCHES:          0 PREFETCH ISSUED TO LOWER LEVEL:          0  ACCURACY: -nan
PSCL2 TIMELY PREFETCHES:          0 LATE PREFETCHES: 0 DROPPED PREFETCHES: 0
PSCL2 PREFETCHES SAME FILL-ORIGIN LEVEL: 0 DIFFERENT FILL-ORIGIN LEVEL: 0

LLC TOTAL     ACCESS:     520871  HIT:     326744  MISS:     194127  HIT %:    62.7303  MISS %:    37.2697   MPKI: 3.88254
LLC LOAD      ACCESS:     168154  HIT:      65016  MISS:     103138  HIT %:    38.6646  MISS %:    61.3354   MPKI: 2.06276
LLC RFO       ACCESS:      27216  HIT:      10277  MISS:      16939  HIT %:    37.7609  MISS %:    62.2391   MPKI: 0.33878
LLC PREFETCH  ACCESS:     225356  HIT:     153907  MISS:      71449  HIT %:    68.2951  MISS %:    31.7049   MPKI: 1.42898
LLC WRITEBACK ACCESS:      96456  HIT:      95633  MISS:        823  HIT %:    99.1468  MISS %:   0.853239   MPKI: 0.01646
LLC LOAD TRANSLATION ACCESS:       3689  HIT:       1911  MISS:       1778  HIT %:    51.8027  MISS %:    48.1973   MPKI: 0.03556
LLC PREFETCH  REQUESTED:          0  ISSUED:          0  USEFUL:      46956  USELESS:      24081
LLC USEFUL LOAD PREFETCHES:      46956 PREFETCH ISSUED TO LOWER LEVEL:      83287  ACCURACY: 56.3785
LLC TIMELY PREFETCHES:      46956 LATE PREFETCHES: 11837 DROPPED PREFETCHES: 0
LLC PREFETCHES SAME FILL-ORIGIN LEVEL: 82783 DIFFERENT FILL-ORIGIN LEVEL: 0
LLC AVERAGE MISS LATENCY: 180.684 cycles
LLC RQ	ACCESS:     199059	FORWARD:          0	MERGED:          0	TO_CACHE:     199059
LLC WQ	ACCESS:      96456	FORWARD:          0	MERGED:          0	TO_CACHE:      96456
LLC PQ	ACCESS:     242239	FORWARD:          0	MERGED:       1554	TO_CACHE:     240685

LLC Dense regions hint to LLC: 0

RAW hits: 962738
Loads Generated: 12080876
Loads sent to L1D: 11118137
Stores Generated: 6513306
Stores sent to L1D: 6513311
Major fault: 0 Minor fault: 5429
Allocated PAGES: 5429
 All Calls: 642966
 Critical Calls: 642966
------------------
Depth Distribution
------------------
depth 0: 0
depth 1: 493443
depth 2: 66900
depth 3: 14011
depth 4: 3882
depth 5: 283
depth 6: 4
depth 7: 0
depth 8: 0
depth 9: 0
depth 10: 0
depth 11: 0
depth 12: 0
depth 13: 0
depth 14: 0
depth 15: 0
depth 16: 0
depth 17: 0
depth 18: 0
depth 19: 0
depth 20: 0
depth 21: 0
depth 22: 0
depth 23: 0
depth 24: 0
depth 25: 0
depth 26: 0
depth 27: 0
depth 28: 0
depth 29: 0
Total: 578523
-----------------------------
-----------------------------
	Captured at Filter
-----------------------------
depth 0: 0
depth 1: 33885
depth 2: 28247
depth 3: 19250
depth 4: 3254
depth 5: 249
depth 6: 26
depth 7: 5
depth 8: 0
depth 9: 0
depth 10: 0
depth 11: 0
depth 12: 0
depth 13: 0
depth 14: 0
depth 15: 0
depth 16: 0
depth 17: 0
depth 18: 0
depth 19: 0
depth 20: 0
depth 21: 0
depth 22: 0
depth 23: 0
depth 24: 0
depth 25: 0
depth 26: 0
depth 27: 0
depth 28: 0
depth 29: 0
-----------------------------
-----------------------------
		Lost at Page
-----------------------------
depth 0: 0
depth 1: 38987
depth 2: 3172
depth 3: 1198
depth 4: 649
depth 5: 192
depth 6: 3
depth 7: 0
depth 8: 0
depth 9: 0
depth 10: 0
depth 11: 0
depth 12: 0
depth 13: 0
depth 14: 0
depth 15: 0
depth 16: 0
depth 17: 0
depth 18: 0
depth 19: 0
depth 20: 0
depth 21: 0
depth 22: 0
depth 23: 0
depth 24: 0
depth 25: 0
depth 26: 0
depth 27: 0
depth 28: 0
depth 29: 0
-----------------------------
-----------------------------
	Lost due to PQ Size
-----------------------------
0
-----------------------------
ST read accesses: 525241
ST write accesses: 14131
PT read accesses: 6418833
PT write accesses: 637611
FILTER read accesses: 1300542
FILTER write accesses: 225423
GHR read accesses: 392449
GHR write accesses: 38453
GHR counter read accesses: 5375268
GHR counter write accesses: 559604
ST tag read accesses: 212027918
ST tag write accesses: 35219216

DRAM Statistics
 CHANNEL 0
 RQ ROW_BUFFER_HIT:      40783  ROW_BUFFER_MISS:     152519
 DBUS_CONGESTED:     103477
 WQ ROW_BUFFER_HIT:      20342  ROW_BUFFER_MISS:      62853  FULL:          0

 AVG_CONGESTED_CYCLE: 12
 All warmup complete: 2
Channel 0 Bank busy for read cycles: 0
Channel 0 Bank busy for write cycles: 0
Channel 0
Rank 0
0banks busy for read cycles: 84324159
0banks busy for write cycles: 24686
1banks busy for read cycles: 7763666
1banks busy for write cycles: 3291601
2banks busy for read cycles: 3942984
2banks busy for write cycles: 1460793
3banks busy for read cycles: 1541880
3banks busy for write cycles: 844975
4banks busy for read cycles: 571281
4banks busy for write cycles: 561220
5banks busy for read cycles: 262256
5banks busy for write cycles: 403881
6banks busy for read cycles: 127219
6banks busy for write cycles: 306050
7banks busy for read cycles: 173225
7banks busy for write cycles: 312925
8banks busy for read cycles: 60754
8banks busy for write cycles: 403682

CPU 0 Branch Prediction Accuracy: 93.023% MPKI: 13.5823 Average ROB Occupancy at Mispredict: 21.3179
Branch types
NOT_BRANCH: 40266056 80.5321%
BRANCH_DIRECT_JUMP: 773568 1.54714%
BRANCH_INDIRECT: 108366 0.216732%
BRANCH_CONDITIONAL: 6305096 12.6102%
BRANCH_DIRECT_CALL: 1062754 2.12551%
BRANCH_INDIRECT_CALL: 210539 0.421078%
BRANCH_RETURN: 1273272 2.54654%
BRANCH_OTHER: 0 0%

@sumon_overall_L1D         0         0         0         0         0         0
@Sumon_Early_by_class_L1D         0         0         0         0
@Sumon_Late_by_class_L1D         0         0         0         0

@Sumon_Early_by_cycle_L1D         0         0         0         0         0         0         0         0         0         0         0         0
@Sumon_Late_by_cycle_L1D         0         0         0         0         0         0         0         0         0         0         0         0
@Sumon_Early_stream_L1D         0         0         0         0         0         0         0         0         0         0         0         0
@Sumon_Early_CS_L1D         0         0         0         0         0         0         0         0         0         0         0         0
@Sumon_Early_CPLX_L1D         0         0         0         0         0         0         0         0         0         0         0         0
@Sumon_Late_stream_L1D         0         0         0         0         0         0         0         0         0         0         0         0
@Sumon_Late_CS_L1D         0         0         0         0         0         0         0         0         0         0         0         0
@Sumon_Late_CPLX_L1D         0         0         0         0         0         0         0         0         0         0         0         0
@sumon_overall_L2C      1777       411       495      2253    488194    488194
@Sumon_Early_by_class_L2C         0         0         0         0
@Sumon_Late_by_class_L2C         0         0         0         0

@Sumon_Early_by_cycle_L2C       386       124       237       270       209       258        83        22        46        75        23        44
@Sumon_Late_by_cycle_L2C       341        53        14         3         0         0         0         0         0         0         0         0
@Sumon_Early_stream_L2C         0         0         0         0         0         0         0         0         0         0         0         0
@Sumon_Early_CS_L2C         0         0         0         0         0         0         0         0         0         0         0         0
@Sumon_Early_CPLX_L2C         0         0         0         0         0         0         0         0         0         0         0         0
@Sumon_Late_stream_L2C         0         0         0         0         0         0         0         0         0         0         0         0
@Sumon_Late_CS_L2C         0         0         0         0         0         0         0         0         0         0         0         0
@Sumon_Late_CPLX_L2C         0         0         0         0         0         0         0         0         0         0         0         0
DRAM PAGES: 1048576
Allocated PAGES: 5429
