Initialize SIGNATURE TABLE
ST_SET: 1
ST_WAY: 256
ST_TAG_BIT: 16
ST_TAG_MASK: ffff

Initialize PATTERN TABLE
PT_SET: 512
PT_WAY: 4
SIG_DELTA_BIT: 7
C_SIG_BIT: 4
C_DELTA_BIT: 4

Initialize PREFETCH FILTER
FILTER_SET: 1024

*** ChampSim Multicore Out-of-Order Simulator ***

Warmup Instructions: 10000000
Simulation Instructions: 50000000
Number of CPUs: 1
LLC sets: 2048
LLC ways: 16
Off-chip DRAM Size: 4096 MB Channels: 1 Width: 64-bit Data Rate: 1600 MT/s
CPU 0 runs traces/clientserver/server_022.champsimtrace.xz
.xz
CPU 0 Bimodal branch predictor
BTB has LRU replacement policy
ITLB has LRU replacement policy
DTLB has LRU replacement policy
STLB has LRU replacement policy
L1I has LRU replacement policy
L1D has LRU replacement policy
ST_WAYS: 256
PT_SETS: 512
L2C has LRU replacement policy
LLC has LRU replacement policy
Heartbeat CPU 0 instructions: 10000001 cycles: 3215738 heartbeat IPC: 3.10971 cumulative IPC: 3.10971 (Simulation time: 0 hr 14 min 14 sec) 

Warmup complete CPU 0 instructions: 10000001 cycles: 3215738 (Simulation time: 0 hr 14 min 14 sec) 

Heartbeat CPU 0 instructions: 20000001 cycles: 28778148 heartbeat IPC: 0.391199 cumulative IPC: 0.391199 (Simulation time: 0 hr 40 min 24 sec) 
Heartbeat CPU 0 instructions: 30000002 cycles: 54522906 heartbeat IPC: 0.388429 cumulative IPC: 0.389809 (Simulation time: 1 hr 7 min 18 sec) 
Heartbeat CPU 0 instructions: 40000002 cycles: 79875721 heartbeat IPC: 0.394434 cumulative IPC: 0.391338 (Simulation time: 1 hr 30 min 8 sec) 
Heartbeat CPU 0 instructions: 50000002 cycles: 105768998 heartbeat IPC: 0.386201 cumulative IPC: 0.390041 (Simulation time: 1 hr 36 min 4 sec) 
Heartbeat CPU 0 instructions: 60000002 cycles: 131383572 heartbeat IPC: 0.390403 cumulative IPC: 0.390114 (Simulation time: 1 hr 39 min 29 sec) 
Finished CPU 0 instructions: 50000001 cycles: 128167834 cumulative IPC: 0.390114 (Simulation time: 1 hr 39 min 29 sec) 

ChampSim completed all CPUs

Region of Interest Statistics

CPU 0 cumulative IPC: 0.390114 instructions: 50000001 cycles: 128167834
ITLB TOTAL     ACCESS:    9108797  HIT:    8724480  MISS:     384317  HIT %:    95.7808  MISS %:    4.21919   MPKI: 7.68634
ITLB LOAD TRANSLATION ACCESS:    9108797  HIT:    8724480  MISS:     384317  HIT %:    95.7808  MISS %:    4.21919   MPKI: 7.68634
ITLB PREFETCH  REQUESTED:          0  ISSUED:          0  USEFUL:          0  USELESS:          0
ITLB USEFUL LOAD PREFETCHES:          0 PREFETCH ISSUED TO LOWER LEVEL:          0  ACCURACY: -nan
ITLB TIMELY PREFETCHES:          0 LATE PREFETCHES: 0 DROPPED PREFETCHES: 0
ITLB PREFETCHES SAME FILL-ORIGIN LEVEL: 0 DIFFERENT FILL-ORIGIN LEVEL: 0
ITLB AVERAGE MISS LATENCY: 9.30915 cycles
ITLB RQ	ACCESS:   10733772	FORWARD:          0	MERGED:    1502036	TO_CACHE:    9231736

DTLB TOTAL     ACCESS:   11860291  HIT:   11453533  MISS:     406758  HIT %:    96.5704  MISS %:    3.42958   MPKI: 8.13516
DTLB LOAD TRANSLATION ACCESS:   11860291  HIT:   11453533  MISS:     406758  HIT %:    96.5704  MISS %:    3.42958   MPKI: 8.13516
DTLB PREFETCH  REQUESTED:          0  ISSUED:          0  USEFUL:          0  USELESS:          0
DTLB USEFUL LOAD PREFETCHES:          0 PREFETCH ISSUED TO LOWER LEVEL:          0  ACCURACY: -nan
DTLB TIMELY PREFETCHES:          0 LATE PREFETCHES: 0 DROPPED PREFETCHES: 0
DTLB PREFETCHES SAME FILL-ORIGIN LEVEL: 0 DIFFERENT FILL-ORIGIN LEVEL: 0
DTLB AVERAGE MISS LATENCY: 16.9253 cycles
DTLB RQ	ACCESS:   16824741	FORWARD:          0	MERGED:    4898458	TO_CACHE:   11926283

STLB TOTAL     ACCESS:     791075  HIT:     771377  MISS:      19698  HIT %:      97.51  MISS %:    2.49003   MPKI: 0.39396
STLB LOAD TRANSLATION ACCESS:     791075  HIT:     771377  MISS:      19698  HIT %:      97.51  MISS %:    2.49003   MPKI: 0.39396
STLB PREFETCH  REQUESTED:          0  ISSUED:          0  USEFUL:          0  USELESS:          0
STLB USEFUL LOAD PREFETCHES:          0 PREFETCH ISSUED TO LOWER LEVEL:          0  ACCURACY: -nan
STLB TIMELY PREFETCHES:          0 LATE PREFETCHES: 0 DROPPED PREFETCHES: 0
STLB PREFETCHES SAME FILL-ORIGIN LEVEL: 0 DIFFERENT FILL-ORIGIN LEVEL: 0
STLB AVERAGE MISS LATENCY: 169.141 cycles
STLB RQ	ACCESS:     791075	FORWARD:          0	MERGED:          0	TO_CACHE:     791075

STLB Hit, L1D data hit: 0
STLB Hit, L2C data hit: 0
STLB Hit, LLC data hit: 0
STLB Hit, LLC data miss: 0
STLB STLB hints to L2: 0
L1D TOTAL     ACCESS:   14164273  HIT:   12357500  MISS:    1806773  HIT %:    87.2442  MISS %:    12.7558   MPKI: 36.1355
L1D LOAD      ACCESS:    7987940  HIT:    7169073  MISS:     818867  HIT %:    89.7487  MISS %:    10.2513   MPKI: 16.3773
L1D RFO       ACCESS:    6176333  HIT:    5188427  MISS:     987906  HIT %:     84.005  MISS %:     15.995   MPKI: 19.7581
L1D PREFETCH  REQUESTED:          0  ISSUED:          0  USEFUL:          0  USELESS:          0
L1D USEFUL LOAD PREFETCHES:          0 PREFETCH ISSUED TO LOWER LEVEL:          0  ACCURACY: -nan
L1D TIMELY PREFETCHES:          0 LATE PREFETCHES: 0 DROPPED PREFETCHES: 0
L1D PREFETCHES SAME FILL-ORIGIN LEVEL: 0 DIFFERENT FILL-ORIGIN LEVEL: 0
L1D AVERAGE MISS LATENCY: 256.891 cycles
L1D RQ	ACCESS:   11539688	FORWARD:          0	MERGED:    3375665	TO_CACHE:    8032751
L1D WQ	ACCESS:    8859606	FORWARD:     131272	MERGED:      67616	TO_CACHE:    8791990

L1D UNIQUE REGIONS ACCESSED: 0
L1D REGIONS CONFLICTS: 0
L1D Cross Page Prefetch Requests: 0
L1D Same Page Prefetch Requests: 0
L1D ROI Sum of L1D PQ occupancy: 0
L1D PREFETCHES PUSHED FROM L2C: 0
L1I TOTAL     ACCESS:    9998966  HIT:    7548250  MISS:    2450716  HIT %:    75.4903  MISS %:    24.5097   MPKI: 49.0143
L1I LOAD      ACCESS:    9998966  HIT:    7548250  MISS:    2450716  HIT %:    75.4903  MISS %:    24.5097   MPKI: 49.0143
L1I PREFETCH  REQUESTED:          0  ISSUED:          0  USEFUL:          0  USELESS:          0
L1I USEFUL LOAD PREFETCHES:          0 PREFETCH ISSUED TO LOWER LEVEL:          0  ACCURACY: -nan
L1I TIMELY PREFETCHES:          0 LATE PREFETCHES: 0 DROPPED PREFETCHES: 0
L1I PREFETCHES SAME FILL-ORIGIN LEVEL: 0 DIFFERENT FILL-ORIGIN LEVEL: 0
L1I AVERAGE MISS LATENCY: 16.7575 cycles
L1I RQ	ACCESS:   14723475	FORWARD:          0	MERGED:    3989703	TO_CACHE:   10733772

BTB TOTAL     ACCESS:    5312390  HIT:    5051460  MISS:     260930  HIT %:    95.0883  MISS %:    4.91173   MPKI: 5.2186
BTB BRANCH_DIRECT_JUMP	ACCESS:     445390  HIT:     443225  MISS:       2165
BTB BRANCH_INDIRECT	ACCESS:      48845  HIT:      48732  MISS:        113
BTB BRANCH_CONDITIONAL	ACCESS:    2983725  HIT:    2977217  MISS:       6508
BTB BRANCH_DIRECT_CALL	ACCESS:     758108  HIT:     753662  MISS:       4446
BTB BRANCH_INDIRECT_CALL	ACCESS:     159112  HIT:     129310  MISS:      29802
BTB BRANCH_RETURN	ACCESS:     917210  HIT:     699314  MISS:     217896
BTB BRANCH_OTHER ACCESS:          0  HIT:          0  MISS:          0

L2C TOTAL     ACCESS:    6063810  HIT:    4351575  MISS:    1712235  HIT %:     71.763  MISS %:     28.237   MPKI: 34.2447
L2C LOAD      ACCESS:    3269572  HIT:    2720586  MISS:     548986  HIT %:    83.2092  MISS %:    16.7908   MPKI: 10.9797
L2C DATA LOAD MPKI: 8.3576
L2C INSTRUCTION LOAD MPKI: 2.62212
L2C RFO       ACCESS:     987889  HIT:      26239  MISS:     961650  HIT %:    2.65607  MISS %:    97.3439   MPKI: 19.233
L2C PREFETCH  ACCESS:     620644  HIT:     431255  MISS:     189389  HIT %:    69.4851  MISS %:    30.5149   MPKI: 3.78778
L2C DATA PREFETCH MPKI: 3.78778
L2C INSTRUCTION PREFETCH MPKI: 0
L2C WRITEBACK ACCESS:    1163851  HIT:    1161141  MISS:       2710  HIT %:    99.7672  MISS %:   0.232848   MPKI: 0.0542
L2C LOAD TRANSLATION ACCESS:      21854  HIT:      12354  MISS:       9500  HIT %:    56.5297  MISS %:    43.4703   MPKI: 0.19
L2C PREFETCH  REQUESTED:    3094578  ISSUED:    3094419  USEFUL:     186594  USELESS:       2802
L2C USEFUL LOAD PREFETCHES:     186594 PREFETCH ISSUED TO LOWER LEVEL:    2579424  ACCURACY: 7.23394
L2C TIMELY PREFETCHES:     186594 LATE PREFETCHES: 3539 DROPPED PREFETCHES: 0
L2C PREFETCHES SAME FILL-ORIGIN LEVEL: 192928 DIFFERENT FILL-ORIGIN LEVEL: 2386496
L2C AVERAGE MISS LATENCY: 263.552 cycles
L2C RQ	ACCESS:    4279344	FORWARD:          0	MERGED:          0	TO_CACHE:    4279316
L2C WQ	ACCESS:    1163851	FORWARD:         30	MERGED:          0	TO_CACHE:    1163851
L2C PQ	ACCESS:    3094419	FORWARD:          0	MERGED:      50609	TO_CACHE:    3043808

L2C Instructions Evicting Data 124487
L2C Translations Evicting Data 8778
L2C Data Evicting Data 1436612
L2C Instructions Evicting Instructions 5894
L2C Translations Evicting Instructions 680
L2C Data Evicting Instructions 123557
L2C Instructions Evicting Translations 725
L2C Translations Evicting Translations 42
L2C Data Evicting Translations 8750
L2C Dense regions hint from L2: 0
PSCL5 TOTAL     ACCESS:      19698  HIT:      19698  MISS:          0  HIT %:        100  MISS %:          0   MPKI: 0
PSCL5 LOAD TRANSLATION ACCESS:      19698  HIT:      19698  MISS:          0  HIT %:        100  MISS %:          0   MPKI: 0
PSCL5 PREFETCH  REQUESTED:          0  ISSUED:          0  USEFUL:          0  USELESS:          0
PSCL5 USEFUL LOAD PREFETCHES:          0 PREFETCH ISSUED TO LOWER LEVEL:          0  ACCURACY: -nan
PSCL5 TIMELY PREFETCHES:          0 LATE PREFETCHES: 0 DROPPED PREFETCHES: 0
PSCL5 PREFETCHES SAME FILL-ORIGIN LEVEL: 0 DIFFERENT FILL-ORIGIN LEVEL: 0

PSCL4 TOTAL     ACCESS:      17973  HIT:      17952  MISS:         21  HIT %:    99.8832  MISS %:   0.116842   MPKI: 0.00042
PSCL4 LOAD TRANSLATION ACCESS:      17973  HIT:      17952  MISS:         21  HIT %:    99.8832  MISS %:   0.116842   MPKI: 0.00042
PSCL4 PREFETCH  REQUESTED:          0  ISSUED:          0  USEFUL:          0  USELESS:          0
PSCL4 USEFUL LOAD PREFETCHES:          0 PREFETCH ISSUED TO LOWER LEVEL:          0  ACCURACY: -nan
PSCL4 TIMELY PREFETCHES:          0 LATE PREFETCHES: 0 DROPPED PREFETCHES: 0
PSCL4 PREFETCHES SAME FILL-ORIGIN LEVEL: 0 DIFFERENT FILL-ORIGIN LEVEL: 0

PSCL3 TOTAL     ACCESS:      19692  HIT:      19650  MISS:         42  HIT %:    99.7867  MISS %:   0.213285   MPKI: 0.00084
PSCL3 LOAD TRANSLATION ACCESS:      19692  HIT:      19650  MISS:         42  HIT %:    99.7867  MISS %:   0.213285   MPKI: 0.00084
PSCL3 PREFETCH  REQUESTED:          0  ISSUED:          0  USEFUL:          0  USELESS:          0
PSCL3 USEFUL LOAD PREFETCHES:          0 PREFETCH ISSUED TO LOWER LEVEL:          0  ACCURACY: -nan
PSCL3 TIMELY PREFETCHES:          0 LATE PREFETCHES: 0 DROPPED PREFETCHES: 0
PSCL3 PREFETCHES SAME FILL-ORIGIN LEVEL: 0 DIFFERENT FILL-ORIGIN LEVEL: 0

PSCL2 TOTAL     ACCESS:      19698  HIT:      17574  MISS:       2124  HIT %:    89.2172  MISS %:    10.7828   MPKI: 0.04248
PSCL2 LOAD TRANSLATION ACCESS:      19698  HIT:      17574  MISS:       2124  HIT %:    89.2172  MISS %:    10.7828   MPKI: 0.04248
PSCL2 PREFETCH  REQUESTED:          0  ISSUED:          0  USEFUL:          0  USELESS:          0
PSCL2 USEFUL LOAD PREFETCHES:          0 PREFETCH ISSUED TO LOWER LEVEL:          0  ACCURACY: -nan
PSCL2 TIMELY PREFETCHES:          0 LATE PREFETCHES: 0 DROPPED PREFETCHES: 0
PSCL2 PREFETCHES SAME FILL-ORIGIN LEVEL: 0 DIFFERENT FILL-ORIGIN LEVEL: 0

LLC TOTAL     ACCESS:    4648674  HIT:    3345840  MISS:    1302834  HIT %:    71.9741  MISS %:    28.0259   MPKI: 26.0567
LLC LOAD      ACCESS:     545446  HIT:     438600  MISS:     106846  HIT %:    80.4113  MISS %:    19.5887   MPKI: 2.13692
LLC RFO       ACCESS:     961650  HIT:     157725  MISS:     803925  HIT %:    16.4015  MISS %:    83.5985   MPKI: 16.0785
LLC PREFETCH  ACCESS:    2029504  HIT:    1646383  MISS:     383121  HIT %:    81.1224  MISS %:    18.8776   MPKI: 7.66242
LLC WRITEBACK ACCESS:    1102574  HIT:    1100788  MISS:       1786  HIT %:     99.838  MISS %:   0.161985   MPKI: 0.03572
LLC LOAD TRANSLATION ACCESS:       9500  HIT:       2344  MISS:       7156  HIT %:    24.6737  MISS %:    75.3263   MPKI: 0.14312
LLC PREFETCH  REQUESTED:          0  ISSUED:          0  USEFUL:     137400  USELESS:     245447
LLC USEFUL LOAD PREFETCHES:     137400 PREFETCH ISSUED TO LOWER LEVEL:     396057  ACCURACY: 34.692
LLC TIMELY PREFETCHES:     137400 LATE PREFETCHES: 12936 DROPPED PREFETCHES: 0
LLC PREFETCHES SAME FILL-ORIGIN LEVEL: 393115 DIFFERENT FILL-ORIGIN LEVEL: 0
LLC AVERAGE MISS LATENCY: 378.357 cycles
LLC RQ	ACCESS:    1516597	FORWARD:          0	MERGED:          0	TO_CACHE:    1516596
LLC WQ	ACCESS:    1102574	FORWARD:          1	MERGED:          0	TO_CACHE:    1102574
LLC PQ	ACCESS:    2579424	FORWARD:          0	MERGED:       2215	TO_CACHE:    2577209

LLC Dense regions hint to LLC: 0

RAW hits: 898958
Loads Generated: 12438642
Loads sent to L1D: 11539688
Stores Generated: 8859604
Stores sent to L1D: 8859606
Major fault: 0 Minor fault: 15227
Allocated PAGES: 15227
 All Calls: 984214
 Critical Calls: 984214
------------------
Depth Distribution
------------------
depth 0: 0
depth 1: 753169
depth 2: 486231
depth 3: 415207
depth 4: 383717
depth 5: 365452
depth 6: 349422
depth 7: 329209
depth 8: 260751
depth 9: 210693
depth 10: 109718
depth 11: 42225
depth 12: 6121
depth 13: 0
depth 14: 0
depth 15: 0
depth 16: 0
depth 17: 0
depth 18: 0
depth 19: 0
depth 20: 0
depth 21: 0
depth 22: 0
depth 23: 0
depth 24: 0
depth 25: 0
depth 26: 0
depth 27: 0
depth 28: 0
depth 29: 0
Total: 3711915
-----------------------------
-----------------------------
	Captured at Filter
-----------------------------
depth 0: 0
depth 1: 3382
depth 2: 1163
depth 3: 973
depth 4: 833
depth 5: 844
depth 6: 847
depth 7: 883
depth 8: 780
depth 9: 668
depth 10: 413
depth 11: 176
depth 12: 26
depth 13: 0
depth 14: 0
depth 15: 0
depth 16: 0
depth 17: 0
depth 18: 0
depth 19: 0
depth 20: 0
depth 21: 0
depth 22: 0
depth 23: 0
depth 24: 0
depth 25: 0
depth 26: 0
depth 27: 0
depth 28: 0
depth 29: 0
-----------------------------
-----------------------------
		Lost at Page
-----------------------------
depth 0: 0
depth 1: 33243
depth 2: 17510
depth 3: 16795
depth 4: 20511
depth 5: 25366
depth 6: 30811
depth 7: 35687
depth 8: 33582
depth 9: 31535
depth 10: 19225
depth 11: 8436
depth 12: 1395
depth 13: 0
depth 14: 0
depth 15: 0
depth 16: 0
depth 17: 0
depth 18: 0
depth 19: 0
depth 20: 0
depth 21: 0
depth 22: 0
depth 23: 0
depth 24: 0
depth 25: 0
depth 26: 0
depth 27: 0
depth 28: 0
depth 29: 0
-----------------------------
-----------------------------
	Lost due to PQ Size
-----------------------------
733
-----------------------------
ST read accesses: 773845
ST write accesses: 45011
PT read accesses: 22116730
PT write accesses: 1072510
FILTER read accesses: 5634902
FILTER write accesses: 2156852
GHR read accesses: 1790903
GHR write accesses: 227461
GHR counter read accesses: 18118292
GHR counter write accesses: 1261051
ST tag read accesses: 337716694
ST tag write accesses: 22860025

DRAM Statistics
 CHANNEL 0
 RQ ROW_BUFFER_HIT:     434659  ROW_BUFFER_MISS:     866304
 DBUS_CONGESTED:    1563795
 WQ ROW_BUFFER_HIT:     223913  ROW_BUFFER_MISS:     652951  FULL:          0

 AVG_CONGESTED_CYCLE: 14
 All warmup complete: 2
Channel 0 Bank busy for read cycles: 0
Channel 0 Bank busy for write cycles: 0
Channel 0
Rank 0
0banks busy for read cycles: 38827590
0banks busy for write cycles: 43548
1banks busy for read cycles: 16695083
1banks busy for write cycles: 5494062
2banks busy for read cycles: 9381439
2banks busy for write cycles: 2744518
3banks busy for read cycles: 5814793
3banks busy for write cycles: 1796007
4banks busy for read cycles: 2786913
4banks busy for write cycles: 1429378
5banks busy for read cycles: 1767401
5banks busy for write cycles: 1258155
6banks busy for read cycles: 1430632
6banks busy for write cycles: 1286735
7banks busy for read cycles: 2519338
7banks busy for write cycles: 2131808
8banks busy for read cycles: 14986768
8banks busy for write cycles: 17773667

CPU 0 Branch Prediction Accuracy: 96.6462% MPKI: 5.50022 Average ROB Occupancy at Mispredict: 48.5572
Branch types
NOT_BRANCH: 41799589 83.5992%
BRANCH_DIRECT_JUMP: 445390 0.89078%
BRANCH_INDIRECT: 48845 0.09769%
BRANCH_CONDITIONAL: 5871404 11.7428%
BRANCH_DIRECT_CALL: 758108 1.51622%
BRANCH_INDIRECT_CALL: 159112 0.318224%
BRANCH_RETURN: 917210 1.83442%
BRANCH_OTHER: 0 0%

@sumon_overall_L1D         0         0         0         0         0         0
@Sumon_Early_by_class_L1D         0         0         0         0
@Sumon_Late_by_class_L1D         0         0         0         0

@Sumon_Early_by_cycle_L1D         0         0         0         0         0         0         0         0         0         0         0         0
@Sumon_Late_by_cycle_L1D         0         0         0         0         0         0         0         0         0         0         0         0
@Sumon_Early_stream_L1D         0         0         0         0         0         0         0         0         0         0         0         0
@Sumon_Early_CS_L1D         0         0         0         0         0         0         0         0         0         0         0         0
@Sumon_Early_CPLX_L1D         0         0         0         0         0         0         0         0         0         0         0         0
@Sumon_Late_stream_L1D         0         0         0         0         0         0         0         0         0         0         0         0
@Sumon_Late_CS_L1D         0         0         0         0         0         0         0         0         0         0         0         0
@Sumon_Late_CPLX_L1D         0         0         0         0         0         0         0         0         0         0         0         0
@sumon_overall_L2C    186594      3539      2802    189389   3094419   3094578
@Sumon_Early_by_class_L2C         0         0         0         0
@Sumon_Late_by_class_L2C         0         0         0         0

@Sumon_Early_by_cycle_L2C    182848      1184       580       265        26       340        58        27      1005        66       142        53
@Sumon_Late_by_cycle_L2C      1595      1284       550        91        19         0         0         0         0         0         0         0
@Sumon_Early_stream_L2C         0         0         0         0         0         0         0         0         0         0         0         0
@Sumon_Early_CS_L2C         0         0         0         0         0         0         0         0         0         0         0         0
@Sumon_Early_CPLX_L2C         0         0         0         0         0         0         0         0         0         0         0         0
@Sumon_Late_stream_L2C         0         0         0         0         0         0         0         0         0         0         0         0
@Sumon_Late_CS_L2C         0         0         0         0         0         0         0         0         0         0         0         0
@Sumon_Late_CPLX_L2C         0         0         0         0         0         0         0         0         0         0         0         0
DRAM PAGES: 1048576
Allocated PAGES: 15227
