Initialize SIGNATURE TABLE
ST_SET: 1
ST_WAY: 256
ST_TAG_BIT: 16
ST_TAG_MASK: ffff

Initialize PATTERN TABLE
PT_SET: 512
PT_WAY: 4
SIG_DELTA_BIT: 7
C_SIG_BIT: 4
C_DELTA_BIT: 4

Initialize PREFETCH FILTER
FILTER_SET: 1024

*** ChampSim Multicore Out-of-Order Simulator ***

Warmup Instructions: 10000000
Simulation Instructions: 50000000
Number of CPUs: 1
LLC sets: 2048
LLC ways: 16
Off-chip DRAM Size: 4096 MB Channels: 1 Width: 64-bit Data Rate: 1600 MT/s
CPU 0 runs traces/clientserver/server_037.champsimtrace.xz
.xz
CPU 0 Bimodal branch predictor
BTB has LRU replacement policy
ITLB has LRU replacement policy
DTLB has LRU replacement policy
STLB has LRU replacement policy
L1I has LRU replacement policy
L1D has LRU replacement policy
ST_WAYS: 256
PT_SETS: 512
L2C has LRU replacement policy
LLC has LRU replacement policy
Heartbeat CPU 0 instructions: 10000000 cycles: 2751521 heartbeat IPC: 3.63435 cumulative IPC: 3.63435 (Simulation time: 0 hr 12 min 39 sec) 

Warmup complete CPU 0 instructions: 10000004 cycles: 2751522 (Simulation time: 0 hr 12 min 39 sec) 

Heartbeat CPU 0 instructions: 20000001 cycles: 20724255 heartbeat IPC: 0.556398 cumulative IPC: 0.556398 (Simulation time: 0 hr 27 min 55 sec) 
Heartbeat CPU 0 instructions: 30000000 cycles: 38413843 heartbeat IPC: 0.565304 cumulative IPC: 0.560816 (Simulation time: 0 hr 43 min 1 sec) 
Heartbeat CPU 0 instructions: 40000000 cycles: 56343126 heartbeat IPC: 0.557747 cumulative IPC: 0.559789 (Simulation time: 0 hr 58 min 13 sec) 
Heartbeat CPU 0 instructions: 50000000 cycles: 74175864 heartbeat IPC: 0.560766 cumulative IPC: 0.560033 (Simulation time: 1 hr 13 min 1 sec) 
Heartbeat CPU 0 instructions: 60000001 cycles: 92034177 heartbeat IPC: 0.559963 cumulative IPC: 0.560019 (Simulation time: 1 hr 27 min 14 sec) 
Finished CPU 0 instructions: 50000001 cycles: 89282662 cumulative IPC: 0.560019 (Simulation time: 1 hr 27 min 14 sec) 

ChampSim completed all CPUs

Region of Interest Statistics

CPU 0 cumulative IPC: 0.560019 instructions: 50000001 cycles: 89282662
ITLB TOTAL     ACCESS:    8847413  HIT:    8220446  MISS:     626967  HIT %:    92.9136  MISS %:    7.08644   MPKI: 12.5393
ITLB LOAD TRANSLATION ACCESS:    8847413  HIT:    8220446  MISS:     626967  HIT %:    92.9136  MISS %:    7.08644   MPKI: 12.5393
ITLB PREFETCH  REQUESTED:          0  ISSUED:          0  USEFUL:          0  USELESS:          0
ITLB USEFUL LOAD PREFETCHES:          0 PREFETCH ISSUED TO LOWER LEVEL:          0  ACCURACY: -nan
ITLB TIMELY PREFETCHES:          0 LATE PREFETCHES: 0 DROPPED PREFETCHES: 0
ITLB PREFETCHES SAME FILL-ORIGIN LEVEL: 0 DIFFERENT FILL-ORIGIN LEVEL: 0
ITLB AVERAGE MISS LATENCY: 9.04546 cycles
ITLB RQ	ACCESS:   10656821	FORWARD:          0	MERGED:    1615048	TO_CACHE:    9041773

DTLB TOTAL     ACCESS:   10862003  HIT:   10339980  MISS:     522023  HIT %:     95.194  MISS %:    4.80596   MPKI: 10.4405
DTLB LOAD TRANSLATION ACCESS:   10862003  HIT:   10339980  MISS:     522023  HIT %:     95.194  MISS %:    4.80596   MPKI: 10.4405
DTLB PREFETCH  REQUESTED:          0  ISSUED:          0  USEFUL:          0  USELESS:          0
DTLB USEFUL LOAD PREFETCHES:          0 PREFETCH ISSUED TO LOWER LEVEL:          0  ACCURACY: -nan
DTLB TIMELY PREFETCHES:          0 LATE PREFETCHES: 0 DROPPED PREFETCHES: 0
DTLB PREFETCHES SAME FILL-ORIGIN LEVEL: 0 DIFFERENT FILL-ORIGIN LEVEL: 0
DTLB AVERAGE MISS LATENCY: 10.1907 cycles
DTLB RQ	ACCESS:   14438114	FORWARD:          0	MERGED:    3538332	TO_CACHE:   10899782

STLB TOTAL     ACCESS:    1148990  HIT:    1143158  MISS:       5832  HIT %:    99.4924  MISS %:   0.507576   MPKI: 0.11664
STLB LOAD TRANSLATION ACCESS:    1148990  HIT:    1143158  MISS:       5832  HIT %:    99.4924  MISS %:   0.507576   MPKI: 0.11664
STLB PREFETCH  REQUESTED:          0  ISSUED:          0  USEFUL:          0  USELESS:          0
STLB USEFUL LOAD PREFETCHES:          0 PREFETCH ISSUED TO LOWER LEVEL:          0  ACCURACY: -nan
STLB TIMELY PREFETCHES:          0 LATE PREFETCHES: 0 DROPPED PREFETCHES: 0
STLB PREFETCHES SAME FILL-ORIGIN LEVEL: 0 DIFFERENT FILL-ORIGIN LEVEL: 0
STLB AVERAGE MISS LATENCY: 108.903 cycles
STLB RQ	ACCESS:    1148990	FORWARD:          0	MERGED:          0	TO_CACHE:    1148990

STLB Hit, L1D data hit: 0
STLB Hit, L2C data hit: 0
STLB Hit, LLC data hit: 0
STLB Hit, LLC data miss: 0
STLB STLB hints to L2: 0
L1D TOTAL     ACCESS:   14334320  HIT:   13896696  MISS:     437624  HIT %:     96.947  MISS %:    3.05298   MPKI: 8.75248
L1D LOAD      ACCESS:    8074899  HIT:    7699609  MISS:     375290  HIT %:    95.3524  MISS %:    4.64761   MPKI: 7.5058
L1D RFO       ACCESS:    6259421  HIT:    6197087  MISS:      62334  HIT %:    99.0042  MISS %:   0.995843   MPKI: 1.24668
L1D PREFETCH  REQUESTED:          0  ISSUED:          0  USEFUL:          0  USELESS:          0
L1D USEFUL LOAD PREFETCHES:          0 PREFETCH ISSUED TO LOWER LEVEL:          0  ACCURACY: -nan
L1D TIMELY PREFETCHES:          0 LATE PREFETCHES: 0 DROPPED PREFETCHES: 0
L1D PREFETCHES SAME FILL-ORIGIN LEVEL: 0 DIFFERENT FILL-ORIGIN LEVEL: 0
L1D AVERAGE MISS LATENCY: 32.279 cycles
L1D RQ	ACCESS:   11773195	FORWARD:          0	MERGED:    3507913	TO_CACHE:    8095475
L1D WQ	ACCESS:    6389167	FORWARD:     169807	MERGED:      46528	TO_CACHE:    6342639

L1D UNIQUE REGIONS ACCESSED: 0
L1D REGIONS CONFLICTS: 0
L1D Cross Page Prefetch Requests: 0
L1D Same Page Prefetch Requests: 0
L1D ROI Sum of L1D PQ occupancy: 0
L1D PREFETCHES PUSHED FROM L2C: 0
L1I TOTAL     ACCESS:    9639305  HIT:    5642797  MISS:    3996508  HIT %:    58.5395  MISS %:    41.4605   MPKI: 79.9302
L1I LOAD      ACCESS:    9639305  HIT:    5642797  MISS:    3996508  HIT %:    58.5395  MISS %:    41.4605   MPKI: 79.9302
L1I PREFETCH  REQUESTED:          0  ISSUED:          0  USEFUL:          0  USELESS:          0
L1I USEFUL LOAD PREFETCHES:          0 PREFETCH ISSUED TO LOWER LEVEL:          0  ACCURACY: -nan
L1I TIMELY PREFETCHES:          0 LATE PREFETCHES: 0 DROPPED PREFETCHES: 0
L1I PREFETCHES SAME FILL-ORIGIN LEVEL: 0 DIFFERENT FILL-ORIGIN LEVEL: 0
L1I AVERAGE MISS LATENCY: 14.1517 cycles
L1I RQ	ACCESS:   14761150	FORWARD:          0	MERGED:    4104329	TO_CACHE:   10656821

BTB TOTAL     ACCESS:    5416946  HIT:    4897168  MISS:     519778  HIT %:    90.4046  MISS %:    9.59541   MPKI: 10.3956
BTB BRANCH_DIRECT_JUMP	ACCESS:     540054  HIT:     527588  MISS:      12466
BTB BRANCH_INDIRECT	ACCESS:      59163  HIT:      59065  MISS:         98
BTB BRANCH_CONDITIONAL	ACCESS:    2342991  HIT:    2302512  MISS:      40479
BTB BRANCH_DIRECT_CALL	ACCESS:    1004108  HIT:     967236  MISS:      36872
BTB BRANCH_INDIRECT_CALL	ACCESS:     233270  HIT:     188049  MISS:      45221
BTB BRANCH_RETURN	ACCESS:    1237360  HIT:     852718  MISS:     384642
BTB BRANCH_OTHER ACCESS:          0  HIT:          0  MISS:          0

L2C TOTAL     ACCESS:    4921578  HIT:    4755827  MISS:     165751  HIT %:    96.6322  MISS %:    3.36784   MPKI: 3.31502
L2C LOAD      ACCESS:    4371798  HIT:    4247980  MISS:     123818  HIT %:    97.1678  MISS %:     2.8322   MPKI: 2.47636
L2C DATA LOAD MPKI: 2.37168
L2C INSTRUCTION LOAD MPKI: 0.10468
L2C RFO       ACCESS:      62334  HIT:      29741  MISS:      32593  HIT %:    47.7123  MISS %:    52.2877   MPKI: 0.65186
L2C PREFETCH  ACCESS:     248400  HIT:     244105  MISS:       4295  HIT %:    98.2709  MISS %:    1.72907   MPKI: 0.0859
L2C DATA PREFETCH MPKI: 0.0859
L2C INSTRUCTION PREFETCH MPKI: 0
L2C WRITEBACK ACCESS:     230964  HIT:     230535  MISS:        429  HIT %:    99.8143  MISS %:   0.185743   MPKI: 0.00858
L2C LOAD TRANSLATION ACCESS:       8082  HIT:       3466  MISS:       4616  HIT %:    42.8854  MISS %:    57.1146   MPKI: 0.09232
L2C PREFETCH  REQUESTED:     448271  ISSUED:     447832  USEFUL:       3874  USELESS:        403
L2C USEFUL LOAD PREFETCHES:       3874 PREFETCH ISSUED TO LOWER LEVEL:     177302  ACCURACY: 2.18497
L2C TIMELY PREFETCHES:       3874 LATE PREFETCHES: 703 DROPPED PREFETCHES: 0
L2C PREFETCHES SAME FILL-ORIGIN LEVEL: 4998 DIFFERENT FILL-ORIGIN LEVEL: 172304
L2C AVERAGE MISS LATENCY: 48.837 cycles
L2C RQ	ACCESS:    4442215	FORWARD:          0	MERGED:          0	TO_CACHE:    4442214
L2C WQ	ACCESS:     230964	FORWARD:          1	MERGED:          0	TO_CACHE:     230964
L2C PQ	ACCESS:     447832	FORWARD:          0	MERGED:      16944	TO_CACHE:     430888

L2C Instructions Evicting Data 4771
L2C Translations Evicting Data 4219
L2C Data Evicting Data 146405
L2C Instructions Evicting Instructions 284
L2C Translations Evicting Instructions 179
L2C Data Evicting Instructions 4747
L2C Instructions Evicting Translations 176
L2C Translations Evicting Translations 200
L2C Data Evicting Translations 4213
L2C Dense regions hint from L2: 0
PSCL5 TOTAL     ACCESS:       5832  HIT:       5832  MISS:          0  HIT %:        100  MISS %:          0   MPKI: 0
PSCL5 LOAD TRANSLATION ACCESS:       5832  HIT:       5832  MISS:          0  HIT %:        100  MISS %:          0   MPKI: 0
PSCL5 PREFETCH  REQUESTED:          0  ISSUED:          0  USEFUL:          0  USELESS:          0
PSCL5 USEFUL LOAD PREFETCHES:          0 PREFETCH ISSUED TO LOWER LEVEL:          0  ACCURACY: -nan
PSCL5 TIMELY PREFETCHES:          0 LATE PREFETCHES: 0 DROPPED PREFETCHES: 0
PSCL5 PREFETCHES SAME FILL-ORIGIN LEVEL: 0 DIFFERENT FILL-ORIGIN LEVEL: 0

PSCL4 TOTAL     ACCESS:       5832  HIT:       5832  MISS:          0  HIT %:        100  MISS %:          0   MPKI: 0
PSCL4 LOAD TRANSLATION ACCESS:       5832  HIT:       5832  MISS:          0  HIT %:        100  MISS %:          0   MPKI: 0
PSCL4 PREFETCH  REQUESTED:          0  ISSUED:          0  USEFUL:          0  USELESS:          0
PSCL4 USEFUL LOAD PREFETCHES:          0 PREFETCH ISSUED TO LOWER LEVEL:          0  ACCURACY: -nan
PSCL4 TIMELY PREFETCHES:          0 LATE PREFETCHES: 0 DROPPED PREFETCHES: 0
PSCL4 PREFETCHES SAME FILL-ORIGIN LEVEL: 0 DIFFERENT FILL-ORIGIN LEVEL: 0

PSCL3 TOTAL     ACCESS:       5808  HIT:       5778  MISS:         30  HIT %:    99.4835  MISS %:   0.516529   MPKI: 0.0006
PSCL3 LOAD TRANSLATION ACCESS:       5808  HIT:       5778  MISS:         30  HIT %:    99.4835  MISS %:   0.516529   MPKI: 0.0006
PSCL3 PREFETCH  REQUESTED:          0  ISSUED:          0  USEFUL:          0  USELESS:          0
PSCL3 USEFUL LOAD PREFETCHES:          0 PREFETCH ISSUED TO LOWER LEVEL:          0  ACCURACY: -nan
PSCL3 TIMELY PREFETCHES:          0 LATE PREFETCHES: 0 DROPPED PREFETCHES: 0
PSCL3 PREFETCHES SAME FILL-ORIGIN LEVEL: 0 DIFFERENT FILL-ORIGIN LEVEL: 0

PSCL2 TOTAL     ACCESS:       5832  HIT:       3585  MISS:       2247  HIT %:    61.4712  MISS %:    38.5288   MPKI: 0.04494
PSCL2 LOAD TRANSLATION ACCESS:       5832  HIT:       3585  MISS:       2247  HIT %:    61.4712  MISS %:    38.5288   MPKI: 0.04494
PSCL2 PREFETCH  REQUESTED:          0  ISSUED:          0  USEFUL:          0  USELESS:          0
PSCL2 USEFUL LOAD PREFETCHES:          0 PREFETCH ISSUED TO LOWER LEVEL:          0  ACCURACY: -nan
PSCL2 TIMELY PREFETCHES:          0 LATE PREFETCHES: 0 DROPPED PREFETCHES: 0
PSCL2 PREFETCHES SAME FILL-ORIGIN LEVEL: 0 DIFFERENT FILL-ORIGIN LEVEL: 0

LLC TOTAL     ACCESS:     430297  HIT:     396758  MISS:      33539  HIT %:    92.2056  MISS %:    7.79438   MPKI: 0.67078
LLC LOAD      ACCESS:     123115  HIT:     108924  MISS:      14191  HIT %:    88.4734  MISS %:    11.5266   MPKI: 0.28382
LLC RFO       ACCESS:      32593  HIT:      27378  MISS:       5215  HIT %:    83.9996  MISS %:    16.0004   MPKI: 0.1043
LLC PREFETCH  ACCESS:     172347  HIT:     159028  MISS:      13319  HIT %:     92.272  MISS %:    7.72801   MPKI: 0.26638
LLC WRITEBACK ACCESS:      97626  HIT:      97410  MISS:        216  HIT %:    99.7787  MISS %:   0.221253   MPKI: 0.00432
LLC LOAD TRANSLATION ACCESS:       4616  HIT:       4018  MISS:        598  HIT %:    87.0451  MISS %:    12.9549   MPKI: 0.01196
LLC PREFETCH  REQUESTED:          0  ISSUED:          0  USEFUL:       2537  USELESS:       5587
LLC USEFUL LOAD PREFETCHES:       2537 PREFETCH ISSUED TO LOWER LEVEL:      13718  ACCURACY: 18.4939
LLC TIMELY PREFETCHES:       2537 LATE PREFETCHES: 399 DROPPED PREFETCHES: 0
LLC PREFETCHES SAME FILL-ORIGIN LEVEL: 13634 DIFFERENT FILL-ORIGIN LEVEL: 0
LLC AVERAGE MISS LATENCY: 159.193 cycles
LLC RQ	ACCESS:     160324	FORWARD:          0	MERGED:          0	TO_CACHE:     160324
LLC WQ	ACCESS:      97626	FORWARD:          0	MERGED:          0	TO_CACHE:      97626
LLC PQ	ACCESS:     177302	FORWARD:          0	MERGED:       1306	TO_CACHE:     175996

LLC Dense regions hint to LLC: 0

RAW hits: 713344
Loads Generated: 12486539
Loads sent to L1D: 11773195
Stores Generated: 6389161
Stores sent to L1D: 6389167
Major fault: 0 Minor fault: 4736
Allocated PAGES: 4736
 All Calls: 451170
 Critical Calls: 451170
------------------
Depth Distribution
------------------
depth 0: 0
depth 1: 348150
depth 2: 129719
depth 3: 43256
depth 4: 11016
depth 5: 1904
depth 6: 741
depth 7: 151
depth 8: 89
depth 9: 82
depth 10: 71
depth 11: 45
depth 12: 15
depth 13: 5
depth 14: 0
depth 15: 0
depth 16: 0
depth 17: 0
depth 18: 0
depth 19: 0
depth 20: 0
depth 21: 0
depth 22: 0
depth 23: 0
depth 24: 0
depth 25: 0
depth 26: 0
depth 27: 0
depth 28: 0
depth 29: 0
Total: 535244
-----------------------------
-----------------------------
	Captured at Filter
-----------------------------
depth 0: 0
depth 1: 3617
depth 2: 1518
depth 3: 591
depth 4: 167
depth 5: 11
depth 6: 3
depth 7: 1
depth 8: 1
depth 9: 1
depth 10: 0
depth 11: 1
depth 12: 1
depth 13: 0
depth 14: 0
depth 15: 0
depth 16: 0
depth 17: 0
depth 18: 0
depth 19: 0
depth 20: 0
depth 21: 0
depth 22: 0
depth 23: 0
depth 24: 0
depth 25: 0
depth 26: 0
depth 27: 0
depth 28: 0
depth 29: 0
-----------------------------
-----------------------------
		Lost at Page
-----------------------------
depth 0: 0
depth 1: 33838
depth 2: 12573
depth 3: 2370
depth 4: 462
depth 5: 95
depth 6: 66
depth 7: 15
depth 8: 11
depth 9: 10
depth 10: 10
depth 11: 4
depth 12: 2
depth 13: 1
depth 14: 0
depth 15: 0
depth 16: 0
depth 17: 0
depth 18: 0
depth 19: 0
depth 20: 0
depth 21: 0
depth 22: 0
depth 23: 0
depth 24: 0
depth 25: 0
depth 26: 0
depth 27: 0
depth 28: 0
depth 29: 0
-----------------------------
-----------------------------
	Lost due to PQ Size
-----------------------------
501
-----------------------------
ST read accesses: 338161
ST write accesses: 37128
PT read accesses: 4670972
PT write accesses: 417854
FILTER read accesses: 994480
FILTER write accesses: 200380
GHR read accesses: 591085
GHR write accesses: 40726
GHR counter read accesses: 4055890
GHR counter write accesses: 406815
ST tag read accesses: 160934481
ST tag write accesses: 17843790

DRAM Statistics
 CHANNEL 0
 RQ ROW_BUFFER_HIT:       8494  ROW_BUFFER_MISS:      24829
 DBUS_CONGESTED:       7575
 WQ ROW_BUFFER_HIT:        449  ROW_BUFFER_MISS:       4837  FULL:          0

 AVG_CONGESTED_CYCLE: 10
 All warmup complete: 2
Channel 0 Bank busy for read cycles: 0
Channel 0 Bank busy for write cycles: 0
Channel 0
Rank 0
0banks busy for read cycles: 85556358
0banks busy for write cycles: 4208
1banks busy for read cycles: 2139701
1banks busy for write cycles: 648349
2banks busy for read cycles: 540943
2banks busy for write cycles: 84275
3banks busy for read cycles: 182157
3banks busy for write cycles: 11137
4banks busy for read cycles: 64213
4banks busy for write cycles: 5159
5banks busy for read cycles: 25620
5banks busy for write cycles: 3463
6banks busy for read cycles: 11569
6banks busy for write cycles: 1175
7banks busy for read cycles: 2233
7banks busy for write cycles: 642
8banks busy for read cycles: 189
8banks busy for write cycles: 1272

CPU 0 Branch Prediction Accuracy: 96.3938% MPKI: 6.5053 Average ROB Occupancy at Mispredict: 21.5483
Branch types
NOT_BRANCH: 40980217 81.9604%
BRANCH_DIRECT_JUMP: 540054 1.08011%
BRANCH_INDIRECT: 59163 0.118326%
BRANCH_CONDITIONAL: 5945671 11.8913%
BRANCH_DIRECT_CALL: 1004108 2.00822%
BRANCH_INDIRECT_CALL: 233270 0.46654%
BRANCH_RETURN: 1237360 2.47472%
BRANCH_OTHER: 0 0%

@sumon_overall_L1D         0         0         0         0         0         0
@Sumon_Early_by_class_L1D         0         0         0         0
@Sumon_Late_by_class_L1D         0         0         0         0

@Sumon_Early_by_cycle_L1D         0         0         0         0         0         0         0         0         0         0         0         0
@Sumon_Late_by_cycle_L1D         0         0         0         0         0         0         0         0         0         0         0         0
@Sumon_Early_stream_L1D         0         0         0         0         0         0         0         0         0         0         0         0
@Sumon_Early_CS_L1D         0         0         0         0         0         0         0         0         0         0         0         0
@Sumon_Early_CPLX_L1D         0         0         0         0         0         0         0         0         0         0         0         0
@Sumon_Late_stream_L1D         0         0         0         0         0         0         0         0         0         0         0         0
@Sumon_Late_CS_L1D         0         0         0         0         0         0         0         0         0         0         0         0
@Sumon_Late_CPLX_L1D         0         0         0         0         0         0         0         0         0         0         0         0
@sumon_overall_L2C      3874       703       403      4295    447832    448271
@Sumon_Early_by_class_L2C         0         0         0         0
@Sumon_Late_by_class_L2C         0         0         0         0

@Sumon_Early_by_cycle_L2C      1599       310       972         2       267       518         5       100        28        25         5        43
@Sumon_Late_by_cycle_L2C       700         1         2         0         0         0         0         0         0         0         0         0
@Sumon_Early_stream_L2C         0         0         0         0         0         0         0         0         0         0         0         0
@Sumon_Early_CS_L2C         0         0         0         0         0         0         0         0         0         0         0         0
@Sumon_Early_CPLX_L2C         0         0         0         0         0         0         0         0         0         0         0         0
@Sumon_Late_stream_L2C         0         0         0         0         0         0         0         0         0         0         0         0
@Sumon_Late_CS_L2C         0         0         0         0         0         0         0         0         0         0         0         0
@Sumon_Late_CPLX_L2C         0         0         0         0         0         0         0         0         0         0         0         0
DRAM PAGES: 1048576
Allocated PAGES: 4736
