
*** ChampSim Multicore Out-of-Order Simulator ***

Warmup Instructions: 10000000
Simulation Instructions: 50000000
Number of CPUs: 1
LLC sets: 2048
LLC ways: 16
Off-chip DRAM Size: 4096 MB Channels: 1 Width: 64-bit Data Rate: 6400 MT/s
CPU 0 runs traces/clientserver/client_001.champsimtrace.xz
.xz
CPU 0 Bimodal branch predictor
BTB has LRU replacement policy
ITLB has LRU replacement policy
DTLB has LRU replacement policy
STLB has LRU replacement policy
L1I has LRU replacement policy
IP Table Entries: 256
L1D has LRU replacement policy
IP_Table L2 entries: 256
L2C has LRU replacement policy
Initialize SHIP state
Assign rand_sets[0]: 454  LLC: 2048
rand_sets[0]: 454
Assign rand_sets[1]: 1662  LLC: 2048
rand_sets[1]: 1662
Assign rand_sets[2]: 1921  LLC: 2048
rand_sets[2]: 1921
Assign rand_sets[3]: 1131  LLC: 2048
rand_sets[3]: 1131
Assign rand_sets[4]: 331  LLC: 2048
rand_sets[4]: 331
Assign rand_sets[5]: 1531  LLC: 2048
rand_sets[5]: 1531
Assign rand_sets[6]: 482  LLC: 2048
rand_sets[6]: 482
Assign rand_sets[7]: 1275  LLC: 2048
rand_sets[7]: 1275
Assign rand_sets[8]: 1876  LLC: 2048
rand_sets[8]: 1876
Assign rand_sets[9]: 2038  LLC: 2048
rand_sets[9]: 2038
Assign rand_sets[10]: 701  LLC: 2048
rand_sets[10]: 701
Assign rand_sets[11]: 479  LLC: 2048
rand_sets[11]: 479
Assign rand_sets[12]: 892  LLC: 2048
rand_sets[12]: 892
Assign rand_sets[13]: 1820  LLC: 2048
rand_sets[13]: 1820
Assign rand_sets[14]: 1505  LLC: 2048
rand_sets[14]: 1505
Assign rand_sets[15]: 1159  LLC: 2048
rand_sets[15]: 1159
Assign rand_sets[16]: 513  LLC: 2048
rand_sets[16]: 513
Assign rand_sets[17]: 703  LLC: 2048
rand_sets[17]: 703
Assign rand_sets[18]: 561  LLC: 2048
rand_sets[18]: 561
Assign rand_sets[19]: 990  LLC: 2048
rand_sets[19]: 990
Assign rand_sets[20]: 342  LLC: 2048
rand_sets[20]: 342
Assign rand_sets[21]: 882  LLC: 2048
rand_sets[21]: 882
Assign rand_sets[22]: 15  LLC: 2048
rand_sets[22]: 15
Assign rand_sets[23]: 71  LLC: 2048
rand_sets[23]: 71
Assign rand_sets[24]: 1127  LLC: 2048
rand_sets[24]: 1127
Assign rand_sets[25]: 1382  LLC: 2048
rand_sets[25]: 1382
Assign rand_sets[26]: 647  LLC: 2048
rand_sets[26]: 647
Assign rand_sets[27]: 857  LLC: 2048
rand_sets[27]: 857
Assign rand_sets[28]: 1450  LLC: 2048
rand_sets[28]: 1450
Assign rand_sets[29]: 1160  LLC: 2048
rand_sets[29]: 1160
Assign rand_sets[30]: 1852  LLC: 2048
rand_sets[30]: 1852
Assign rand_sets[31]: 1881  LLC: 2048
rand_sets[31]: 1881
Assign rand_sets[32]: 1770  LLC: 2048
rand_sets[32]: 1770
Assign rand_sets[33]: 1622  LLC: 2048
rand_sets[33]: 1622
Assign rand_sets[34]: 275  LLC: 2048
rand_sets[34]: 275
Assign rand_sets[35]: 635  LLC: 2048
rand_sets[35]: 635
Assign rand_sets[36]: 466  LLC: 2048
rand_sets[36]: 466
Assign rand_sets[37]: 1413  LLC: 2048
rand_sets[37]: 1413
Assign rand_sets[38]: 417  LLC: 2048
rand_sets[38]: 417
Assign rand_sets[39]: 472  LLC: 2048
rand_sets[39]: 472
Assign rand_sets[40]: 1340  LLC: 2048
rand_sets[40]: 1340
Assign rand_sets[41]: 852  LLC: 2048
rand_sets[41]: 852
Assign rand_sets[42]: 1365  LLC: 2048
rand_sets[42]: 1365
Assign rand_sets[43]: 47  LLC: 2048
rand_sets[43]: 47
Assign rand_sets[44]: 823  LLC: 2048
rand_sets[44]: 823
Assign rand_sets[45]: 686  LLC: 2048
rand_sets[45]: 686
Assign rand_sets[46]: 1637  LLC: 2048
rand_sets[46]: 1637
Assign rand_sets[47]: 1115  LLC: 2048
rand_sets[47]: 1115
Assign rand_sets[48]: 986  LLC: 2048
rand_sets[48]: 986
Assign rand_sets[49]: 258  LLC: 2048
rand_sets[49]: 258
Assign rand_sets[50]: 633  LLC: 2048
rand_sets[50]: 633
Assign rand_sets[51]: 920  LLC: 2048
rand_sets[51]: 920
Assign rand_sets[52]: 204  LLC: 2048
rand_sets[52]: 204
Assign rand_sets[53]: 227  LLC: 2048
rand_sets[53]: 227
Assign rand_sets[54]: 1818  LLC: 2048
rand_sets[54]: 1818
Assign rand_sets[55]: 886  LLC: 2048
rand_sets[55]: 886
Assign rand_sets[56]: 1422  LLC: 2048
rand_sets[56]: 1422
Assign rand_sets[57]: 607  LLC: 2048
rand_sets[57]: 607
Assign rand_sets[58]: 217  LLC: 2048
rand_sets[58]: 217
Assign rand_sets[59]: 1945  LLC: 2048
rand_sets[59]: 1945
Assign rand_sets[60]: 143  LLC: 2048
rand_sets[60]: 143
Assign rand_sets[61]: 1311  LLC: 2048
rand_sets[61]: 1311
Assign rand_sets[62]: 319  LLC: 2048
rand_sets[62]: 319
Assign rand_sets[63]: 1846  LLC: 2048
rand_sets[63]: 1846
Assign rand_sets[64]: 238  LLC: 2048
rand_sets[64]: 238
Assign rand_sets[65]: 67  LLC: 2048
rand_sets[65]: 67
Assign rand_sets[66]: 1912  LLC: 2048
rand_sets[66]: 1912
Assign rand_sets[67]: 1613  LLC: 2048
rand_sets[67]: 1613
Assign rand_sets[68]: 1293  LLC: 2048
rand_sets[68]: 1293
Assign rand_sets[69]: 1018  LLC: 2048
rand_sets[69]: 1018
Assign rand_sets[70]: 1982  LLC: 2048
rand_sets[70]: 1982
Assign rand_sets[71]: 1702  LLC: 2048
rand_sets[71]: 1702
Assign rand_sets[72]: 1498  LLC: 2048
rand_sets[72]: 1498
Assign rand_sets[73]: 228  LLC: 2048
rand_sets[73]: 228
Assign rand_sets[74]: 1414  LLC: 2048
rand_sets[74]: 1414
Assign rand_sets[75]: 1166  LLC: 2048
rand_sets[75]: 1166
Assign rand_sets[76]: 732  LLC: 2048
rand_sets[76]: 732
Assign rand_sets[77]: 297  LLC: 2048
rand_sets[77]: 297
Assign rand_sets[78]: 1133  LLC: 2048
rand_sets[78]: 1133
Assign rand_sets[79]: 846  LLC: 2048
rand_sets[79]: 846
Assign rand_sets[80]: 767  LLC: 2048
rand_sets[80]: 767
Assign rand_sets[81]: 1878  LLC: 2048
rand_sets[81]: 1878
Assign rand_sets[82]: 993  LLC: 2048
rand_sets[82]: 993
Assign rand_sets[83]: 1392  LLC: 2048
rand_sets[83]: 1392
Assign rand_sets[84]: 1568  LLC: 2048
rand_sets[84]: 1568
Assign rand_sets[85]: 1787  LLC: 2048
rand_sets[85]: 1787
Assign rand_sets[86]: 399  LLC: 2048
rand_sets[86]: 399
Assign rand_sets[87]: 1201  LLC: 2048
rand_sets[87]: 1201
Assign rand_sets[88]: 856  LLC: 2048
rand_sets[88]: 856
Assign rand_sets[89]: 773  LLC: 2048
rand_sets[89]: 773
Assign rand_sets[90]: 1680  LLC: 2048
rand_sets[90]: 1680
Assign rand_sets[91]: 1477  LLC: 2048
rand_sets[91]: 1477
Assign rand_sets[92]: 9  LLC: 2048
rand_sets[92]: 9
Assign rand_sets[93]: 1500  LLC: 2048
rand_sets[93]: 1500
Assign rand_sets[94]: 851  LLC: 2048
rand_sets[94]: 851
Assign rand_sets[95]: 973  LLC: 2048
rand_sets[95]: 973
Assign rand_sets[96]: 938  LLC: 2048
rand_sets[96]: 938
Assign rand_sets[97]: 1851  LLC: 2048
rand_sets[97]: 1851
Assign rand_sets[98]: 1608  LLC: 2048
rand_sets[98]: 1608
Assign rand_sets[99]: 1945  LLC: 2048
Assign rand_sets[99]: 1106  LLC: 2048
rand_sets[99]: 1106
Assign rand_sets[100]: 979  LLC: 2048
rand_sets[100]: 979
Assign rand_sets[101]: 338  LLC: 2048
rand_sets[101]: 338
Assign rand_sets[102]: 1693  LLC: 2048
rand_sets[102]: 1693
Assign rand_sets[103]: 6  LLC: 2048
rand_sets[103]: 6
Assign rand_sets[104]: 671  LLC: 2048
rand_sets[104]: 671
Assign rand_sets[105]: 490  LLC: 2048
rand_sets[105]: 490
Assign rand_sets[106]: 1461  LLC: 2048
rand_sets[106]: 1461
Assign rand_sets[107]: 1730  LLC: 2048
rand_sets[107]: 1730
Assign rand_sets[108]: 1030  LLC: 2048
rand_sets[108]: 1030
Assign rand_sets[109]: 19  LLC: 2048
rand_sets[109]: 19
Assign rand_sets[110]: 920  LLC: 2048
Assign rand_sets[110]: 329  LLC: 2048
rand_sets[110]: 329
Assign rand_sets[111]: 1714  LLC: 2048
rand_sets[111]: 1714
Assign rand_sets[112]: 1  LLC: 2048
rand_sets[112]: 1
Assign rand_sets[113]: 1822  LLC: 2048
rand_sets[113]: 1822
Assign rand_sets[114]: 172  LLC: 2048
rand_sets[114]: 172
Assign rand_sets[115]: 1586  LLC: 2048
rand_sets[115]: 1586
Assign rand_sets[116]: 648  LLC: 2048
rand_sets[116]: 648
Assign rand_sets[117]: 1329  LLC: 2048
rand_sets[117]: 1329
Assign rand_sets[118]: 668  LLC: 2048
rand_sets[118]: 668
Assign rand_sets[119]: 1874  LLC: 2048
rand_sets[119]: 1874
Assign rand_sets[120]: 70  LLC: 2048
rand_sets[120]: 70
Assign rand_sets[121]: 661  LLC: 2048
rand_sets[121]: 661
Assign rand_sets[122]: 1649  LLC: 2048
rand_sets[122]: 1649
Assign rand_sets[123]: 1590  LLC: 2048
rand_sets[123]: 1590
Assign rand_sets[124]: 911  LLC: 2048
rand_sets[124]: 911
Assign rand_sets[125]: 1367  LLC: 2048
rand_sets[125]: 1367
Assign rand_sets[126]: 1782  LLC: 2048
rand_sets[126]: 1782
Assign rand_sets[127]: 569  LLC: 2048
rand_sets[127]: 569
Assign rand_sets[128]: 1309  LLC: 2048
rand_sets[128]: 1309
Assign rand_sets[129]: 534  LLC: 2048
rand_sets[129]: 534
Assign rand_sets[130]: 1274  LLC: 2048
rand_sets[130]: 1274
Assign rand_sets[131]: 904  LLC: 2048
rand_sets[131]: 904
Assign rand_sets[132]: 1908  LLC: 2048
rand_sets[132]: 1908
Assign rand_sets[133]: 245  LLC: 2048
rand_sets[133]: 245
Assign rand_sets[134]: 1688  LLC: 2048
rand_sets[134]: 1688
Assign rand_sets[135]: 1660  LLC: 2048
rand_sets[135]: 1660
Assign rand_sets[136]: 1303  LLC: 2048
rand_sets[136]: 1303
Assign rand_sets[137]: 1628  LLC: 2048
rand_sets[137]: 1628
Assign rand_sets[138]: 1857  LLC: 2048
rand_sets[138]: 1857
Assign rand_sets[139]: 187  LLC: 2048
rand_sets[139]: 187
Assign rand_sets[140]: 1389  LLC: 2048
rand_sets[140]: 1389
Assign rand_sets[141]: 881  LLC: 2048
rand_sets[141]: 881
Assign rand_sets[142]: 1166  LLC: 2048
Assign rand_sets[142]: 1039  LLC: 2048
rand_sets[142]: 1039
Assign rand_sets[143]: 1136  LLC: 2048
rand_sets[143]: 1136
Assign rand_sets[144]: 601  LLC: 2048
rand_sets[144]: 601
Assign rand_sets[145]: 967  LLC: 2048
rand_sets[145]: 967
Assign rand_sets[146]: 769  LLC: 2048
rand_sets[146]: 769
Assign rand_sets[147]: 283  LLC: 2048
rand_sets[147]: 283
Assign rand_sets[148]: 559  LLC: 2048
rand_sets[148]: 559
Assign rand_sets[149]: 1075  LLC: 2048
rand_sets[149]: 1075
Assign rand_sets[150]: 829  LLC: 2048
rand_sets[150]: 829
Assign rand_sets[151]: 1681  LLC: 2048
rand_sets[151]: 1681
Assign rand_sets[152]: 1728  LLC: 2048
rand_sets[152]: 1728
Assign rand_sets[153]: 541  LLC: 2048
rand_sets[153]: 541
Assign rand_sets[154]: 421  LLC: 2048
rand_sets[154]: 421
Assign rand_sets[155]: 1037  LLC: 2048
rand_sets[155]: 1037
Assign rand_sets[156]: 13  LLC: 2048
rand_sets[156]: 13
Assign rand_sets[157]: 1707  LLC: 2048
rand_sets[157]: 1707
Assign rand_sets[158]: 1075  LLC: 2048
Assign rand_sets[158]: 1933  LLC: 2048
rand_sets[158]: 1933
Assign rand_sets[159]: 1406  LLC: 2048
rand_sets[159]: 1406
Assign rand_sets[160]: 94  LLC: 2048
rand_sets[160]: 94
Assign rand_sets[161]: 1423  LLC: 2048
rand_sets[161]: 1423
Assign rand_sets[162]: 1854  LLC: 2048
rand_sets[162]: 1854
Assign rand_sets[163]: 230  LLC: 2048
rand_sets[163]: 230
Assign rand_sets[164]: 104  LLC: 2048
rand_sets[164]: 104
Assign rand_sets[165]: 1652  LLC: 2048
rand_sets[165]: 1652
Assign rand_sets[166]: 1446  LLC: 2048
rand_sets[166]: 1446
Assign rand_sets[167]: 1338  LLC: 2048
rand_sets[167]: 1338
Assign rand_sets[168]: 177  LLC: 2048
rand_sets[168]: 177
Assign rand_sets[169]: 195  LLC: 2048
rand_sets[169]: 195
Assign rand_sets[170]: 1171  LLC: 2048
rand_sets[170]: 1171
Assign rand_sets[171]: 1297  LLC: 2048
rand_sets[171]: 1297
Assign rand_sets[172]: 1704  LLC: 2048
rand_sets[172]: 1704
Assign rand_sets[173]: 100  LLC: 2048
rand_sets[173]: 100
Assign rand_sets[174]: 711  LLC: 2048
rand_sets[174]: 711
Assign rand_sets[175]: 1243  LLC: 2048
rand_sets[175]: 1243
Assign rand_sets[176]: 1738  LLC: 2048
rand_sets[176]: 1738
Assign rand_sets[177]: 1504  LLC: 2048
rand_sets[177]: 1504
Assign rand_sets[178]: 96  LLC: 2048
rand_sets[178]: 96
Assign rand_sets[179]: 1249  LLC: 2048
rand_sets[179]: 1249
Assign rand_sets[180]: 1267  LLC: 2048
rand_sets[180]: 1267
Assign rand_sets[181]: 1727  LLC: 2048
rand_sets[181]: 1727
Assign rand_sets[182]: 1545  LLC: 2048
rand_sets[182]: 1545
Assign rand_sets[183]: 1792  LLC: 2048
rand_sets[183]: 1792
Assign rand_sets[184]: 1383  LLC: 2048
rand_sets[184]: 1383
Assign rand_sets[185]: 1954  LLC: 2048
rand_sets[185]: 1954
Assign rand_sets[186]: 739  LLC: 2048
rand_sets[186]: 739
Assign rand_sets[187]: 1061  LLC: 2048
rand_sets[187]: 1061
Assign rand_sets[188]: 672  LLC: 2048
rand_sets[188]: 672
Assign rand_sets[189]: 1057  LLC: 2048
rand_sets[189]: 1057
Assign rand_sets[190]: 1329  LLC: 2048
Assign rand_sets[190]: 1415  LLC: 2048
rand_sets[190]: 1415
Assign rand_sets[191]: 981  LLC: 2048
rand_sets[191]: 981
Assign rand_sets[192]: 98  LLC: 2048
rand_sets[192]: 98
Assign rand_sets[193]: 453  LLC: 2048
rand_sets[193]: 453
Assign rand_sets[194]: 1448  LLC: 2048
rand_sets[194]: 1448
Assign rand_sets[195]: 79  LLC: 2048
rand_sets[195]: 79
Assign rand_sets[196]: 126  LLC: 2048
rand_sets[196]: 126
Assign rand_sets[197]: 1582  LLC: 2048
rand_sets[197]: 1582
Assign rand_sets[198]: 1289  LLC: 2048
rand_sets[198]: 1289
Assign rand_sets[199]: 875  LLC: 2048
rand_sets[199]: 875
Assign rand_sets[200]: 404  LLC: 2048
rand_sets[200]: 404
Assign rand_sets[201]: 415  LLC: 2048
rand_sets[201]: 415
Assign rand_sets[202]: 1712  LLC: 2048
rand_sets[202]: 1712
Assign rand_sets[203]: 1389  LLC: 2048
Assign rand_sets[203]: 169  LLC: 2048
rand_sets[203]: 169
Assign rand_sets[204]: 158  LLC: 2048
rand_sets[204]: 158
Assign rand_sets[205]: 90  LLC: 2048
rand_sets[205]: 90
Assign rand_sets[206]: 1291  LLC: 2048
rand_sets[206]: 1291
Assign rand_sets[207]: 838  LLC: 2048
rand_sets[207]: 838
Assign rand_sets[208]: 1904  LLC: 2048
rand_sets[208]: 1904
Assign rand_sets[209]: 640  LLC: 2048
rand_sets[209]: 640
Assign rand_sets[210]: 1462  LLC: 2048
rand_sets[210]: 1462
Assign rand_sets[211]: 1487  LLC: 2048
rand_sets[211]: 1487
Assign rand_sets[212]: 1863  LLC: 2048
rand_sets[212]: 1863
Assign rand_sets[213]: 1036  LLC: 2048
rand_sets[213]: 1036
Assign rand_sets[214]: 1702  LLC: 2048
Assign rand_sets[214]: 933  LLC: 2048
rand_sets[214]: 933
Assign rand_sets[215]: 554  LLC: 2048
rand_sets[215]: 554
Assign rand_sets[216]: 1496  LLC: 2048
rand_sets[216]: 1496
Assign rand_sets[217]: 1708  LLC: 2048
rand_sets[217]: 1708
Assign rand_sets[218]: 1275  LLC: 2048
Assign rand_sets[218]: 416  LLC: 2048
rand_sets[218]: 416
Assign rand_sets[219]: 491  LLC: 2048
rand_sets[219]: 491
Assign rand_sets[220]: 183  LLC: 2048
rand_sets[220]: 183
Assign rand_sets[221]: 1657  LLC: 2048
rand_sets[221]: 1657
Assign rand_sets[222]: 1060  LLC: 2048
rand_sets[222]: 1060
Assign rand_sets[223]: 626  LLC: 2048
rand_sets[223]: 626
Assign rand_sets[224]: 1315  LLC: 2048
rand_sets[224]: 1315
Assign rand_sets[225]: 1682  LLC: 2048
rand_sets[225]: 1682
Assign rand_sets[226]: 1352  LLC: 2048
rand_sets[226]: 1352
Assign rand_sets[227]: 1152  LLC: 2048
rand_sets[227]: 1152
Assign rand_sets[228]: 965  LLC: 2048
rand_sets[228]: 965
Assign rand_sets[229]: 1190  LLC: 2048
rand_sets[229]: 1190
Assign rand_sets[230]: 1191  LLC: 2048
rand_sets[230]: 1191
Assign rand_sets[231]: 645  LLC: 2048
rand_sets[231]: 645
Assign rand_sets[232]: 695  LLC: 2048
rand_sets[232]: 695
Assign rand_sets[233]: 1495  LLC: 2048
rand_sets[233]: 1495
Assign rand_sets[234]: 1932  LLC: 2048
rand_sets[234]: 1932
Assign rand_sets[235]: 656  LLC: 2048
rand_sets[235]: 656
Assign rand_sets[236]: 1508  LLC: 2048
rand_sets[236]: 1508
Assign rand_sets[237]: 939  LLC: 2048
rand_sets[237]: 939
Assign rand_sets[238]: 355  LLC: 2048
rand_sets[238]: 355
Assign rand_sets[239]: 1092  LLC: 2048
rand_sets[239]: 1092
Assign rand_sets[240]: 850  LLC: 2048
rand_sets[240]: 850
Assign rand_sets[241]: 102  LLC: 2048
rand_sets[241]: 102
Assign rand_sets[242]: 1763  LLC: 2048
rand_sets[242]: 1763
Assign rand_sets[243]: 668  LLC: 2048
Assign rand_sets[243]: 51  LLC: 2048
rand_sets[243]: 51
Assign rand_sets[244]: 1317  LLC: 2048
rand_sets[244]: 1317
Assign rand_sets[245]: 2041  LLC: 2048
rand_sets[245]: 2041
Assign rand_sets[246]: 1374  LLC: 2048
rand_sets[246]: 1374
Assign rand_sets[247]: 682  LLC: 2048
rand_sets[247]: 682
Assign rand_sets[248]: 1466  LLC: 2048
rand_sets[248]: 1466
Assign rand_sets[249]: 1139  LLC: 2048
rand_sets[249]: 1139
Assign rand_sets[250]: 1632  LLC: 2048
rand_sets[250]: 1632
Assign rand_sets[251]: 1117  LLC: 2048
rand_sets[251]: 1117
Assign rand_sets[252]: 1611  LLC: 2048
rand_sets[252]: 1611
Assign rand_sets[253]: 1905  LLC: 2048
rand_sets[253]: 1905
Assign rand_sets[254]: 1662  LLC: 2048
Assign rand_sets[254]: 446  LLC: 2048
rand_sets[254]: 446
Assign rand_sets[255]: 1705  LLC: 2048
rand_sets[255]: 1705
Heartbeat CPU 0 instructions: 10000003 cycles: 2871886 heartbeat IPC: 3.48203 cumulative IPC: 3.48203 (Simulation time: 0 hr 19 min 45 sec) 

Warmup complete CPU 0 instructions: 10000003 cycles: 2871886 (Simulation time: 0 hr 19 min 45 sec) 

Heartbeat CPU 0 instructions: 20000001 cycles: 18118480 heartbeat IPC: 0.655884 cumulative IPC: 0.655884 (Simulation time: 0 hr 38 min 28 sec) 
Heartbeat CPU 0 instructions: 30000002 cycles: 33308667 heartbeat IPC: 0.65832 cumulative IPC: 0.6571 (Simulation time: 0 hr 55 min 59 sec) 
Heartbeat CPU 0 instructions: 40000002 cycles: 49851851 heartbeat IPC: 0.604479 cumulative IPC: 0.63857 (Simulation time: 1 hr 16 min 15 sec) 
Heartbeat CPU 0 instructions: 50000003 cycles: 64619686 heartbeat IPC: 0.677147 cumulative IPC: 0.647796 (Simulation time: 1 hr 33 min 44 sec) 
Heartbeat CPU 0 instructions: 60000000 cycles: 82392178 heartbeat IPC: 0.562667 cumulative IPC: 0.62877 (Simulation time: 1 hr 50 min 53 sec) 
Finished CPU 0 instructions: 50000001 cycles: 79520293 cumulative IPC: 0.62877 (Simulation time: 1 hr 50 min 53 sec) 

ChampSim completed all CPUs

Region of Interest Statistics

CPU 0 cumulative IPC: 0.62877 instructions: 50000001 cycles: 79520293
ITLB TOTAL     ACCESS:    7956065  HIT:    7902069  MISS:      53996  HIT %:    99.3213  MISS %:   0.678677   MPKI: 1.07992
ITLB LOAD TRANSLATION ACCESS:    7956065  HIT:    7902069  MISS:      53996  HIT %:    99.3213  MISS %:   0.678677   MPKI: 1.07992
ITLB PREFETCH  REQUESTED:          0  ISSUED:          0  USEFUL:          0  USELESS:          0
ITLB USEFUL LOAD PREFETCHES:          0 PREFETCH ISSUED TO LOWER LEVEL:          0  ACCURACY: -nan
ITLB TIMELY PREFETCHES:          0 LATE PREFETCHES: 0 DROPPED PREFETCHES: 0
ITLB PREFETCHES SAME FILL-ORIGIN LEVEL: 0 DIFFERENT FILL-ORIGIN LEVEL: 0
ITLB AVERAGE MISS LATENCY: 11.1032 cycles
ITLB RQ	ACCESS:    9595933	FORWARD:          0	MERGED:    1629950	TO_CACHE:    7965983

DTLB TOTAL     ACCESS:   11432082  HIT:   11102433  MISS:     329649  HIT %:    97.1165  MISS %:    2.88354   MPKI: 6.59298
DTLB LOAD TRANSLATION ACCESS:   11432082  HIT:   11102433  MISS:     329649  HIT %:    97.1165  MISS %:    2.88354   MPKI: 6.59298
DTLB PREFETCH  REQUESTED:          0  ISSUED:          0  USEFUL:          0  USELESS:          0
DTLB USEFUL LOAD PREFETCHES:          0 PREFETCH ISSUED TO LOWER LEVEL:          0  ACCURACY: -nan
DTLB TIMELY PREFETCHES:          0 LATE PREFETCHES: 0 DROPPED PREFETCHES: 0
DTLB PREFETCHES SAME FILL-ORIGIN LEVEL: 0 DIFFERENT FILL-ORIGIN LEVEL: 0
DTLB AVERAGE MISS LATENCY: 10.3398 cycles
DTLB RQ	ACCESS:   13400942	FORWARD:          0	MERGED:    1950902	TO_CACHE:   11450040

STLB TOTAL     ACCESS:    1243432  HIT:    1239356  MISS:       4076  HIT %:    99.6722  MISS %:   0.327802   MPKI: 0.08152
STLB LOAD TRANSLATION ACCESS:     383645  HIT:     379569  MISS:       4076  HIT %:    98.9376  MISS %:    1.06244   MPKI: 0.08152
STLB TRANSLATION FROM L1D PREFETCHER ACCESS:     859787  HIT:     859787  MISS:          0  HIT %:        100  MISS %:          0   MPKI: 0
STLB PREFETCH  REQUESTED:          0  ISSUED:          0  USEFUL:          0  USELESS:          0
STLB USEFUL LOAD PREFETCHES:          0 PREFETCH ISSUED TO LOWER LEVEL:          0  ACCURACY: -nan
STLB TIMELY PREFETCHES:          0 LATE PREFETCHES: 0 DROPPED PREFETCHES: 0
STLB PREFETCHES SAME FILL-ORIGIN LEVEL: 0 DIFFERENT FILL-ORIGIN LEVEL: 0
STLB AVERAGE MISS LATENCY: 133.841 cycles
STLB RQ	ACCESS:    1549736	FORWARD:          0	MERGED:     306304	TO_CACHE:    1243432

STLB Hit, L1D data hit: 0
STLB Hit, L2C data hit: 0
STLB Hit, LLC data hit: 0
STLB Hit, LLC data miss: 0
STLB STLB hints to L2: 0
L1D TOTAL     ACCESS:   14344961  HIT:   13215023  MISS:    1129938  HIT %:    92.1231  MISS %:     7.8769   MPKI: 22.5988
L1D LOAD      ACCESS:    9317964  HIT:    8750573  MISS:     567391  HIT %:    93.9108  MISS %:    6.08922   MPKI: 11.3478
L1D RFO       ACCESS:    3888520  HIT:    3823072  MISS:      65448  HIT %:    98.3169  MISS %:    1.68311   MPKI: 1.30896
L1D PREFETCH  ACCESS:    1138477  HIT:     641378  MISS:     497099  HIT %:    56.3365  MISS %:    43.6635   MPKI: 9.94198
L1D PREFETCH  REQUESTED:    2333187  ISSUED:    2332357  USEFUL:     120183  USELESS:     377124
L1D USEFUL LOAD PREFETCHES:     120183 PREFETCH ISSUED TO LOWER LEVEL:     498409  ACCURACY: 24.1133
L1D TIMELY PREFETCHES:     120183 LATE PREFETCHES: 12892 DROPPED PREFETCHES: 0
L1D PREFETCHES SAME FILL-ORIGIN LEVEL: 498409 DIFFERENT FILL-ORIGIN LEVEL: 0
L1D AVERAGE MISS LATENCY: 58066.5 cycles
L1D RQ	ACCESS:   13528660	FORWARD:          0	MERGED:    4059907	TO_CACHE:    9384069
L1D WQ	ACCESS:    4089311	FORWARD:      84859	MERGED:      72438	TO_CACHE:    4016873
L1D PQ	ACCESS:    1166266	FORWARD:          0	MERGED:          0	TO_CACHE:    1166091

L1D UNIQUE REGIONS ACCESSED: 0
L1D REGIONS CONFLICTS: 0
L1D Cross Page Prefetch Requests: 0
L1D Same Page Prefetch Requests: 1333153
L1D ROI Sum of L1D PQ occupancy: 15075404
L1D PREFETCHES PUSHED FROM L2C: 0
L1I TOTAL     ACCESS:    9486537  HIT:    9204093  MISS:     282444  HIT %:    97.0227  MISS %:    2.97731   MPKI: 5.64888
L1I LOAD      ACCESS:    9486537  HIT:    9204093  MISS:     282444  HIT %:    97.0227  MISS %:    2.97731   MPKI: 5.64888
L1I PREFETCH  REQUESTED:          0  ISSUED:          0  USEFUL:          0  USELESS:          0
L1I USEFUL LOAD PREFETCHES:          0 PREFETCH ISSUED TO LOWER LEVEL:          0  ACCURACY: -nan
L1I TIMELY PREFETCHES:          0 LATE PREFETCHES: 0 DROPPED PREFETCHES: 0
L1I PREFETCHES SAME FILL-ORIGIN LEVEL: 0 DIFFERENT FILL-ORIGIN LEVEL: 0
L1I AVERAGE MISS LATENCY: 22.5146 cycles
L1I RQ	ACCESS:   13884025	FORWARD:          0	MERGED:    4288092	TO_CACHE:    9595933

BTB TOTAL     ACCESS:    6340390  HIT:    6062165  MISS:     278225  HIT %:    95.6119  MISS %:    4.38814   MPKI: 5.5645
BTB BRANCH_DIRECT_JUMP	ACCESS:     410484  HIT:     408710  MISS:       1774
BTB BRANCH_INDIRECT	ACCESS:      28973  HIT:      20601  MISS:       8372
BTB BRANCH_CONDITIONAL	ACCESS:    4498275  HIT:    4493945  MISS:       4330
BTB BRANCH_DIRECT_CALL	ACCESS:     484117  HIT:     481984  MISS:       2133
BTB BRANCH_INDIRECT_CALL	ACCESS:     217116  HIT:     157175  MISS:      59941
BTB BRANCH_RETURN	ACCESS:     701425  HIT:     499750  MISS:     201675
BTB BRANCH_OTHER ACCESS:          0  HIT:          0  MISS:          0

L2C TOTAL     ACCESS:    1705570  HIT:    1303233  MISS:     402337  HIT %:    76.4104  MISS %:    23.5896   MPKI: 8.04674
L2C LOAD      ACCESS:     849830  HIT:     660866  MISS:     188964  HIT %:    77.7645  MISS %:    22.2355   MPKI: 3.77928
L2C DATA LOAD MPKI: 3.38398
L2C INSTRUCTION LOAD MPKI: 0.3953
L2C RFO       ACCESS:      64137  HIT:      21305  MISS:      42832  HIT %:     33.218  MISS %:     66.782   MPKI: 0.85664
L2C PREFETCH  ACCESS:     627368  HIT:     459108  MISS:     168260  HIT %:      73.18  MISS %:      26.82   MPKI: 3.3652
L2C DATA PREFETCH MPKI: 3.3652
L2C INSTRUCTION PREFETCH MPKI: 0
L2C WRITEBACK ACCESS:     159969  HIT:     159544  MISS:        425  HIT %:    99.7343  MISS %:   0.265676   MPKI: 0.0085
L2C LOAD TRANSLATION ACCESS:       4266  HIT:       2410  MISS:       1856  HIT %:    56.4932  MISS %:    43.5068   MPKI: 0.03712
L2C PREFETCH  REQUESTED:     140256  ISSUED:     140256  USEFUL:      29220  USELESS:     141000
L2C USEFUL LOAD PREFETCHES:      29220 PREFETCH ISSUED TO LOWER LEVEL:     169610  ACCURACY: 17.2278
L2C TIMELY PREFETCHES:      29220 LATE PREFETCHES: 1350 DROPPED PREFETCHES: 0
L2C PREFETCHES SAME FILL-ORIGIN LEVEL: 38088 DIFFERENT FILL-ORIGIN LEVEL: 0
L2C AVERAGE MISS LATENCY: 88.403 cycles
L2C RQ	ACCESS:     918239	FORWARD:          0	MERGED:          0	TO_CACHE:     918233
L2C WQ	ACCESS:     159969	FORWARD:          8	MERGED:          0	TO_CACHE:     159969
L2C PQ	ACCESS:     638665	FORWARD:          0	MERGED:       2707	TO_CACHE:     635956

L2C Instructions Evicting Data 17954
L2C Translations Evicting Data 1718
L2C Data Evicting Data 362694
L2C Instructions Evicting Instructions 1684
L2C Translations Evicting Instructions 124
L2C Data Evicting Instructions 16034
L2C Instructions Evicting Translations 127
L2C Translations Evicting Translations 14
L2C Data Evicting Translations 1563
L2C Dense regions hint from L2: 0
PSCL5 TOTAL     ACCESS:       4076  HIT:       4076  MISS:          0  HIT %:        100  MISS %:          0   MPKI: 0
PSCL5 LOAD TRANSLATION ACCESS:       4076  HIT:       4076  MISS:          0  HIT %:        100  MISS %:          0   MPKI: 0
PSCL5 PREFETCH  REQUESTED:          0  ISSUED:          0  USEFUL:          0  USELESS:          0
PSCL5 USEFUL LOAD PREFETCHES:          0 PREFETCH ISSUED TO LOWER LEVEL:          0  ACCURACY: -nan
PSCL5 TIMELY PREFETCHES:          0 LATE PREFETCHES: 0 DROPPED PREFETCHES: 0
PSCL5 PREFETCHES SAME FILL-ORIGIN LEVEL: 0 DIFFERENT FILL-ORIGIN LEVEL: 0

PSCL4 TOTAL     ACCESS:       4076  HIT:       4076  MISS:          0  HIT %:        100  MISS %:          0   MPKI: 0
PSCL4 LOAD TRANSLATION ACCESS:       4076  HIT:       4076  MISS:          0  HIT %:        100  MISS %:          0   MPKI: 0
PSCL4 PREFETCH  REQUESTED:          0  ISSUED:          0  USEFUL:          0  USELESS:          0
PSCL4 USEFUL LOAD PREFETCHES:          0 PREFETCH ISSUED TO LOWER LEVEL:          0  ACCURACY: -nan
PSCL4 TIMELY PREFETCHES:          0 LATE PREFETCHES: 0 DROPPED PREFETCHES: 0
PSCL4 PREFETCHES SAME FILL-ORIGIN LEVEL: 0 DIFFERENT FILL-ORIGIN LEVEL: 0

PSCL3 TOTAL     ACCESS:       4063  HIT:       4056  MISS:          7  HIT %:    99.8277  MISS %:   0.172286   MPKI: 0.00014
PSCL3 LOAD TRANSLATION ACCESS:       4063  HIT:       4056  MISS:          7  HIT %:    99.8277  MISS %:   0.172286   MPKI: 0.00014
PSCL3 PREFETCH  REQUESTED:          0  ISSUED:          0  USEFUL:          0  USELESS:          0
PSCL3 USEFUL LOAD PREFETCHES:          0 PREFETCH ISSUED TO LOWER LEVEL:          0  ACCURACY: -nan
PSCL3 TIMELY PREFETCHES:          0 LATE PREFETCHES: 0 DROPPED PREFETCHES: 0
PSCL3 PREFETCHES SAME FILL-ORIGIN LEVEL: 0 DIFFERENT FILL-ORIGIN LEVEL: 0

PSCL2 TOTAL     ACCESS:       4076  HIT:       3892  MISS:        184  HIT %:    95.4858  MISS %:    4.51423   MPKI: 0.00368
PSCL2 LOAD TRANSLATION ACCESS:       4076  HIT:       3892  MISS:        184  HIT %:    95.4858  MISS %:    4.51423   MPKI: 0.00368
PSCL2 PREFETCH  REQUESTED:          0  ISSUED:          0  USEFUL:          0  USELESS:          0
PSCL2 USEFUL LOAD PREFETCHES:          0 PREFETCH ISSUED TO LOWER LEVEL:          0  ACCURACY: -nan
PSCL2 TIMELY PREFETCHES:          0 LATE PREFETCHES: 0 DROPPED PREFETCHES: 0
PSCL2 PREFETCHES SAME FILL-ORIGIN LEVEL: 0 DIFFERENT FILL-ORIGIN LEVEL: 0

LLC TOTAL     ACCESS:     506359  HIT:     335415  MISS:     170944  HIT %:    66.2406  MISS %:    33.7594   MPKI: 3.41888
LLC LOAD      ACCESS:     187627  HIT:     129523  MISS:      58104  HIT %:    69.0322  MISS %:    30.9678   MPKI: 1.16208
LLC RFO       ACCESS:      42818  HIT:       6745  MISS:      36073  HIT %:    15.7527  MISS %:    84.2473   MPKI: 0.72146
LLC PREFETCH  ACCESS:     169610  HIT:     121079  MISS:      48531  HIT %:    71.3867  MISS %:    28.6133   MPKI: 0.97062
LLC WRITEBACK ACCESS:     104448  HIT:      77610  MISS:      26838  HIT %:    74.3049  MISS %:    25.6951   MPKI: 0.53676
LLC LOAD TRANSLATION ACCESS:       1856  HIT:        458  MISS:       1398  HIT %:    24.6767  MISS %:    75.3233   MPKI: 0.02796
LLC PREFETCH  REQUESTED:          0  ISSUED:          0  USEFUL:       8699  USELESS:      45160
LLC USEFUL LOAD PREFETCHES:       8699 PREFETCH ISSUED TO LOWER LEVEL:      48531  ACCURACY: 17.9246
LLC TIMELY PREFETCHES:       8699 LATE PREFETCHES: 0 DROPPED PREFETCHES: 0
LLC PREFETCHES SAME FILL-ORIGIN LEVEL: 0 DIFFERENT FILL-ORIGIN LEVEL: 0
LLC AVERAGE MISS LATENCY: 137.299 cycles
LLC RQ	ACCESS:     232302	FORWARD:          0	MERGED:          0	TO_CACHE:     232301
LLC WQ	ACCESS:     104448	FORWARD:          1	MERGED:          0	TO_CACHE:     104448
LLC PQ	ACCESS:     169610	FORWARD:          0	MERGED:          0	TO_CACHE:     169610

LLC Dense regions hint to LLC: 0

RAW hits: 715809
Loads Generated: 14244467
Loads sent to L1D: 13528660
Stores Generated: 4089305
Stores sent to L1D: 4089311
Major fault: 0 Minor fault: 2936
Allocated PAGES: 2936

stream: 
stream:times selected: 1740271
stream:pref_filled: 395403
stream:pref_useful: 76795
stream:pref_late: 8272
stream:misses: 76943
stream:misses_by_poll: 0

CS: 
CS:times selected: 127679
CS:pref_filled: 54532
CS:pref_useful: 36371
CS:pref_late: 909
CS:misses: 8828
CS:misses_by_poll: 58

CPLX: 
CPLX:times selected: 1595750
CPLX:pref_filled: 79025
CPLX:pref_useful: 19045
CPLX:pref_late: 1517
CPLX:misses: 297949
CPLX:misses_by_poll: 81

NL_L1: 
NL:times selected: 17087
NL:pref_filled: 3956
NL:pref_useful: 854
NL:pref_late: 76
NL:misses: 3376
NL:misses_by_poll: 0

total selections: 3480787
total_filled: 497099
total_useful: 120183
total_late: 10870
total_polluted: 139
total_misses_after_warmup: 633498
conflicts: 1913273
Degree Incremented Times: 113
Degree Decremented Times: 98762

L1 IP Table Write Accesses: 6878634
L1 IP Table Read Accesses: 4965361
L1 RST Write Accesses: 1458680
L1 RST Read Accesses: 2917360
L1 CSPT Write Accesses: 1458680
L1 CSPT Read Accesses: 2788350
L1 RR Filter Tag Write Accesses: 1167096
L1 RR Filter Tag Read Accesses: 56230109
L1 IP Table Tag Write Accesses: 9384071
L1 IP Table Tag Read Accesses: 9384071
L1 RST Tag Write Accesses: 0
L1 RST Tag Read Accesses: 13256558
L1 RR Filter Write Accesses: 0
L1 RR Filter Read Accesses: 1979431
test: 728017
L2 IP Table Read Accesses: 1984119
L2 IP Table Write Accesses: 1637069
L2 IP Table Tag Read Accesses: 1063038
L2 IP Table Tag Write Accesses: 1063038

DRAM Statistics
 CHANNEL 0
 RQ ROW_BUFFER_HIT:      36031  ROW_BUFFER_MISS:     108074
 DBUS_CONGESTED:         98
 WQ ROW_BUFFER_HIT:      13421  ROW_BUFFER_MISS:      61785  FULL:          0

 AVG_CONGESTED_CYCLE: 4
 All warmup complete: 2
Channel 0 Bank busy for read cycles: 0
Channel 0 Bank busy for write cycles: 0
Channel 0
Rank 0
0banks busy for read cycles: 61658882
0banks busy for write cycles: 29322
1banks busy for read cycles: 6870485
1banks busy for write cycles: 3806259
2banks busy for read cycles: 2641245
2banks busy for write cycles: 1317044
3banks busy for read cycles: 900833
3banks busy for write cycles: 563704
4banks busy for read cycles: 325119
4banks busy for write cycles: 278988
5banks busy for read cycles: 106279
5banks busy for write cycles: 159091
6banks busy for read cycles: 56155
6banks busy for write cycles: 122609
7banks busy for read cycles: 44672
7banks busy for write cycles: 134807
8banks busy for read cycles: 90991
8banks busy for write cycles: 413809

CPU 0 Branch Prediction Accuracy: 93.5327% MPKI: 11.3995 Average ROB Occupancy at Mispredict: 45.0404
Branch types
NOT_BRANCH: 41186521 82.373%
BRANCH_DIRECT_JUMP: 410484 0.820968%
BRANCH_INDIRECT: 28973 0.057946%
BRANCH_CONDITIONAL: 6971023 13.942%
BRANCH_DIRECT_CALL: 484117 0.968234%
BRANCH_INDIRECT_CALL: 217116 0.434232%
BRANCH_RETURN: 701425 1.40285%
BRANCH_OTHER: 0 0%

@sumon_overall_L1D    120183     12892     12892    377124    497099   2332357   2333187
@Sumon_Early_by_class_L1D     67122     34281     17017        71
@Sumon_Late_by_class_L1D      7938       901      1504        71

@Sumon_Early_by_cycle_L1D     34771     17868     19527      7874      3374     10679      7218      6316      5388      4741      1750       677
@Sumon_Late_by_cycle_L1D      3415      3444      2025       614      1009         0
@Sumon_Early_stream_L1D     24578      9506      5461      2998      1994      6447      4124      4301      3345      2835      1045       488
@Sumon_Early_CS_L1D      5422      4719     12400      4165       908      2506      1992       853       703       438       132        43
@Sumon_Early_CPLX_L1D      4206      3436      1523       612       407      1576       964      1056      1239      1315       543       140
@Sumon_Late_stream_L1D      2539      2575      1738       384       702         0
@Sumon_Late_CS_L1D       324       368        51        62        96         0
@Sumon_Late_CPLX_L1D       510       432       215       163       184         0
@sumon_overall_L2C     29220      1350         0    141000    168260    140256    140256
@Sumon_Early_by_class_L2C      8190      1137      3340         0
@Sumon_Late_by_class_L2C         0         0         0         0

@Sumon_Early_by_cycle_L2C      2466      1718      1335       857       581      1846      1376      1104      1159      1874      1768     13136
@Sumon_Late_by_cycle_L2C       207       236       144       159       604         0
@Sumon_Early_stream_L2C         0         0         0         0         0         0        18        46        84       322       724      6996
@Sumon_Early_CS_L2C         0         0         0         0         0         0         5         6        16        72        92       946
@Sumon_Early_CPLX_L2C         0         0         0         0         0         0         3         4        32       160       320      2821
@Sumon_Late_stream_L2C         0         0         0         0         0         0
@Sumon_Late_CS_L2C         0         0         0         0         0         0
@Sumon_Late_CPLX_L2C         0         0         0         0         0         0
DRAM PAGES: 1048576
Allocated PAGES: 2936
