
*** ChampSim Multicore Out-of-Order Simulator ***

Warmup Instructions: 10000000
Simulation Instructions: 50000000
Number of CPUs: 1
LLC sets: 2048
LLC ways: 16
Off-chip DRAM Size: 4096 MB Channels: 1 Width: 64-bit Data Rate: 6400 MT/s
CPU 0 runs traces/clientserver/server_035.champsimtrace.xz
.xz
CPU 0 Bimodal branch predictor
BTB has LRU replacement policy
ITLB has LRU replacement policy
DTLB has LRU replacement policy
STLB has LRU replacement policy
L1I has LRU replacement policy
IP Table Entries: 256
L1D has LRU replacement policy
IP_Table L2 entries: 256
L2C has LRU replacement policy
Initialize SHIP state
Assign rand_sets[0]: 454  LLC: 2048
rand_sets[0]: 454
Assign rand_sets[1]: 1662  LLC: 2048
rand_sets[1]: 1662
Assign rand_sets[2]: 1921  LLC: 2048
rand_sets[2]: 1921
Assign rand_sets[3]: 1131  LLC: 2048
rand_sets[3]: 1131
Assign rand_sets[4]: 331  LLC: 2048
rand_sets[4]: 331
Assign rand_sets[5]: 1531  LLC: 2048
rand_sets[5]: 1531
Assign rand_sets[6]: 482  LLC: 2048
rand_sets[6]: 482
Assign rand_sets[7]: 1275  LLC: 2048
rand_sets[7]: 1275
Assign rand_sets[8]: 1876  LLC: 2048
rand_sets[8]: 1876
Assign rand_sets[9]: 2038  LLC: 2048
rand_sets[9]: 2038
Assign rand_sets[10]: 701  LLC: 2048
rand_sets[10]: 701
Assign rand_sets[11]: 479  LLC: 2048
rand_sets[11]: 479
Assign rand_sets[12]: 892  LLC: 2048
rand_sets[12]: 892
Assign rand_sets[13]: 1820  LLC: 2048
rand_sets[13]: 1820
Assign rand_sets[14]: 1505  LLC: 2048
rand_sets[14]: 1505
Assign rand_sets[15]: 1159  LLC: 2048
rand_sets[15]: 1159
Assign rand_sets[16]: 513  LLC: 2048
rand_sets[16]: 513
Assign rand_sets[17]: 703  LLC: 2048
rand_sets[17]: 703
Assign rand_sets[18]: 561  LLC: 2048
rand_sets[18]: 561
Assign rand_sets[19]: 990  LLC: 2048
rand_sets[19]: 990
Assign rand_sets[20]: 342  LLC: 2048
rand_sets[20]: 342
Assign rand_sets[21]: 882  LLC: 2048
rand_sets[21]: 882
Assign rand_sets[22]: 15  LLC: 2048
rand_sets[22]: 15
Assign rand_sets[23]: 71  LLC: 2048
rand_sets[23]: 71
Assign rand_sets[24]: 1127  LLC: 2048
rand_sets[24]: 1127
Assign rand_sets[25]: 1382  LLC: 2048
rand_sets[25]: 1382
Assign rand_sets[26]: 647  LLC: 2048
rand_sets[26]: 647
Assign rand_sets[27]: 857  LLC: 2048
rand_sets[27]: 857
Assign rand_sets[28]: 1450  LLC: 2048
rand_sets[28]: 1450
Assign rand_sets[29]: 1160  LLC: 2048
rand_sets[29]: 1160
Assign rand_sets[30]: 1852  LLC: 2048
rand_sets[30]: 1852
Assign rand_sets[31]: 1881  LLC: 2048
rand_sets[31]: 1881
Assign rand_sets[32]: 1770  LLC: 2048
rand_sets[32]: 1770
Assign rand_sets[33]: 1622  LLC: 2048
rand_sets[33]: 1622
Assign rand_sets[34]: 275  LLC: 2048
rand_sets[34]: 275
Assign rand_sets[35]: 635  LLC: 2048
rand_sets[35]: 635
Assign rand_sets[36]: 466  LLC: 2048
rand_sets[36]: 466
Assign rand_sets[37]: 1413  LLC: 2048
rand_sets[37]: 1413
Assign rand_sets[38]: 417  LLC: 2048
rand_sets[38]: 417
Assign rand_sets[39]: 472  LLC: 2048
rand_sets[39]: 472
Assign rand_sets[40]: 1340  LLC: 2048
rand_sets[40]: 1340
Assign rand_sets[41]: 852  LLC: 2048
rand_sets[41]: 852
Assign rand_sets[42]: 1365  LLC: 2048
rand_sets[42]: 1365
Assign rand_sets[43]: 47  LLC: 2048
rand_sets[43]: 47
Assign rand_sets[44]: 823  LLC: 2048
rand_sets[44]: 823
Assign rand_sets[45]: 686  LLC: 2048
rand_sets[45]: 686
Assign rand_sets[46]: 1637  LLC: 2048
rand_sets[46]: 1637
Assign rand_sets[47]: 1115  LLC: 2048
rand_sets[47]: 1115
Assign rand_sets[48]: 986  LLC: 2048
rand_sets[48]: 986
Assign rand_sets[49]: 258  LLC: 2048
rand_sets[49]: 258
Assign rand_sets[50]: 633  LLC: 2048
rand_sets[50]: 633
Assign rand_sets[51]: 920  LLC: 2048
rand_sets[51]: 920
Assign rand_sets[52]: 204  LLC: 2048
rand_sets[52]: 204
Assign rand_sets[53]: 227  LLC: 2048
rand_sets[53]: 227
Assign rand_sets[54]: 1818  LLC: 2048
rand_sets[54]: 1818
Assign rand_sets[55]: 886  LLC: 2048
rand_sets[55]: 886
Assign rand_sets[56]: 1422  LLC: 2048
rand_sets[56]: 1422
Assign rand_sets[57]: 607  LLC: 2048
rand_sets[57]: 607
Assign rand_sets[58]: 217  LLC: 2048
rand_sets[58]: 217
Assign rand_sets[59]: 1945  LLC: 2048
rand_sets[59]: 1945
Assign rand_sets[60]: 143  LLC: 2048
rand_sets[60]: 143
Assign rand_sets[61]: 1311  LLC: 2048
rand_sets[61]: 1311
Assign rand_sets[62]: 319  LLC: 2048
rand_sets[62]: 319
Assign rand_sets[63]: 1846  LLC: 2048
rand_sets[63]: 1846
Assign rand_sets[64]: 238  LLC: 2048
rand_sets[64]: 238
Assign rand_sets[65]: 67  LLC: 2048
rand_sets[65]: 67
Assign rand_sets[66]: 1912  LLC: 2048
rand_sets[66]: 1912
Assign rand_sets[67]: 1613  LLC: 2048
rand_sets[67]: 1613
Assign rand_sets[68]: 1293  LLC: 2048
rand_sets[68]: 1293
Assign rand_sets[69]: 1018  LLC: 2048
rand_sets[69]: 1018
Assign rand_sets[70]: 1982  LLC: 2048
rand_sets[70]: 1982
Assign rand_sets[71]: 1702  LLC: 2048
rand_sets[71]: 1702
Assign rand_sets[72]: 1498  LLC: 2048
rand_sets[72]: 1498
Assign rand_sets[73]: 228  LLC: 2048
rand_sets[73]: 228
Assign rand_sets[74]: 1414  LLC: 2048
rand_sets[74]: 1414
Assign rand_sets[75]: 1166  LLC: 2048
rand_sets[75]: 1166
Assign rand_sets[76]: 732  LLC: 2048
rand_sets[76]: 732
Assign rand_sets[77]: 297  LLC: 2048
rand_sets[77]: 297
Assign rand_sets[78]: 1133  LLC: 2048
rand_sets[78]: 1133
Assign rand_sets[79]: 846  LLC: 2048
rand_sets[79]: 846
Assign rand_sets[80]: 767  LLC: 2048
rand_sets[80]: 767
Assign rand_sets[81]: 1878  LLC: 2048
rand_sets[81]: 1878
Assign rand_sets[82]: 993  LLC: 2048
rand_sets[82]: 993
Assign rand_sets[83]: 1392  LLC: 2048
rand_sets[83]: 1392
Assign rand_sets[84]: 1568  LLC: 2048
rand_sets[84]: 1568
Assign rand_sets[85]: 1787  LLC: 2048
rand_sets[85]: 1787
Assign rand_sets[86]: 399  LLC: 2048
rand_sets[86]: 399
Assign rand_sets[87]: 1201  LLC: 2048
rand_sets[87]: 1201
Assign rand_sets[88]: 856  LLC: 2048
rand_sets[88]: 856
Assign rand_sets[89]: 773  LLC: 2048
rand_sets[89]: 773
Assign rand_sets[90]: 1680  LLC: 2048
rand_sets[90]: 1680
Assign rand_sets[91]: 1477  LLC: 2048
rand_sets[91]: 1477
Assign rand_sets[92]: 9  LLC: 2048
rand_sets[92]: 9
Assign rand_sets[93]: 1500  LLC: 2048
rand_sets[93]: 1500
Assign rand_sets[94]: 851  LLC: 2048
rand_sets[94]: 851
Assign rand_sets[95]: 973  LLC: 2048
rand_sets[95]: 973
Assign rand_sets[96]: 938  LLC: 2048
rand_sets[96]: 938
Assign rand_sets[97]: 1851  LLC: 2048
rand_sets[97]: 1851
Assign rand_sets[98]: 1608  LLC: 2048
rand_sets[98]: 1608
Assign rand_sets[99]: 1945  LLC: 2048
Assign rand_sets[99]: 1106  LLC: 2048
rand_sets[99]: 1106
Assign rand_sets[100]: 979  LLC: 2048
rand_sets[100]: 979
Assign rand_sets[101]: 338  LLC: 2048
rand_sets[101]: 338
Assign rand_sets[102]: 1693  LLC: 2048
rand_sets[102]: 1693
Assign rand_sets[103]: 6  LLC: 2048
rand_sets[103]: 6
Assign rand_sets[104]: 671  LLC: 2048
rand_sets[104]: 671
Assign rand_sets[105]: 490  LLC: 2048
rand_sets[105]: 490
Assign rand_sets[106]: 1461  LLC: 2048
rand_sets[106]: 1461
Assign rand_sets[107]: 1730  LLC: 2048
rand_sets[107]: 1730
Assign rand_sets[108]: 1030  LLC: 2048
rand_sets[108]: 1030
Assign rand_sets[109]: 19  LLC: 2048
rand_sets[109]: 19
Assign rand_sets[110]: 920  LLC: 2048
Assign rand_sets[110]: 329  LLC: 2048
rand_sets[110]: 329
Assign rand_sets[111]: 1714  LLC: 2048
rand_sets[111]: 1714
Assign rand_sets[112]: 1  LLC: 2048
rand_sets[112]: 1
Assign rand_sets[113]: 1822  LLC: 2048
rand_sets[113]: 1822
Assign rand_sets[114]: 172  LLC: 2048
rand_sets[114]: 172
Assign rand_sets[115]: 1586  LLC: 2048
rand_sets[115]: 1586
Assign rand_sets[116]: 648  LLC: 2048
rand_sets[116]: 648
Assign rand_sets[117]: 1329  LLC: 2048
rand_sets[117]: 1329
Assign rand_sets[118]: 668  LLC: 2048
rand_sets[118]: 668
Assign rand_sets[119]: 1874  LLC: 2048
rand_sets[119]: 1874
Assign rand_sets[120]: 70  LLC: 2048
rand_sets[120]: 70
Assign rand_sets[121]: 661  LLC: 2048
rand_sets[121]: 661
Assign rand_sets[122]: 1649  LLC: 2048
rand_sets[122]: 1649
Assign rand_sets[123]: 1590  LLC: 2048
rand_sets[123]: 1590
Assign rand_sets[124]: 911  LLC: 2048
rand_sets[124]: 911
Assign rand_sets[125]: 1367  LLC: 2048
rand_sets[125]: 1367
Assign rand_sets[126]: 1782  LLC: 2048
rand_sets[126]: 1782
Assign rand_sets[127]: 569  LLC: 2048
rand_sets[127]: 569
Assign rand_sets[128]: 1309  LLC: 2048
rand_sets[128]: 1309
Assign rand_sets[129]: 534  LLC: 2048
rand_sets[129]: 534
Assign rand_sets[130]: 1274  LLC: 2048
rand_sets[130]: 1274
Assign rand_sets[131]: 904  LLC: 2048
rand_sets[131]: 904
Assign rand_sets[132]: 1908  LLC: 2048
rand_sets[132]: 1908
Assign rand_sets[133]: 245  LLC: 2048
rand_sets[133]: 245
Assign rand_sets[134]: 1688  LLC: 2048
rand_sets[134]: 1688
Assign rand_sets[135]: 1660  LLC: 2048
rand_sets[135]: 1660
Assign rand_sets[136]: 1303  LLC: 2048
rand_sets[136]: 1303
Assign rand_sets[137]: 1628  LLC: 2048
rand_sets[137]: 1628
Assign rand_sets[138]: 1857  LLC: 2048
rand_sets[138]: 1857
Assign rand_sets[139]: 187  LLC: 2048
rand_sets[139]: 187
Assign rand_sets[140]: 1389  LLC: 2048
rand_sets[140]: 1389
Assign rand_sets[141]: 881  LLC: 2048
rand_sets[141]: 881
Assign rand_sets[142]: 1166  LLC: 2048
Assign rand_sets[142]: 1039  LLC: 2048
rand_sets[142]: 1039
Assign rand_sets[143]: 1136  LLC: 2048
rand_sets[143]: 1136
Assign rand_sets[144]: 601  LLC: 2048
rand_sets[144]: 601
Assign rand_sets[145]: 967  LLC: 2048
rand_sets[145]: 967
Assign rand_sets[146]: 769  LLC: 2048
rand_sets[146]: 769
Assign rand_sets[147]: 283  LLC: 2048
rand_sets[147]: 283
Assign rand_sets[148]: 559  LLC: 2048
rand_sets[148]: 559
Assign rand_sets[149]: 1075  LLC: 2048
rand_sets[149]: 1075
Assign rand_sets[150]: 829  LLC: 2048
rand_sets[150]: 829
Assign rand_sets[151]: 1681  LLC: 2048
rand_sets[151]: 1681
Assign rand_sets[152]: 1728  LLC: 2048
rand_sets[152]: 1728
Assign rand_sets[153]: 541  LLC: 2048
rand_sets[153]: 541
Assign rand_sets[154]: 421  LLC: 2048
rand_sets[154]: 421
Assign rand_sets[155]: 1037  LLC: 2048
rand_sets[155]: 1037
Assign rand_sets[156]: 13  LLC: 2048
rand_sets[156]: 13
Assign rand_sets[157]: 1707  LLC: 2048
rand_sets[157]: 1707
Assign rand_sets[158]: 1075  LLC: 2048
Assign rand_sets[158]: 1933  LLC: 2048
rand_sets[158]: 1933
Assign rand_sets[159]: 1406  LLC: 2048
rand_sets[159]: 1406
Assign rand_sets[160]: 94  LLC: 2048
rand_sets[160]: 94
Assign rand_sets[161]: 1423  LLC: 2048
rand_sets[161]: 1423
Assign rand_sets[162]: 1854  LLC: 2048
rand_sets[162]: 1854
Assign rand_sets[163]: 230  LLC: 2048
rand_sets[163]: 230
Assign rand_sets[164]: 104  LLC: 2048
rand_sets[164]: 104
Assign rand_sets[165]: 1652  LLC: 2048
rand_sets[165]: 1652
Assign rand_sets[166]: 1446  LLC: 2048
rand_sets[166]: 1446
Assign rand_sets[167]: 1338  LLC: 2048
rand_sets[167]: 1338
Assign rand_sets[168]: 177  LLC: 2048
rand_sets[168]: 177
Assign rand_sets[169]: 195  LLC: 2048
rand_sets[169]: 195
Assign rand_sets[170]: 1171  LLC: 2048
rand_sets[170]: 1171
Assign rand_sets[171]: 1297  LLC: 2048
rand_sets[171]: 1297
Assign rand_sets[172]: 1704  LLC: 2048
rand_sets[172]: 1704
Assign rand_sets[173]: 100  LLC: 2048
rand_sets[173]: 100
Assign rand_sets[174]: 711  LLC: 2048
rand_sets[174]: 711
Assign rand_sets[175]: 1243  LLC: 2048
rand_sets[175]: 1243
Assign rand_sets[176]: 1738  LLC: 2048
rand_sets[176]: 1738
Assign rand_sets[177]: 1504  LLC: 2048
rand_sets[177]: 1504
Assign rand_sets[178]: 96  LLC: 2048
rand_sets[178]: 96
Assign rand_sets[179]: 1249  LLC: 2048
rand_sets[179]: 1249
Assign rand_sets[180]: 1267  LLC: 2048
rand_sets[180]: 1267
Assign rand_sets[181]: 1727  LLC: 2048
rand_sets[181]: 1727
Assign rand_sets[182]: 1545  LLC: 2048
rand_sets[182]: 1545
Assign rand_sets[183]: 1792  LLC: 2048
rand_sets[183]: 1792
Assign rand_sets[184]: 1383  LLC: 2048
rand_sets[184]: 1383
Assign rand_sets[185]: 1954  LLC: 2048
rand_sets[185]: 1954
Assign rand_sets[186]: 739  LLC: 2048
rand_sets[186]: 739
Assign rand_sets[187]: 1061  LLC: 2048
rand_sets[187]: 1061
Assign rand_sets[188]: 672  LLC: 2048
rand_sets[188]: 672
Assign rand_sets[189]: 1057  LLC: 2048
rand_sets[189]: 1057
Assign rand_sets[190]: 1329  LLC: 2048
Assign rand_sets[190]: 1415  LLC: 2048
rand_sets[190]: 1415
Assign rand_sets[191]: 981  LLC: 2048
rand_sets[191]: 981
Assign rand_sets[192]: 98  LLC: 2048
rand_sets[192]: 98
Assign rand_sets[193]: 453  LLC: 2048
rand_sets[193]: 453
Assign rand_sets[194]: 1448  LLC: 2048
rand_sets[194]: 1448
Assign rand_sets[195]: 79  LLC: 2048
rand_sets[195]: 79
Assign rand_sets[196]: 126  LLC: 2048
rand_sets[196]: 126
Assign rand_sets[197]: 1582  LLC: 2048
rand_sets[197]: 1582
Assign rand_sets[198]: 1289  LLC: 2048
rand_sets[198]: 1289
Assign rand_sets[199]: 875  LLC: 2048
rand_sets[199]: 875
Assign rand_sets[200]: 404  LLC: 2048
rand_sets[200]: 404
Assign rand_sets[201]: 415  LLC: 2048
rand_sets[201]: 415
Assign rand_sets[202]: 1712  LLC: 2048
rand_sets[202]: 1712
Assign rand_sets[203]: 1389  LLC: 2048
Assign rand_sets[203]: 169  LLC: 2048
rand_sets[203]: 169
Assign rand_sets[204]: 158  LLC: 2048
rand_sets[204]: 158
Assign rand_sets[205]: 90  LLC: 2048
rand_sets[205]: 90
Assign rand_sets[206]: 1291  LLC: 2048
rand_sets[206]: 1291
Assign rand_sets[207]: 838  LLC: 2048
rand_sets[207]: 838
Assign rand_sets[208]: 1904  LLC: 2048
rand_sets[208]: 1904
Assign rand_sets[209]: 640  LLC: 2048
rand_sets[209]: 640
Assign rand_sets[210]: 1462  LLC: 2048
rand_sets[210]: 1462
Assign rand_sets[211]: 1487  LLC: 2048
rand_sets[211]: 1487
Assign rand_sets[212]: 1863  LLC: 2048
rand_sets[212]: 1863
Assign rand_sets[213]: 1036  LLC: 2048
rand_sets[213]: 1036
Assign rand_sets[214]: 1702  LLC: 2048
Assign rand_sets[214]: 933  LLC: 2048
rand_sets[214]: 933
Assign rand_sets[215]: 554  LLC: 2048
rand_sets[215]: 554
Assign rand_sets[216]: 1496  LLC: 2048
rand_sets[216]: 1496
Assign rand_sets[217]: 1708  LLC: 2048
rand_sets[217]: 1708
Assign rand_sets[218]: 1275  LLC: 2048
Assign rand_sets[218]: 416  LLC: 2048
rand_sets[218]: 416
Assign rand_sets[219]: 491  LLC: 2048
rand_sets[219]: 491
Assign rand_sets[220]: 183  LLC: 2048
rand_sets[220]: 183
Assign rand_sets[221]: 1657  LLC: 2048
rand_sets[221]: 1657
Assign rand_sets[222]: 1060  LLC: 2048
rand_sets[222]: 1060
Assign rand_sets[223]: 626  LLC: 2048
rand_sets[223]: 626
Assign rand_sets[224]: 1315  LLC: 2048
rand_sets[224]: 1315
Assign rand_sets[225]: 1682  LLC: 2048
rand_sets[225]: 1682
Assign rand_sets[226]: 1352  LLC: 2048
rand_sets[226]: 1352
Assign rand_sets[227]: 1152  LLC: 2048
rand_sets[227]: 1152
Assign rand_sets[228]: 965  LLC: 2048
rand_sets[228]: 965
Assign rand_sets[229]: 1190  LLC: 2048
rand_sets[229]: 1190
Assign rand_sets[230]: 1191  LLC: 2048
rand_sets[230]: 1191
Assign rand_sets[231]: 645  LLC: 2048
rand_sets[231]: 645
Assign rand_sets[232]: 695  LLC: 2048
rand_sets[232]: 695
Assign rand_sets[233]: 1495  LLC: 2048
rand_sets[233]: 1495
Assign rand_sets[234]: 1932  LLC: 2048
rand_sets[234]: 1932
Assign rand_sets[235]: 656  LLC: 2048
rand_sets[235]: 656
Assign rand_sets[236]: 1508  LLC: 2048
rand_sets[236]: 1508
Assign rand_sets[237]: 939  LLC: 2048
rand_sets[237]: 939
Assign rand_sets[238]: 355  LLC: 2048
rand_sets[238]: 355
Assign rand_sets[239]: 1092  LLC: 2048
rand_sets[239]: 1092
Assign rand_sets[240]: 850  LLC: 2048
rand_sets[240]: 850
Assign rand_sets[241]: 102  LLC: 2048
rand_sets[241]: 102
Assign rand_sets[242]: 1763  LLC: 2048
rand_sets[242]: 1763
Assign rand_sets[243]: 668  LLC: 2048
Assign rand_sets[243]: 51  LLC: 2048
rand_sets[243]: 51
Assign rand_sets[244]: 1317  LLC: 2048
rand_sets[244]: 1317
Assign rand_sets[245]: 2041  LLC: 2048
rand_sets[245]: 2041
Assign rand_sets[246]: 1374  LLC: 2048
rand_sets[246]: 1374
Assign rand_sets[247]: 682  LLC: 2048
rand_sets[247]: 682
Assign rand_sets[248]: 1466  LLC: 2048
rand_sets[248]: 1466
Assign rand_sets[249]: 1139  LLC: 2048
rand_sets[249]: 1139
Assign rand_sets[250]: 1632  LLC: 2048
rand_sets[250]: 1632
Assign rand_sets[251]: 1117  LLC: 2048
rand_sets[251]: 1117
Assign rand_sets[252]: 1611  LLC: 2048
rand_sets[252]: 1611
Assign rand_sets[253]: 1905  LLC: 2048
rand_sets[253]: 1905
Assign rand_sets[254]: 1662  LLC: 2048
Assign rand_sets[254]: 446  LLC: 2048
rand_sets[254]: 446
Assign rand_sets[255]: 1705  LLC: 2048
rand_sets[255]: 1705
Heartbeat CPU 0 instructions: 10000001 cycles: 2768986 heartbeat IPC: 3.61143 cumulative IPC: 3.61143 (Simulation time: 0 hr 19 min 2 sec) 

Warmup complete CPU 0 instructions: 10000001 cycles: 2768986 (Simulation time: 0 hr 19 min 2 sec) 

Heartbeat CPU 0 instructions: 20000000 cycles: 24445047 heartbeat IPC: 0.461338 cumulative IPC: 0.461338 (Simulation time: 0 hr 37 min 39 sec) 
Heartbeat CPU 0 instructions: 30000000 cycles: 45456160 heartbeat IPC: 0.475939 cumulative IPC: 0.468525 (Simulation time: 0 hr 56 min 3 sec) 
Heartbeat CPU 0 instructions: 40000000 cycles: 67129015 heartbeat IPC: 0.461407 cumulative IPC: 0.466128 (Simulation time: 1 hr 14 min 44 sec) 
Heartbeat CPU 0 instructions: 50000000 cycles: 88042094 heartbeat IPC: 0.47817 cumulative IPC: 0.469081 (Simulation time: 1 hr 33 min 14 sec) 
Heartbeat CPU 0 instructions: 60000001 cycles: 109391120 heartbeat IPC: 0.468405 cumulative IPC: 0.468946 (Simulation time: 1 hr 49 min 56 sec) 
Finished CPU 0 instructions: 50000000 cycles: 106622134 cumulative IPC: 0.468946 (Simulation time: 1 hr 49 min 56 sec) 

ChampSim completed all CPUs

Region of Interest Statistics

CPU 0 cumulative IPC: 0.468946 instructions: 50000000 cycles: 106622134
ITLB TOTAL     ACCESS:    8921530  HIT:    8417866  MISS:     503664  HIT %:    94.3545  MISS %:    5.64549   MPKI: 10.0733
ITLB LOAD TRANSLATION ACCESS:    8921530  HIT:    8417866  MISS:     503664  HIT %:    94.3545  MISS %:    5.64549   MPKI: 10.0733
ITLB PREFETCH  REQUESTED:          0  ISSUED:          0  USEFUL:          0  USELESS:          0
ITLB USEFUL LOAD PREFETCHES:          0 PREFETCH ISSUED TO LOWER LEVEL:          0  ACCURACY: -nan
ITLB TIMELY PREFETCHES:          0 LATE PREFETCHES: 0 DROPPED PREFETCHES: 0
ITLB PREFETCHES SAME FILL-ORIGIN LEVEL: 0 DIFFERENT FILL-ORIGIN LEVEL: 0
ITLB AVERAGE MISS LATENCY: 9.10259 cycles
ITLB RQ	ACCESS:   10586731	FORWARD:          0	MERGED:    1541328	TO_CACHE:    9045403

DTLB TOTAL     ACCESS:   10617914  HIT:   10167962  MISS:     449952  HIT %:    95.7623  MISS %:    4.23767   MPKI: 8.99904
DTLB LOAD TRANSLATION ACCESS:   10617914  HIT:   10167962  MISS:     449952  HIT %:    95.7623  MISS %:    4.23767   MPKI: 8.99904
DTLB PREFETCH  REQUESTED:          0  ISSUED:          0  USEFUL:          0  USELESS:          0
DTLB USEFUL LOAD PREFETCHES:          0 PREFETCH ISSUED TO LOWER LEVEL:          0  ACCURACY: -nan
DTLB TIMELY PREFETCHES:          0 LATE PREFETCHES: 0 DROPPED PREFETCHES: 0
DTLB PREFETCHES SAME FILL-ORIGIN LEVEL: 0 DIFFERENT FILL-ORIGIN LEVEL: 0
DTLB AVERAGE MISS LATENCY: 11.0029 cycles
DTLB RQ	ACCESS:   14211921	FORWARD:          0	MERGED:    3582237	TO_CACHE:   10629684

STLB TOTAL     ACCESS:    1202146  HIT:    1193201  MISS:       8945  HIT %:    99.2559  MISS %:   0.744086   MPKI: 0.1789
STLB LOAD TRANSLATION ACCESS:     953616  HIT:     944671  MISS:       8945  HIT %:     99.062  MISS %:   0.938009   MPKI: 0.1789
STLB TRANSLATION FROM L1D PREFETCHER ACCESS:     248530  HIT:     248530  MISS:          0  HIT %:        100  MISS %:          0   MPKI: 0
STLB PREFETCH  REQUESTED:          0  ISSUED:          0  USEFUL:          0  USELESS:          0
STLB USEFUL LOAD PREFETCHES:          0 PREFETCH ISSUED TO LOWER LEVEL:          0  ACCURACY: -nan
STLB TIMELY PREFETCHES:          0 LATE PREFETCHES: 0 DROPPED PREFETCHES: 0
STLB PREFETCHES SAME FILL-ORIGIN LEVEL: 0 DIFFERENT FILL-ORIGIN LEVEL: 0
STLB AVERAGE MISS LATENCY: 103.954 cycles
STLB RQ	ACCESS:    1321262	FORWARD:          0	MERGED:     119116	TO_CACHE:    1202146

STLB Hit, L1D data hit: 0
STLB Hit, L2C data hit: 0
STLB Hit, LLC data hit: 0
STLB Hit, LLC data miss: 0
STLB STLB hints to L2: 0
L1D TOTAL     ACCESS:   14419526  HIT:   13481287  MISS:     938239  HIT %:    93.4933  MISS %:    6.50673   MPKI: 18.7648
L1D LOAD      ACCESS:    7755541  HIT:    7123133  MISS:     632408  HIT %:    91.8457  MISS %:    8.15427   MPKI: 12.6482
L1D RFO       ACCESS:    6309721  HIT:    6193469  MISS:     116252  HIT %:    98.1576  MISS %:    1.84243   MPKI: 2.32504
L1D PREFETCH  ACCESS:     354264  HIT:     164685  MISS:     189579  HIT %:    46.4865  MISS %:    53.5135   MPKI: 3.79158
L1D PREFETCH  REQUESTED:     736163  ISSUED:     735741  USEFUL:      26419  USELESS:     163166
L1D USEFUL LOAD PREFETCHES:      26419 PREFETCH ISSUED TO LOWER LEVEL:     189967  ACCURACY: 13.9072
L1D TIMELY PREFETCHES:      26419 LATE PREFETCHES: 2795 DROPPED PREFETCHES: 0
L1D PREFETCHES SAME FILL-ORIGIN LEVEL: 189967 DIFFERENT FILL-ORIGIN LEVEL: 0
L1D AVERAGE MISS LATENCY: 23633.2 cycles
L1D RQ	ACCESS:   11118360	FORWARD:          0	MERGED:    3181439	TO_CACHE:    7788163
L1D WQ	ACCESS:    6513311	FORWARD:     149207	MERGED:      89553	TO_CACHE:    6423758
L1D PQ	ACCESS:     368095	FORWARD:          0	MERGED:          0	TO_CACHE:     367646

L1D UNIQUE REGIONS ACCESSED: 0
L1D REGIONS CONFLICTS: 0
L1D Cross Page Prefetch Requests: 0
L1D Same Page Prefetch Requests: 425667
L1D ROI Sum of L1D PQ occupancy: 6092111
L1D PREFETCHES PUSHED FROM L2C: 0
L1I TOTAL     ACCESS:    9853049  HIT:    6513542  MISS:    3339507  HIT %:    66.1069  MISS %:    33.8931   MPKI: 66.7901
L1I LOAD      ACCESS:    9853049  HIT:    6513542  MISS:    3339507  HIT %:    66.1069  MISS %:    33.8931   MPKI: 66.7901
L1I PREFETCH  REQUESTED:          0  ISSUED:          0  USEFUL:          0  USELESS:          0
L1I USEFUL LOAD PREFETCHES:          0 PREFETCH ISSUED TO LOWER LEVEL:          0  ACCURACY: -nan
L1I TIMELY PREFETCHES:          0 LATE PREFETCHES: 0 DROPPED PREFETCHES: 0
L1I PREFETCHES SAME FILL-ORIGIN LEVEL: 0 DIFFERENT FILL-ORIGIN LEVEL: 0
L1I AVERAGE MISS LATENCY: 14.8314 cycles
L1I RQ	ACCESS:   14698460	FORWARD:          0	MERGED:    4111729	TO_CACHE:   10586731

BTB TOTAL     ACCESS:    6340916  HIT:    5350576  MISS:     990340  HIT %:    84.3818  MISS %:    15.6182   MPKI: 19.8068
BTB BRANCH_DIRECT_JUMP	ACCESS:     773568  HIT:     696055  MISS:      77513
BTB BRANCH_INDIRECT	ACCESS:     108366  HIT:      73637  MISS:      34729
BTB BRANCH_CONDITIONAL	ACCESS:    2912413  HIT:    2697483  MISS:     214930
BTB BRANCH_DIRECT_CALL	ACCESS:    1062756  HIT:     948426  MISS:     114330
BTB BRANCH_INDIRECT_CALL	ACCESS:     210540  HIT:     143969  MISS:      66571
BTB BRANCH_RETURN	ACCESS:    1273273  HIT:     791006  MISS:     482267
BTB BRANCH_OTHER ACCESS:          0  HIT:          0  MISS:          0

L2C TOTAL     ACCESS:    5101642  HIT:    4787846  MISS:     313796  HIT %:    93.8491  MISS %:    6.15088   MPKI: 6.27592
L2C LOAD      ACCESS:    3971856  HIT:    3818266  MISS:     153590  HIT %:     96.133  MISS %:    3.86696   MPKI: 3.0718
L2C DATA LOAD MPKI: 2.2846
L2C INSTRUCTION LOAD MPKI: 0.7872
L2C RFO       ACCESS:     115863  HIT:      94643  MISS:      21220  HIT %:    81.6853  MISS %:    18.3147   MPKI: 0.4244
L2C PREFETCH  ACCESS:     726038  HIT:     593772  MISS:     132266  HIT %:    81.7825  MISS %:    18.2175   MPKI: 2.64532
L2C DATA PREFETCH MPKI: 2.64532
L2C INSTRUCTION PREFETCH MPKI: 0
L2C WRITEBACK ACCESS:     278283  HIT:     275703  MISS:       2580  HIT %:    99.0729  MISS %:   0.927114   MPKI: 0.0516
L2C LOAD TRANSLATION ACCESS:       9602  HIT:       5462  MISS:       4140  HIT %:     56.884  MISS %:     43.116   MPKI: 0.0828
L2C PREFETCH  REQUESTED:     553388  ISSUED:     553388  USEFUL:      50842  USELESS:      81511
L2C USEFUL LOAD PREFETCHES:      50842 PREFETCH ISSUED TO LOWER LEVEL:     136178  ACCURACY: 37.335
L2C TIMELY PREFETCHES:      50842 LATE PREFETCHES: 3911 DROPPED PREFETCHES: 0
L2C PREFETCHES SAME FILL-ORIGIN LEVEL: 94383 DIFFERENT FILL-ORIGIN LEVEL: 0
L2C AVERAGE MISS LATENCY: 153.446 cycles
L2C RQ	ACCESS:    4097383	FORWARD:          0	MERGED:          0	TO_CACHE:    4097322
L2C WQ	ACCESS:     278284	FORWARD:         61	MERGED:          0	TO_CACHE:     278284
L2C PQ	ACCESS:     743355	FORWARD:          0	MERGED:       4693	TO_CACHE:     738662

L2C Instructions Evicting Data 20133
L2C Translations Evicting Data 3904
L2C Data Evicting Data 244615
L2C Instructions Evicting Instructions 19008
L2C Translations Evicting Instructions 176
L2C Data Evicting Instructions 19258
L2C Instructions Evicting Translations 219
L2C Translations Evicting Translations 60
L2C Data Evicting Translations 3843
L2C Dense regions hint from L2: 0
PSCL5 TOTAL     ACCESS:       8945  HIT:       8945  MISS:          0  HIT %:        100  MISS %:          0   MPKI: 0
PSCL5 LOAD TRANSLATION ACCESS:       8945  HIT:       8945  MISS:          0  HIT %:        100  MISS %:          0   MPKI: 0
PSCL5 PREFETCH  REQUESTED:          0  ISSUED:          0  USEFUL:          0  USELESS:          0
PSCL5 USEFUL LOAD PREFETCHES:          0 PREFETCH ISSUED TO LOWER LEVEL:          0  ACCURACY: -nan
PSCL5 TIMELY PREFETCHES:          0 LATE PREFETCHES: 0 DROPPED PREFETCHES: 0
PSCL5 PREFETCHES SAME FILL-ORIGIN LEVEL: 0 DIFFERENT FILL-ORIGIN LEVEL: 0

PSCL4 TOTAL     ACCESS:       8529  HIT:       8493  MISS:         36  HIT %:    99.5779  MISS %:   0.422089   MPKI: 0.00072
PSCL4 LOAD TRANSLATION ACCESS:       8529  HIT:       8493  MISS:         36  HIT %:    99.5779  MISS %:   0.422089   MPKI: 0.00072
PSCL4 PREFETCH  REQUESTED:          0  ISSUED:          0  USEFUL:          0  USELESS:          0
PSCL4 USEFUL LOAD PREFETCHES:          0 PREFETCH ISSUED TO LOWER LEVEL:          0  ACCURACY: -nan
PSCL4 TIMELY PREFETCHES:          0 LATE PREFETCHES: 0 DROPPED PREFETCHES: 0
PSCL4 PREFETCHES SAME FILL-ORIGIN LEVEL: 0 DIFFERENT FILL-ORIGIN LEVEL: 0

PSCL3 TOTAL     ACCESS:       8697  HIT:       8661  MISS:         36  HIT %:    99.5861  MISS %:   0.413936   MPKI: 0.00072
PSCL3 LOAD TRANSLATION ACCESS:       8697  HIT:       8661  MISS:         36  HIT %:    99.5861  MISS %:   0.413936   MPKI: 0.00072
PSCL3 PREFETCH  REQUESTED:          0  ISSUED:          0  USEFUL:          0  USELESS:          0
PSCL3 USEFUL LOAD PREFETCHES:          0 PREFETCH ISSUED TO LOWER LEVEL:          0  ACCURACY: -nan
PSCL3 TIMELY PREFETCHES:          0 LATE PREFETCHES: 0 DROPPED PREFETCHES: 0
PSCL3 PREFETCHES SAME FILL-ORIGIN LEVEL: 0 DIFFERENT FILL-ORIGIN LEVEL: 0

PSCL2 TOTAL     ACCESS:       8945  HIT:       8355  MISS:        590  HIT %:    93.4041  MISS %:    6.59586   MPKI: 0.0118
PSCL2 LOAD TRANSLATION ACCESS:       8945  HIT:       8355  MISS:        590  HIT %:    93.4041  MISS %:    6.59586   MPKI: 0.0118
PSCL2 PREFETCH  REQUESTED:          0  ISSUED:          0  USEFUL:          0  USELESS:          0
PSCL2 USEFUL LOAD PREFETCHES:          0 PREFETCH ISSUED TO LOWER LEVEL:          0  ACCURACY: -nan
PSCL2 TIMELY PREFETCHES:          0 LATE PREFETCHES: 0 DROPPED PREFETCHES: 0
PSCL2 PREFETCHES SAME FILL-ORIGIN LEVEL: 0 DIFFERENT FILL-ORIGIN LEVEL: 0

LLC TOTAL     ACCESS:     412105  HIT:     134120  MISS:     277985  HIT %:    32.5451  MISS %:    67.4549   MPKI: 5.5597
LLC LOAD      ACCESS:     149814  HIT:      52328  MISS:      97486  HIT %:    34.9286  MISS %:    65.0714   MPKI: 1.94972
LLC RFO       ACCESS:      21082  HIT:       8913  MISS:      12169  HIT %:    42.2778  MISS %:    57.7222   MPKI: 0.24338
LLC PREFETCH  ACCESS:     136178  HIT:      29441  MISS:     106737  HIT %:    21.6195  MISS %:    78.3805   MPKI: 2.13474
LLC WRITEBACK ACCESS:     100891  HIT:      40767  MISS:      60124  HIT %:     40.407  MISS %:     59.593   MPKI: 1.20248
LLC LOAD TRANSLATION ACCESS:       4140  HIT:       2671  MISS:       1469  HIT %:    64.5169  MISS %:    35.4831   MPKI: 0.02938
LLC PREFETCH  REQUESTED:          0  ISSUED:          0  USEFUL:       3005  USELESS:     107629
LLC USEFUL LOAD PREFETCHES:       3005 PREFETCH ISSUED TO LOWER LEVEL:     106737  ACCURACY: 2.81533
LLC TIMELY PREFETCHES:       3005 LATE PREFETCHES: 0 DROPPED PREFETCHES: 0
LLC PREFETCHES SAME FILL-ORIGIN LEVEL: 0 DIFFERENT FILL-ORIGIN LEVEL: 0
LLC AVERAGE MISS LATENCY: 140.023 cycles
LLC RQ	ACCESS:     175039	FORWARD:          0	MERGED:          0	TO_CACHE:     175036
LLC WQ	ACCESS:     100892	FORWARD:          3	MERGED:          0	TO_CACHE:     100892
LLC PQ	ACCESS:     136178	FORWARD:          0	MERGED:          0	TO_CACHE:     136178

LLC Dense regions hint to LLC: 0

RAW hits: 962529
Loads Generated: 12080891
Loads sent to L1D: 11118360
Stores Generated: 6513315
Stores sent to L1D: 6513311
Major fault: 0 Minor fault: 5429
Allocated PAGES: 5429

stream: 
stream:times selected: 449075
stream:pref_filled: 122231
stream:pref_useful: 15361
stream:pref_late: 1086
stream:misses: 11841
stream:misses_by_poll: 0

CS: 
CS:times selected: 20100
CS:pref_filled: 10148
CS:pref_useful: 4044
CS:pref_late: 1270
CS:misses: 1107
CS:misses_by_poll: 25

CPLX: 
CPLX:times selected: 434329
CPLX:pref_filled: 82511
CPLX:pref_useful: 9126
CPLX:pref_late: 614
CPLX:misses: 53539
CPLX:misses_by_poll: 24

NL_L1: 
NL:times selected: 2191
NL:pref_filled: 1628
NL:pref_useful: 12
NL:pref_late: 0
NL:misses: 253
NL:misses_by_poll: 0

total selections: 905695
total_filled: 189579
total_useful: 26419
total_late: 2981
total_polluted: 49
total_misses_after_warmup: 665030
conflicts: 3239345
Degree Incremented Times: 0
Degree Decremented Times: 142296

L1 IP Table Write Accesses: 4323701
L1 IP Table Read Accesses: 1084356
L1 RST Write Accesses: 392014
L1 RST Read Accesses: 784028
L1 CSPT Write Accesses: 392014
L1 CSPT Read Accesses: 772548
L1 RR Filter Tag Write Accesses: 368517
L1 RR Filter Tag Read Accesses: 17470981
L1 IP Table Tag Write Accesses: 7788163
L1 IP Table Tag Read Accesses: 7788163
L1 RST Tag Write Accesses: 0
L1 RST Tag Read Accesses: 3948658
L1 RR Filter Write Accesses: 0
L1 RR Filter Read Accesses: 609436
test: 203376
L2 IP Table Read Accesses: 1075147
L2 IP Table Write Accesses: 1463504
L2 IP Table Tag Read Accesses: 816594
L2 IP Table Tag Write Accesses: 816594

DRAM Statistics
 CHANNEL 0
 RQ ROW_BUFFER_HIT:      59307  ROW_BUFFER_MISS:     158547
 DBUS_CONGESTED:        209
 WQ ROW_BUFFER_HIT:      15744  ROW_BUFFER_MISS:      58900  FULL:          0

 AVG_CONGESTED_CYCLE: 4
 All warmup complete: 2
Channel 0 Bank busy for read cycles: 0
Channel 0 Bank busy for write cycles: 0
Channel 0
Rank 0
0banks busy for read cycles: 86831803
0banks busy for write cycles: 20454
1banks busy for read cycles: 6058986
1banks busy for write cycles: 2924993
2banks busy for read cycles: 4261246
2banks busy for write cycles: 1232278
3banks busy for read cycles: 1504171
3banks busy for write cycles: 685554
4banks busy for read cycles: 684968
4banks busy for write cycles: 433967
5banks busy for read cycles: 386155
5banks busy for write cycles: 306465
6banks busy for read cycles: 203082
6banks busy for write cycles: 260500
7banks busy for read cycles: 155664
7banks busy for write cycles: 296655
8banks busy for read cycles: 102078
8banks busy for write cycles: 273116

CPU 0 Branch Prediction Accuracy: 93.023% MPKI: 13.5823 Average ROB Occupancy at Mispredict: 21.2337
Branch types
NOT_BRANCH: 40266107 80.5322%
BRANCH_DIRECT_JUMP: 773568 1.54714%
BRANCH_INDIRECT: 108366 0.216732%
BRANCH_CONDITIONAL: 6305104 12.6102%
BRANCH_DIRECT_CALL: 1062756 2.12551%
BRANCH_INDIRECT_CALL: 210540 0.42108%
BRANCH_RETURN: 1273273 2.54655%
BRANCH_OTHER: 0 0%

@sumon_overall_L1D     26419      2795      2795    163166    189579    735741    736163
@Sumon_Early_by_class_L1D     12984      3850      7981         0
@Sumon_Late_by_class_L1D       929      1256       418         0

@Sumon_Early_by_cycle_L1D      6377      5312      4200      2041      2643      2513       900       686       193       999       445       110
@Sumon_Late_by_cycle_L1D       603       960       123       308       572        39
@Sumon_Early_stream_L1D      3486      3899      3178       451        59       157       470        99        79       723       313        70
@Sumon_Early_CS_L1D       804       440       445       653       436       883        78        87        14        10         0         0
@Sumon_Early_CPLX_L1D      2046       579       284       193      2143      1470       235       500       100       265       131        35
@Sumon_Late_stream_L1D       463       290        41        36        70        29
@Sumon_Late_CS_L1D        67       355        72       266       488         8
@Sumon_Late_CPLX_L1D        72       315        10         6        13         2
@sumon_overall_L2C     50842      3911         0     81511    132266    553388    553388
@Sumon_Early_by_class_L2C      1155        40      1152         0
@Sumon_Late_by_class_L2C         0         0         0         0

@Sumon_Early_by_cycle_L2C      6166      4914      4835      3008      2237      6060      1814       388      1441      5246     10666      4067
@Sumon_Late_by_cycle_L2C       362       200       119       862      2368         0
@Sumon_Early_stream_L2C         0         0         0         0         0         0         0         0         0        12       677       466
@Sumon_Early_CS_L2C         0         0         0         0         0         0         0         0         0         1        16        23
@Sumon_Early_CPLX_L2C         0         0         0         0         0         0         0         0         2        24       225       901
@Sumon_Late_stream_L2C         0         0         0         0         0         0
@Sumon_Late_CS_L2C         0         0         0         0         0         0
@Sumon_Late_CPLX_L2C         0         0         0         0         0         0
DRAM PAGES: 1048576
Allocated PAGES: 5429
