
*** ChampSim Multicore Out-of-Order Simulator ***

Warmup Instructions: 10000000
Simulation Instructions: 50000000
Number of CPUs: 1
LLC sets: 2048
LLC ways: 16
Off-chip DRAM Size: 4096 MB Channels: 1 Width: 64-bit Data Rate: 6400 MT/s
CPU 0 runs traces/clientserver/server_009.champsimtrace.xz
.xz
CPU 0 Bimodal branch predictor
BTB has LRU replacement policy
ITLB has LRU replacement policy
DTLB has LRU replacement policy
STLB has LRU replacement policy
L1I has LRU replacement policy
IP Table Entries: 256
L1D has LRU replacement policy
IP_Table L2 entries: 256
L2C has LRU replacement policy
Initialize SHIP state
Assign rand_sets[0]: 454  LLC: 2048
rand_sets[0]: 454
Assign rand_sets[1]: 1662  LLC: 2048
rand_sets[1]: 1662
Assign rand_sets[2]: 1921  LLC: 2048
rand_sets[2]: 1921
Assign rand_sets[3]: 1131  LLC: 2048
rand_sets[3]: 1131
Assign rand_sets[4]: 331  LLC: 2048
rand_sets[4]: 331
Assign rand_sets[5]: 1531  LLC: 2048
rand_sets[5]: 1531
Assign rand_sets[6]: 482  LLC: 2048
rand_sets[6]: 482
Assign rand_sets[7]: 1275  LLC: 2048
rand_sets[7]: 1275
Assign rand_sets[8]: 1876  LLC: 2048
rand_sets[8]: 1876
Assign rand_sets[9]: 2038  LLC: 2048
rand_sets[9]: 2038
Assign rand_sets[10]: 701  LLC: 2048
rand_sets[10]: 701
Assign rand_sets[11]: 479  LLC: 2048
rand_sets[11]: 479
Assign rand_sets[12]: 892  LLC: 2048
rand_sets[12]: 892
Assign rand_sets[13]: 1820  LLC: 2048
rand_sets[13]: 1820
Assign rand_sets[14]: 1505  LLC: 2048
rand_sets[14]: 1505
Assign rand_sets[15]: 1159  LLC: 2048
rand_sets[15]: 1159
Assign rand_sets[16]: 513  LLC: 2048
rand_sets[16]: 513
Assign rand_sets[17]: 703  LLC: 2048
rand_sets[17]: 703
Assign rand_sets[18]: 561  LLC: 2048
rand_sets[18]: 561
Assign rand_sets[19]: 990  LLC: 2048
rand_sets[19]: 990
Assign rand_sets[20]: 342  LLC: 2048
rand_sets[20]: 342
Assign rand_sets[21]: 882  LLC: 2048
rand_sets[21]: 882
Assign rand_sets[22]: 15  LLC: 2048
rand_sets[22]: 15
Assign rand_sets[23]: 71  LLC: 2048
rand_sets[23]: 71
Assign rand_sets[24]: 1127  LLC: 2048
rand_sets[24]: 1127
Assign rand_sets[25]: 1382  LLC: 2048
rand_sets[25]: 1382
Assign rand_sets[26]: 647  LLC: 2048
rand_sets[26]: 647
Assign rand_sets[27]: 857  LLC: 2048
rand_sets[27]: 857
Assign rand_sets[28]: 1450  LLC: 2048
rand_sets[28]: 1450
Assign rand_sets[29]: 1160  LLC: 2048
rand_sets[29]: 1160
Assign rand_sets[30]: 1852  LLC: 2048
rand_sets[30]: 1852
Assign rand_sets[31]: 1881  LLC: 2048
rand_sets[31]: 1881
Assign rand_sets[32]: 1770  LLC: 2048
rand_sets[32]: 1770
Assign rand_sets[33]: 1622  LLC: 2048
rand_sets[33]: 1622
Assign rand_sets[34]: 275  LLC: 2048
rand_sets[34]: 275
Assign rand_sets[35]: 635  LLC: 2048
rand_sets[35]: 635
Assign rand_sets[36]: 466  LLC: 2048
rand_sets[36]: 466
Assign rand_sets[37]: 1413  LLC: 2048
rand_sets[37]: 1413
Assign rand_sets[38]: 417  LLC: 2048
rand_sets[38]: 417
Assign rand_sets[39]: 472  LLC: 2048
rand_sets[39]: 472
Assign rand_sets[40]: 1340  LLC: 2048
rand_sets[40]: 1340
Assign rand_sets[41]: 852  LLC: 2048
rand_sets[41]: 852
Assign rand_sets[42]: 1365  LLC: 2048
rand_sets[42]: 1365
Assign rand_sets[43]: 47  LLC: 2048
rand_sets[43]: 47
Assign rand_sets[44]: 823  LLC: 2048
rand_sets[44]: 823
Assign rand_sets[45]: 686  LLC: 2048
rand_sets[45]: 686
Assign rand_sets[46]: 1637  LLC: 2048
rand_sets[46]: 1637
Assign rand_sets[47]: 1115  LLC: 2048
rand_sets[47]: 1115
Assign rand_sets[48]: 986  LLC: 2048
rand_sets[48]: 986
Assign rand_sets[49]: 258  LLC: 2048
rand_sets[49]: 258
Assign rand_sets[50]: 633  LLC: 2048
rand_sets[50]: 633
Assign rand_sets[51]: 920  LLC: 2048
rand_sets[51]: 920
Assign rand_sets[52]: 204  LLC: 2048
rand_sets[52]: 204
Assign rand_sets[53]: 227  LLC: 2048
rand_sets[53]: 227
Assign rand_sets[54]: 1818  LLC: 2048
rand_sets[54]: 1818
Assign rand_sets[55]: 886  LLC: 2048
rand_sets[55]: 886
Assign rand_sets[56]: 1422  LLC: 2048
rand_sets[56]: 1422
Assign rand_sets[57]: 607  LLC: 2048
rand_sets[57]: 607
Assign rand_sets[58]: 217  LLC: 2048
rand_sets[58]: 217
Assign rand_sets[59]: 1945  LLC: 2048
rand_sets[59]: 1945
Assign rand_sets[60]: 143  LLC: 2048
rand_sets[60]: 143
Assign rand_sets[61]: 1311  LLC: 2048
rand_sets[61]: 1311
Assign rand_sets[62]: 319  LLC: 2048
rand_sets[62]: 319
Assign rand_sets[63]: 1846  LLC: 2048
rand_sets[63]: 1846
Assign rand_sets[64]: 238  LLC: 2048
rand_sets[64]: 238
Assign rand_sets[65]: 67  LLC: 2048
rand_sets[65]: 67
Assign rand_sets[66]: 1912  LLC: 2048
rand_sets[66]: 1912
Assign rand_sets[67]: 1613  LLC: 2048
rand_sets[67]: 1613
Assign rand_sets[68]: 1293  LLC: 2048
rand_sets[68]: 1293
Assign rand_sets[69]: 1018  LLC: 2048
rand_sets[69]: 1018
Assign rand_sets[70]: 1982  LLC: 2048
rand_sets[70]: 1982
Assign rand_sets[71]: 1702  LLC: 2048
rand_sets[71]: 1702
Assign rand_sets[72]: 1498  LLC: 2048
rand_sets[72]: 1498
Assign rand_sets[73]: 228  LLC: 2048
rand_sets[73]: 228
Assign rand_sets[74]: 1414  LLC: 2048
rand_sets[74]: 1414
Assign rand_sets[75]: 1166  LLC: 2048
rand_sets[75]: 1166
Assign rand_sets[76]: 732  LLC: 2048
rand_sets[76]: 732
Assign rand_sets[77]: 297  LLC: 2048
rand_sets[77]: 297
Assign rand_sets[78]: 1133  LLC: 2048
rand_sets[78]: 1133
Assign rand_sets[79]: 846  LLC: 2048
rand_sets[79]: 846
Assign rand_sets[80]: 767  LLC: 2048
rand_sets[80]: 767
Assign rand_sets[81]: 1878  LLC: 2048
rand_sets[81]: 1878
Assign rand_sets[82]: 993  LLC: 2048
rand_sets[82]: 993
Assign rand_sets[83]: 1392  LLC: 2048
rand_sets[83]: 1392
Assign rand_sets[84]: 1568  LLC: 2048
rand_sets[84]: 1568
Assign rand_sets[85]: 1787  LLC: 2048
rand_sets[85]: 1787
Assign rand_sets[86]: 399  LLC: 2048
rand_sets[86]: 399
Assign rand_sets[87]: 1201  LLC: 2048
rand_sets[87]: 1201
Assign rand_sets[88]: 856  LLC: 2048
rand_sets[88]: 856
Assign rand_sets[89]: 773  LLC: 2048
rand_sets[89]: 773
Assign rand_sets[90]: 1680  LLC: 2048
rand_sets[90]: 1680
Assign rand_sets[91]: 1477  LLC: 2048
rand_sets[91]: 1477
Assign rand_sets[92]: 9  LLC: 2048
rand_sets[92]: 9
Assign rand_sets[93]: 1500  LLC: 2048
rand_sets[93]: 1500
Assign rand_sets[94]: 851  LLC: 2048
rand_sets[94]: 851
Assign rand_sets[95]: 973  LLC: 2048
rand_sets[95]: 973
Assign rand_sets[96]: 938  LLC: 2048
rand_sets[96]: 938
Assign rand_sets[97]: 1851  LLC: 2048
rand_sets[97]: 1851
Assign rand_sets[98]: 1608  LLC: 2048
rand_sets[98]: 1608
Assign rand_sets[99]: 1945  LLC: 2048
Assign rand_sets[99]: 1106  LLC: 2048
rand_sets[99]: 1106
Assign rand_sets[100]: 979  LLC: 2048
rand_sets[100]: 979
Assign rand_sets[101]: 338  LLC: 2048
rand_sets[101]: 338
Assign rand_sets[102]: 1693  LLC: 2048
rand_sets[102]: 1693
Assign rand_sets[103]: 6  LLC: 2048
rand_sets[103]: 6
Assign rand_sets[104]: 671  LLC: 2048
rand_sets[104]: 671
Assign rand_sets[105]: 490  LLC: 2048
rand_sets[105]: 490
Assign rand_sets[106]: 1461  LLC: 2048
rand_sets[106]: 1461
Assign rand_sets[107]: 1730  LLC: 2048
rand_sets[107]: 1730
Assign rand_sets[108]: 1030  LLC: 2048
rand_sets[108]: 1030
Assign rand_sets[109]: 19  LLC: 2048
rand_sets[109]: 19
Assign rand_sets[110]: 920  LLC: 2048
Assign rand_sets[110]: 329  LLC: 2048
rand_sets[110]: 329
Assign rand_sets[111]: 1714  LLC: 2048
rand_sets[111]: 1714
Assign rand_sets[112]: 1  LLC: 2048
rand_sets[112]: 1
Assign rand_sets[113]: 1822  LLC: 2048
rand_sets[113]: 1822
Assign rand_sets[114]: 172  LLC: 2048
rand_sets[114]: 172
Assign rand_sets[115]: 1586  LLC: 2048
rand_sets[115]: 1586
Assign rand_sets[116]: 648  LLC: 2048
rand_sets[116]: 648
Assign rand_sets[117]: 1329  LLC: 2048
rand_sets[117]: 1329
Assign rand_sets[118]: 668  LLC: 2048
rand_sets[118]: 668
Assign rand_sets[119]: 1874  LLC: 2048
rand_sets[119]: 1874
Assign rand_sets[120]: 70  LLC: 2048
rand_sets[120]: 70
Assign rand_sets[121]: 661  LLC: 2048
rand_sets[121]: 661
Assign rand_sets[122]: 1649  LLC: 2048
rand_sets[122]: 1649
Assign rand_sets[123]: 1590  LLC: 2048
rand_sets[123]: 1590
Assign rand_sets[124]: 911  LLC: 2048
rand_sets[124]: 911
Assign rand_sets[125]: 1367  LLC: 2048
rand_sets[125]: 1367
Assign rand_sets[126]: 1782  LLC: 2048
rand_sets[126]: 1782
Assign rand_sets[127]: 569  LLC: 2048
rand_sets[127]: 569
Assign rand_sets[128]: 1309  LLC: 2048
rand_sets[128]: 1309
Assign rand_sets[129]: 534  LLC: 2048
rand_sets[129]: 534
Assign rand_sets[130]: 1274  LLC: 2048
rand_sets[130]: 1274
Assign rand_sets[131]: 904  LLC: 2048
rand_sets[131]: 904
Assign rand_sets[132]: 1908  LLC: 2048
rand_sets[132]: 1908
Assign rand_sets[133]: 245  LLC: 2048
rand_sets[133]: 245
Assign rand_sets[134]: 1688  LLC: 2048
rand_sets[134]: 1688
Assign rand_sets[135]: 1660  LLC: 2048
rand_sets[135]: 1660
Assign rand_sets[136]: 1303  LLC: 2048
rand_sets[136]: 1303
Assign rand_sets[137]: 1628  LLC: 2048
rand_sets[137]: 1628
Assign rand_sets[138]: 1857  LLC: 2048
rand_sets[138]: 1857
Assign rand_sets[139]: 187  LLC: 2048
rand_sets[139]: 187
Assign rand_sets[140]: 1389  LLC: 2048
rand_sets[140]: 1389
Assign rand_sets[141]: 881  LLC: 2048
rand_sets[141]: 881
Assign rand_sets[142]: 1166  LLC: 2048
Assign rand_sets[142]: 1039  LLC: 2048
rand_sets[142]: 1039
Assign rand_sets[143]: 1136  LLC: 2048
rand_sets[143]: 1136
Assign rand_sets[144]: 601  LLC: 2048
rand_sets[144]: 601
Assign rand_sets[145]: 967  LLC: 2048
rand_sets[145]: 967
Assign rand_sets[146]: 769  LLC: 2048
rand_sets[146]: 769
Assign rand_sets[147]: 283  LLC: 2048
rand_sets[147]: 283
Assign rand_sets[148]: 559  LLC: 2048
rand_sets[148]: 559
Assign rand_sets[149]: 1075  LLC: 2048
rand_sets[149]: 1075
Assign rand_sets[150]: 829  LLC: 2048
rand_sets[150]: 829
Assign rand_sets[151]: 1681  LLC: 2048
rand_sets[151]: 1681
Assign rand_sets[152]: 1728  LLC: 2048
rand_sets[152]: 1728
Assign rand_sets[153]: 541  LLC: 2048
rand_sets[153]: 541
Assign rand_sets[154]: 421  LLC: 2048
rand_sets[154]: 421
Assign rand_sets[155]: 1037  LLC: 2048
rand_sets[155]: 1037
Assign rand_sets[156]: 13  LLC: 2048
rand_sets[156]: 13
Assign rand_sets[157]: 1707  LLC: 2048
rand_sets[157]: 1707
Assign rand_sets[158]: 1075  LLC: 2048
Assign rand_sets[158]: 1933  LLC: 2048
rand_sets[158]: 1933
Assign rand_sets[159]: 1406  LLC: 2048
rand_sets[159]: 1406
Assign rand_sets[160]: 94  LLC: 2048
rand_sets[160]: 94
Assign rand_sets[161]: 1423  LLC: 2048
rand_sets[161]: 1423
Assign rand_sets[162]: 1854  LLC: 2048
rand_sets[162]: 1854
Assign rand_sets[163]: 230  LLC: 2048
rand_sets[163]: 230
Assign rand_sets[164]: 104  LLC: 2048
rand_sets[164]: 104
Assign rand_sets[165]: 1652  LLC: 2048
rand_sets[165]: 1652
Assign rand_sets[166]: 1446  LLC: 2048
rand_sets[166]: 1446
Assign rand_sets[167]: 1338  LLC: 2048
rand_sets[167]: 1338
Assign rand_sets[168]: 177  LLC: 2048
rand_sets[168]: 177
Assign rand_sets[169]: 195  LLC: 2048
rand_sets[169]: 195
Assign rand_sets[170]: 1171  LLC: 2048
rand_sets[170]: 1171
Assign rand_sets[171]: 1297  LLC: 2048
rand_sets[171]: 1297
Assign rand_sets[172]: 1704  LLC: 2048
rand_sets[172]: 1704
Assign rand_sets[173]: 100  LLC: 2048
rand_sets[173]: 100
Assign rand_sets[174]: 711  LLC: 2048
rand_sets[174]: 711
Assign rand_sets[175]: 1243  LLC: 2048
rand_sets[175]: 1243
Assign rand_sets[176]: 1738  LLC: 2048
rand_sets[176]: 1738
Assign rand_sets[177]: 1504  LLC: 2048
rand_sets[177]: 1504
Assign rand_sets[178]: 96  LLC: 2048
rand_sets[178]: 96
Assign rand_sets[179]: 1249  LLC: 2048
rand_sets[179]: 1249
Assign rand_sets[180]: 1267  LLC: 2048
rand_sets[180]: 1267
Assign rand_sets[181]: 1727  LLC: 2048
rand_sets[181]: 1727
Assign rand_sets[182]: 1545  LLC: 2048
rand_sets[182]: 1545
Assign rand_sets[183]: 1792  LLC: 2048
rand_sets[183]: 1792
Assign rand_sets[184]: 1383  LLC: 2048
rand_sets[184]: 1383
Assign rand_sets[185]: 1954  LLC: 2048
rand_sets[185]: 1954
Assign rand_sets[186]: 739  LLC: 2048
rand_sets[186]: 739
Assign rand_sets[187]: 1061  LLC: 2048
rand_sets[187]: 1061
Assign rand_sets[188]: 672  LLC: 2048
rand_sets[188]: 672
Assign rand_sets[189]: 1057  LLC: 2048
rand_sets[189]: 1057
Assign rand_sets[190]: 1329  LLC: 2048
Assign rand_sets[190]: 1415  LLC: 2048
rand_sets[190]: 1415
Assign rand_sets[191]: 981  LLC: 2048
rand_sets[191]: 981
Assign rand_sets[192]: 98  LLC: 2048
rand_sets[192]: 98
Assign rand_sets[193]: 453  LLC: 2048
rand_sets[193]: 453
Assign rand_sets[194]: 1448  LLC: 2048
rand_sets[194]: 1448
Assign rand_sets[195]: 79  LLC: 2048
rand_sets[195]: 79
Assign rand_sets[196]: 126  LLC: 2048
rand_sets[196]: 126
Assign rand_sets[197]: 1582  LLC: 2048
rand_sets[197]: 1582
Assign rand_sets[198]: 1289  LLC: 2048
rand_sets[198]: 1289
Assign rand_sets[199]: 875  LLC: 2048
rand_sets[199]: 875
Assign rand_sets[200]: 404  LLC: 2048
rand_sets[200]: 404
Assign rand_sets[201]: 415  LLC: 2048
rand_sets[201]: 415
Assign rand_sets[202]: 1712  LLC: 2048
rand_sets[202]: 1712
Assign rand_sets[203]: 1389  LLC: 2048
Assign rand_sets[203]: 169  LLC: 2048
rand_sets[203]: 169
Assign rand_sets[204]: 158  LLC: 2048
rand_sets[204]: 158
Assign rand_sets[205]: 90  LLC: 2048
rand_sets[205]: 90
Assign rand_sets[206]: 1291  LLC: 2048
rand_sets[206]: 1291
Assign rand_sets[207]: 838  LLC: 2048
rand_sets[207]: 838
Assign rand_sets[208]: 1904  LLC: 2048
rand_sets[208]: 1904
Assign rand_sets[209]: 640  LLC: 2048
rand_sets[209]: 640
Assign rand_sets[210]: 1462  LLC: 2048
rand_sets[210]: 1462
Assign rand_sets[211]: 1487  LLC: 2048
rand_sets[211]: 1487
Assign rand_sets[212]: 1863  LLC: 2048
rand_sets[212]: 1863
Assign rand_sets[213]: 1036  LLC: 2048
rand_sets[213]: 1036
Assign rand_sets[214]: 1702  LLC: 2048
Assign rand_sets[214]: 933  LLC: 2048
rand_sets[214]: 933
Assign rand_sets[215]: 554  LLC: 2048
rand_sets[215]: 554
Assign rand_sets[216]: 1496  LLC: 2048
rand_sets[216]: 1496
Assign rand_sets[217]: 1708  LLC: 2048
rand_sets[217]: 1708
Assign rand_sets[218]: 1275  LLC: 2048
Assign rand_sets[218]: 416  LLC: 2048
rand_sets[218]: 416
Assign rand_sets[219]: 491  LLC: 2048
rand_sets[219]: 491
Assign rand_sets[220]: 183  LLC: 2048
rand_sets[220]: 183
Assign rand_sets[221]: 1657  LLC: 2048
rand_sets[221]: 1657
Assign rand_sets[222]: 1060  LLC: 2048
rand_sets[222]: 1060
Assign rand_sets[223]: 626  LLC: 2048
rand_sets[223]: 626
Assign rand_sets[224]: 1315  LLC: 2048
rand_sets[224]: 1315
Assign rand_sets[225]: 1682  LLC: 2048
rand_sets[225]: 1682
Assign rand_sets[226]: 1352  LLC: 2048
rand_sets[226]: 1352
Assign rand_sets[227]: 1152  LLC: 2048
rand_sets[227]: 1152
Assign rand_sets[228]: 965  LLC: 2048
rand_sets[228]: 965
Assign rand_sets[229]: 1190  LLC: 2048
rand_sets[229]: 1190
Assign rand_sets[230]: 1191  LLC: 2048
rand_sets[230]: 1191
Assign rand_sets[231]: 645  LLC: 2048
rand_sets[231]: 645
Assign rand_sets[232]: 695  LLC: 2048
rand_sets[232]: 695
Assign rand_sets[233]: 1495  LLC: 2048
rand_sets[233]: 1495
Assign rand_sets[234]: 1932  LLC: 2048
rand_sets[234]: 1932
Assign rand_sets[235]: 656  LLC: 2048
rand_sets[235]: 656
Assign rand_sets[236]: 1508  LLC: 2048
rand_sets[236]: 1508
Assign rand_sets[237]: 939  LLC: 2048
rand_sets[237]: 939
Assign rand_sets[238]: 355  LLC: 2048
rand_sets[238]: 355
Assign rand_sets[239]: 1092  LLC: 2048
rand_sets[239]: 1092
Assign rand_sets[240]: 850  LLC: 2048
rand_sets[240]: 850
Assign rand_sets[241]: 102  LLC: 2048
rand_sets[241]: 102
Assign rand_sets[242]: 1763  LLC: 2048
rand_sets[242]: 1763
Assign rand_sets[243]: 668  LLC: 2048
Assign rand_sets[243]: 51  LLC: 2048
rand_sets[243]: 51
Assign rand_sets[244]: 1317  LLC: 2048
rand_sets[244]: 1317
Assign rand_sets[245]: 2041  LLC: 2048
rand_sets[245]: 2041
Assign rand_sets[246]: 1374  LLC: 2048
rand_sets[246]: 1374
Assign rand_sets[247]: 682  LLC: 2048
rand_sets[247]: 682
Assign rand_sets[248]: 1466  LLC: 2048
rand_sets[248]: 1466
Assign rand_sets[249]: 1139  LLC: 2048
rand_sets[249]: 1139
Assign rand_sets[250]: 1632  LLC: 2048
rand_sets[250]: 1632
Assign rand_sets[251]: 1117  LLC: 2048
rand_sets[251]: 1117
Assign rand_sets[252]: 1611  LLC: 2048
rand_sets[252]: 1611
Assign rand_sets[253]: 1905  LLC: 2048
rand_sets[253]: 1905
Assign rand_sets[254]: 1662  LLC: 2048
Assign rand_sets[254]: 446  LLC: 2048
rand_sets[254]: 446
Assign rand_sets[255]: 1705  LLC: 2048
rand_sets[255]: 1705
Heartbeat CPU 0 instructions: 10000001 cycles: 2770724 heartbeat IPC: 3.60917 cumulative IPC: 3.60917 (Simulation time: 0 hr 17 min 12 sec) 

Warmup complete CPU 0 instructions: 10000001 cycles: 2770724 (Simulation time: 0 hr 17 min 12 sec) 

Heartbeat CPU 0 instructions: 20000003 cycles: 23372005 heartbeat IPC: 0.485407 cumulative IPC: 0.485407 (Simulation time: 0 hr 35 min 5 sec) 
Heartbeat CPU 0 instructions: 30000002 cycles: 44159747 heartbeat IPC: 0.481053 cumulative IPC: 0.48322 (Simulation time: 0 hr 53 min 32 sec) 
Heartbeat CPU 0 instructions: 40000000 cycles: 65373421 heartbeat IPC: 0.471394 cumulative IPC: 0.479213 (Simulation time: 1 hr 11 min 37 sec) 
Heartbeat CPU 0 instructions: 50000002 cycles: 85811378 heartbeat IPC: 0.489286 cumulative IPC: 0.481692 (Simulation time: 1 hr 29 min 49 sec) 
Heartbeat CPU 0 instructions: 60000001 cycles: 112008199 heartbeat IPC: 0.381726 cumulative IPC: 0.457718 (Simulation time: 1 hr 50 min 45 sec) 
Finished CPU 0 instructions: 50000000 cycles: 109237475 cumulative IPC: 0.457718 (Simulation time: 1 hr 50 min 45 sec) 

ChampSim completed all CPUs

Region of Interest Statistics

CPU 0 cumulative IPC: 0.457718 instructions: 50000000 cycles: 109237475
ITLB TOTAL     ACCESS:    8297588  HIT:    8112435  MISS:     185153  HIT %:    97.7686  MISS %:    2.23141   MPKI: 3.70306
ITLB LOAD TRANSLATION ACCESS:    8297588  HIT:    8112435  MISS:     185153  HIT %:    97.7686  MISS %:    2.23141   MPKI: 3.70306
ITLB PREFETCH  REQUESTED:          0  ISSUED:          0  USEFUL:          0  USELESS:          0
ITLB USEFUL LOAD PREFETCHES:          0 PREFETCH ISSUED TO LOWER LEVEL:          0  ACCURACY: -nan
ITLB TIMELY PREFETCHES:          0 LATE PREFETCHES: 0 DROPPED PREFETCHES: 0
ITLB PREFETCHES SAME FILL-ORIGIN LEVEL: 0 DIFFERENT FILL-ORIGIN LEVEL: 0
ITLB AVERAGE MISS LATENCY: 17.6943 cycles
ITLB RQ	ACCESS:   10024494	FORWARD:          0	MERGED:    1679072	TO_CACHE:    8345422

DTLB TOTAL     ACCESS:   10479933  HIT:    9439250  MISS:    1040683  HIT %:    90.0698  MISS %:    9.93024   MPKI: 20.8137
DTLB LOAD TRANSLATION ACCESS:   10479933  HIT:    9439250  MISS:    1040683  HIT %:    90.0698  MISS %:    9.93024   MPKI: 20.8137
DTLB PREFETCH  REQUESTED:          0  ISSUED:          0  USEFUL:          0  USELESS:          0
DTLB USEFUL LOAD PREFETCHES:          0 PREFETCH ISSUED TO LOWER LEVEL:          0  ACCURACY: -nan
DTLB TIMELY PREFETCHES:          0 LATE PREFETCHES: 0 DROPPED PREFETCHES: 0
DTLB PREFETCHES SAME FILL-ORIGIN LEVEL: 0 DIFFERENT FILL-ORIGIN LEVEL: 0
DTLB AVERAGE MISS LATENCY: 12.5489 cycles
DTLB RQ	ACCESS:   13115263	FORWARD:          0	MERGED:    2600625	TO_CACHE:   10514638

STLB TOTAL     ACCESS:    1979144  HIT:    1868031  MISS:     111113  HIT %:    94.3858  MISS %:    5.61419   MPKI: 2.22226
STLB LOAD TRANSLATION ACCESS:    1225836  HIT:    1114723  MISS:     111113  HIT %:    90.9357  MISS %:    9.06426   MPKI: 2.22226
STLB TRANSLATION FROM L1D PREFETCHER ACCESS:     753308  HIT:     753308  MISS:          0  HIT %:        100  MISS %:          0   MPKI: 0
STLB PREFETCH  REQUESTED:          0  ISSUED:          0  USEFUL:          0  USELESS:          0
STLB USEFUL LOAD PREFETCHES:          0 PREFETCH ISSUED TO LOWER LEVEL:          0  ACCURACY: -nan
STLB TIMELY PREFETCHES:          0 LATE PREFETCHES: 0 DROPPED PREFETCHES: 0
STLB PREFETCHES SAME FILL-ORIGIN LEVEL: 0 DIFFERENT FILL-ORIGIN LEVEL: 0
STLB AVERAGE MISS LATENCY: 47.5726 cycles
STLB RQ	ACCESS:    2656658	FORWARD:          0	MERGED:     677514	TO_CACHE:    1979144

STLB Hit, L1D data hit: 0
STLB Hit, L2C data hit: 0
STLB Hit, LLC data hit: 0
STLB Hit, LLC data miss: 0
STLB STLB hints to L2: 0
L1D TOTAL     ACCESS:   14377325  HIT:   12374640  MISS:    2002685  HIT %:    86.0705  MISS %:    13.9295   MPKI: 40.0537
L1D LOAD      ACCESS:    8104475  HIT:    6980657  MISS:    1123818  HIT %:    86.1334  MISS %:    13.8666   MPKI: 22.4764
L1D RFO       ACCESS:    4854599  HIT:    4758422  MISS:      96177  HIT %:    98.0188  MISS %:    1.98115   MPKI: 1.92354
L1D PREFETCH  ACCESS:    1418251  HIT:     635561  MISS:     782690  HIT %:     44.813  MISS %:     55.187   MPKI: 15.6538
L1D PREFETCH  REQUESTED:    2861930  ISSUED:    2861806  USEFUL:      82962  USELESS:     699476
L1D USEFUL LOAD PREFETCHES:      82962 PREFETCH ISSUED TO LOWER LEVEL:     782863  ACCURACY: 10.5973
L1D TIMELY PREFETCHES:      82962 LATE PREFETCHES: 23661 DROPPED PREFETCHES: 0
L1D PREFETCHES SAME FILL-ORIGIN LEVEL: 782863 DIFFERENT FILL-ORIGIN LEVEL: 0
L1D AVERAGE MISS LATENCY: 4475.51 cycles
L1D RQ	ACCESS:   11462389	FORWARD:          0	MERGED:    3233792	TO_CACHE:    8153008
L1D WQ	ACCESS:    5045877	FORWARD:      75751	MERGED:      83622	TO_CACHE:    4962255
L1D PQ	ACCESS:    1430984	FORWARD:          0	MERGED:          0	TO_CACHE:    1430822

L1D UNIQUE REGIONS ACCESSED: 0
L1D REGIONS CONFLICTS: 0
L1D Cross Page Prefetch Requests: 0
L1D Same Page Prefetch Requests: 1479317
L1D ROI Sum of L1D PQ occupancy: 18792910
L1D PREFETCHES PUSHED FROM L2C: 0
L1I TOTAL     ACCESS:    9635091  HIT:    8421003  MISS:    1214088  HIT %:    87.3993  MISS %:    12.6007   MPKI: 24.2818
L1I LOAD      ACCESS:    9635091  HIT:    8421003  MISS:    1214088  HIT %:    87.3993  MISS %:    12.6007   MPKI: 24.2818
L1I PREFETCH  REQUESTED:          0  ISSUED:          0  USEFUL:          0  USELESS:          0
L1I USEFUL LOAD PREFETCHES:          0 PREFETCH ISSUED TO LOWER LEVEL:          0  ACCURACY: -nan
L1I TIMELY PREFETCHES:          0 LATE PREFETCHES: 0 DROPPED PREFETCHES: 0
L1I PREFETCHES SAME FILL-ORIGIN LEVEL: 0 DIFFERENT FILL-ORIGIN LEVEL: 0
L1I AVERAGE MISS LATENCY: 30.3071 cycles
L1I RQ	ACCESS:   14395815	FORWARD:          0	MERGED:    4371321	TO_CACHE:   10024494

BTB TOTAL     ACCESS:    5173686  HIT:    4398171  MISS:     775515  HIT %:    85.0104  MISS %:    14.9896   MPKI: 15.5103
BTB BRANCH_DIRECT_JUMP	ACCESS:     463492  HIT:     404158  MISS:      59334
BTB BRANCH_INDIRECT	ACCESS:     174870  HIT:     123350  MISS:      51520
BTB BRANCH_CONDITIONAL	ACCESS:    2812699  HIT:    2571063  MISS:     241636
BTB BRANCH_DIRECT_CALL	ACCESS:     679008  HIT:     567416  MISS:     111592
BTB BRANCH_INDIRECT_CALL	ACCESS:     165073  HIT:     152920  MISS:      12153
BTB BRANCH_RETURN	ACCESS:     878544  HIT:     579264  MISS:     299280
BTB BRANCH_OTHER ACCESS:          0  HIT:          0  MISS:          0

L2C TOTAL     ACCESS:    4008976  HIT:    2766674  MISS:    1242302  HIT %:     69.012  MISS %:     30.988   MPKI: 24.846
L2C LOAD      ACCESS:    2337894  HIT:    1485139  MISS:     852755  HIT %:    63.5247  MISS %:    36.4753   MPKI: 17.0551
L2C DATA LOAD MPKI: 4.76188
L2C INSTRUCTION LOAD MPKI: 12.2932
L2C RFO       ACCESS:      96003  HIT:      46881  MISS:      49122  HIT %:    48.8328  MISS %:    51.1672   MPKI: 0.98244
L2C PREFETCH  ACCESS:    1180889  HIT:     909031  MISS:     271858  HIT %:    76.9785  MISS %:    23.0215   MPKI: 5.43716
L2C DATA PREFETCH MPKI: 5.43716
L2C INSTRUCTION PREFETCH MPKI: 0
L2C WRITEBACK ACCESS:     253595  HIT:     250450  MISS:       3145  HIT %:    98.7598  MISS %:    1.24017   MPKI: 0.0629
L2C LOAD TRANSLATION ACCESS:     140595  HIT:      75173  MISS:      65422  HIT %:    53.4678  MISS %:    46.5322   MPKI: 1.30844
L2C PREFETCH  REQUESTED:     424545  ISSUED:     424545  USEFUL:      68429  USELESS:     202641
L2C USEFUL LOAD PREFETCHES:      68429 PREFETCH ISSUED TO LOWER LEVEL:     277528  ACCURACY: 24.6566
L2C TIMELY PREFETCHES:      68429 LATE PREFETCHES: 5670 DROPPED PREFETCHES: 0
L2C PREFETCHES SAME FILL-ORIGIN LEVEL: 209165 DIFFERENT FILL-ORIGIN LEVEL: 0
L2C AVERAGE MISS LATENCY: 40.6877 cycles
L2C RQ	ACCESS:    2574505	FORWARD:          0	MERGED:          0	TO_CACHE:    2574492
L2C WQ	ACCESS:     253595	FORWARD:         14	MERGED:          0	TO_CACHE:     253595
L2C PQ	ACCESS:    1207408	FORWARD:          0	MERGED:       4615	TO_CACHE:    1202792

L2C Instructions Evicting Data 278906
L2C Translations Evicting Data 30104
L2C Data Evicting Data 250778
L2C Instructions Evicting Instructions 303083
L2C Translations Evicting Instructions 32346
L2C Data Evicting Instructions 278680
L2C Instructions Evicting Translations 32672
L2C Translations Evicting Translations 2972
L2C Data Evicting Translations 29616
L2C Dense regions hint from L2: 0
PSCL5 TOTAL     ACCESS:     111113  HIT:     111113  MISS:          0  HIT %:        100  MISS %:          0   MPKI: 0
PSCL5 LOAD TRANSLATION ACCESS:     111113  HIT:     111113  MISS:          0  HIT %:        100  MISS %:          0   MPKI: 0
PSCL5 PREFETCH  REQUESTED:          0  ISSUED:          0  USEFUL:          0  USELESS:          0
PSCL5 USEFUL LOAD PREFETCHES:          0 PREFETCH ISSUED TO LOWER LEVEL:          0  ACCURACY: -nan
PSCL5 TIMELY PREFETCHES:          0 LATE PREFETCHES: 0 DROPPED PREFETCHES: 0
PSCL5 PREFETCHES SAME FILL-ORIGIN LEVEL: 0 DIFFERENT FILL-ORIGIN LEVEL: 0

PSCL4 TOTAL     ACCESS:     103017  HIT:     102700  MISS:        317  HIT %:    99.6923  MISS %:   0.307716   MPKI: 0.00634
PSCL4 LOAD TRANSLATION ACCESS:     103017  HIT:     102700  MISS:        317  HIT %:    99.6923  MISS %:   0.307716   MPKI: 0.00634
PSCL4 PREFETCH  REQUESTED:          0  ISSUED:          0  USEFUL:          0  USELESS:          0
PSCL4 USEFUL LOAD PREFETCHES:          0 PREFETCH ISSUED TO LOWER LEVEL:          0  ACCURACY: -nan
PSCL4 TIMELY PREFETCHES:          0 LATE PREFETCHES: 0 DROPPED PREFETCHES: 0
PSCL4 PREFETCHES SAME FILL-ORIGIN LEVEL: 0 DIFFERENT FILL-ORIGIN LEVEL: 0

PSCL3 TOTAL     ACCESS:     110282  HIT:     109398  MISS:        884  HIT %:    99.1984  MISS %:   0.801581   MPKI: 0.01768
PSCL3 LOAD TRANSLATION ACCESS:     110282  HIT:     109398  MISS:        884  HIT %:    99.1984  MISS %:   0.801581   MPKI: 0.01768
PSCL3 PREFETCH  REQUESTED:          0  ISSUED:          0  USEFUL:          0  USELESS:          0
PSCL3 USEFUL LOAD PREFETCHES:          0 PREFETCH ISSUED TO LOWER LEVEL:          0  ACCURACY: -nan
PSCL3 TIMELY PREFETCHES:          0 LATE PREFETCHES: 0 DROPPED PREFETCHES: 0
PSCL3 PREFETCHES SAME FILL-ORIGIN LEVEL: 0 DIFFERENT FILL-ORIGIN LEVEL: 0

PSCL2 TOTAL     ACCESS:     111113  HIT:      82758  MISS:      28355  HIT %:    74.4809  MISS %:    25.5191   MPKI: 0.5671
PSCL2 LOAD TRANSLATION ACCESS:     111113  HIT:      82758  MISS:      28355  HIT %:    74.4809  MISS %:    25.5191   MPKI: 0.5671
PSCL2 PREFETCH  REQUESTED:          0  ISSUED:          0  USEFUL:          0  USELESS:          0
PSCL2 USEFUL LOAD PREFETCHES:          0 PREFETCH ISSUED TO LOWER LEVEL:          0  ACCURACY: -nan
PSCL2 TIMELY PREFETCHES:          0 LATE PREFETCHES: 0 DROPPED PREFETCHES: 0
PSCL2 PREFETCHES SAME FILL-ORIGIN LEVEL: 0 DIFFERENT FILL-ORIGIN LEVEL: 0

LLC TOTAL     ACCESS:    1395277  HIT:    1306889  MISS:      88388  HIT %:    93.6652  MISS %:     6.3348   MPKI: 1.76776
LLC LOAD      ACCESS:     847246  HIT:     820420  MISS:      26826  HIT %:    96.8337  MISS %:    3.16626   MPKI: 0.53652
LLC RFO       ACCESS:      48961  HIT:      39861  MISS:       9100  HIT %:    81.4138  MISS %:    18.5862   MPKI: 0.182
LLC PREFETCH  ACCESS:     277528  HIT:     228890  MISS:      48638  HIT %:    82.4746  MISS %:    17.5254   MPKI: 0.97276
LLC WRITEBACK ACCESS:     156120  HIT:     154093  MISS:       2027  HIT %:    98.7016  MISS %:    1.29836   MPKI: 0.04054
LLC LOAD TRANSLATION ACCESS:      65422  HIT:      63625  MISS:       1797  HIT %:    97.2532  MISS %:    2.74678   MPKI: 0.03594
LLC PREFETCH  REQUESTED:          0  ISSUED:          0  USEFUL:       3624  USELESS:      45318
LLC USEFUL LOAD PREFETCHES:       3624 PREFETCH ISSUED TO LOWER LEVEL:      48638  ACCURACY: 7.45096
LLC TIMELY PREFETCHES:       3624 LATE PREFETCHES: 0 DROPPED PREFETCHES: 0
LLC PREFETCHES SAME FILL-ORIGIN LEVEL: 0 DIFFERENT FILL-ORIGIN LEVEL: 0
LLC AVERAGE MISS LATENCY: 153.856 cycles
LLC RQ	ACCESS:     961629	FORWARD:          0	MERGED:          0	TO_CACHE:     961629
LLC WQ	ACCESS:     156120	FORWARD:          0	MERGED:          0	TO_CACHE:     156120
LLC PQ	ACCESS:     277528	FORWARD:          0	MERGED:          0	TO_CACHE:     277528

LLC Dense regions hint to LLC: 0

RAW hits: 769378
Loads Generated: 12231765
Loads sent to L1D: 11462389
Stores Generated: 5045874
Stores sent to L1D: 5045877
Major fault: 0 Minor fault: 5580
Allocated PAGES: 5580

stream: 
stream:times selected: 1226656
stream:pref_filled: 492556
stream:pref_useful: 29782
stream:pref_late: 3248
stream:misses: 297176
stream:misses_by_poll: 0

CS: 
CS:times selected: 234713
CS:pref_filled: 121368
CS:pref_useful: 27958
CS:pref_late: 11603
CS:misses: 22696
CS:misses_by_poll: 0

CPLX: 
CPLX:times selected: 1107869
CPLX:pref_filled: 184425
CPLX:pref_useful: 30090
CPLX:pref_late: 8201
CPLX:misses: 320510
CPLX:misses_by_poll: 25

NL_L1: 
NL:times selected: 7671
NL:pref_filled: 1195
NL:pref_useful: 223
NL:pref_late: 32
NL:misses: 346
NL:misses_by_poll: 0

total selections: 2576909
total_filled: 782690
total_useful: 82962
total_late: 23301
total_polluted: 25
total_misses_after_warmup: 1172353
conflicts: 2384894
Degree Incremented Times: 0
Degree Decremented Times: 103737

L1 IP Table Write Accesses: 5233889
L1 IP Table Read Accesses: 2848995
L1 RST Write Accesses: 1159275
L1 RST Read Accesses: 2318550
L1 CSPT Write Accesses: 1159275
L1 CSPT Read Accesses: 2205522
L1 RR Filter Tag Write Accesses: 1431108
L1 RR Filter Tag Read Accesses: 60265647
L1 IP Table Tag Write Accesses: 8153010
L1 IP Table Tag Read Accesses: 8153010
L1 RST Tag Write Accesses: 0
L1 RST Tag Read Accesses: 10231414
L1 RR Filter Write Accesses: 0
L1 RR Filter Read Accesses: 1965298
test: 570444
L2 IP Table Read Accesses: 3370665
L2 IP Table Write Accesses: 3041873
L2 IP Table Tag Read Accesses: 1901635
L2 IP Table Tag Write Accesses: 1901635

DRAM Statistics
 CHANNEL 0
 RQ ROW_BUFFER_HIT:      16078  ROW_BUFFER_MISS:      70283
 DBUS_CONGESTED:         43
 WQ ROW_BUFFER_HIT:       6695  ROW_BUFFER_MISS:      45023  FULL:          0

 AVG_CONGESTED_CYCLE: 4
 All warmup complete: 2
Channel 0 Bank busy for read cycles: 0
Channel 0 Bank busy for write cycles: 0
Channel 0
Rank 0
0banks busy for read cycles: 95676856
0banks busy for write cycles: 27043
1banks busy for read cycles: 6017422
1banks busy for write cycles: 3561731
2banks busy for read cycles: 1571645
2banks busy for write cycles: 954287
3banks busy for read cycles: 381772
3banks busy for write cycles: 317681
4banks busy for read cycles: 131693
4banks busy for write cycles: 159315
5banks busy for read cycles: 40688
5banks busy for write cycles: 107796
6banks busy for read cycles: 18532
6banks busy for write cycles: 85580
7banks busy for read cycles: 10585
7banks busy for write cycles: 75500
8banks busy for read cycles: 16705
8banks busy for write cycles: 82645

CPU 0 Branch Prediction Accuracy: 93.4981% MPKI: 12.6299 Average ROB Occupancy at Mispredict: 24.4533
Branch types
NOT_BRANCH: 40287182 80.5744%
BRANCH_DIRECT_JUMP: 463492 0.926984%
BRANCH_INDIRECT: 174870 0.34974%
BRANCH_CONDITIONAL: 7351543 14.7031%
BRANCH_DIRECT_CALL: 679008 1.35802%
BRANCH_INDIRECT_CALL: 165073 0.330146%
BRANCH_RETURN: 878544 1.75709%
BRANCH_OTHER: 0 0%

@sumon_overall_L1D     82962     23661     23661    699476    782690   2861806   2861930
@Sumon_Early_by_class_L1D     26014     25514     29365        29
@Sumon_Late_by_class_L1D      3005     11411      8160        29

@Sumon_Early_by_cycle_L1D     51377      3331     13532      1948      1821      3516      1395      1475      2051      1691       657       168
@Sumon_Late_by_cycle_L1D     19049      1455      1520       162       596        12
@Sumon_Early_stream_L1D     12068      1831      1816      1413      1248      2277      1015      1164      1430      1233       398       121
@Sumon_Early_CS_L1D     21393       573      2271        94       216       633       126        68        54        18        62         6
@Sumon_Early_CPLX_L1D     17446       616      9186       199       136       418       202       212       419       362       135        34
@Sumon_Late_stream_L1D       551      1011      1112       108       222         1
@Sumon_Late_CS_L1D     10452       279       308        32       329        11
@Sumon_Late_CPLX_L1D      7981        84        63         9        23         0
@sumon_overall_L2C     68429      5670         0    202641    271858    424545    424545
@Sumon_Early_by_class_L2C      1291       393       549         0
@Sumon_Late_by_class_L2C         0         0         0         0

@Sumon_Early_by_cycle_L2C     11639      7717      8426      5270      3783      9734      4805      3428      2303      2560      1660      7104
@Sumon_Late_by_cycle_L2C      1289      1121       846      1052      1362         0
@Sumon_Early_stream_L2C         0         0         0         0         0         0         0         0         0        17        90      1184
@Sumon_Early_CS_L2C         0         0         0         0         0         0         0         0         2         1        62       328
@Sumon_Early_CPLX_L2C         0         0         0         0         0         0         0         0         0        13        51       485
@Sumon_Late_stream_L2C         0         0         0         0         0         0
@Sumon_Late_CS_L2C         0         0         0         0         0         0
@Sumon_Late_CPLX_L2C         0         0         0         0         0         0
DRAM PAGES: 1048576
Allocated PAGES: 5580
