
*** ChampSim Multicore Out-of-Order Simulator ***

Warmup Instructions: 10000000
Simulation Instructions: 50000000
Number of CPUs: 1
LLC sets: 2048
LLC ways: 16
Off-chip DRAM Size: 4096 MB Channels: 1 Width: 64-bit Data Rate: 6400 MT/s
CPU 0 runs traces/clientserver/server_023.champsimtrace.xz
.xz
CPU 0 Bimodal branch predictor
BTB has LRU replacement policy
ITLB has LRU replacement policy
DTLB has LRU replacement policy
STLB has LRU replacement policy
L1I has LRU replacement policy
IP Table Entries: 256
L1D has LRU replacement policy
IP_Table L2 entries: 256
L2C has LRU replacement policy
Initialize SHIP state
Assign rand_sets[0]: 454  LLC: 2048
rand_sets[0]: 454
Assign rand_sets[1]: 1662  LLC: 2048
rand_sets[1]: 1662
Assign rand_sets[2]: 1921  LLC: 2048
rand_sets[2]: 1921
Assign rand_sets[3]: 1131  LLC: 2048
rand_sets[3]: 1131
Assign rand_sets[4]: 331  LLC: 2048
rand_sets[4]: 331
Assign rand_sets[5]: 1531  LLC: 2048
rand_sets[5]: 1531
Assign rand_sets[6]: 482  LLC: 2048
rand_sets[6]: 482
Assign rand_sets[7]: 1275  LLC: 2048
rand_sets[7]: 1275
Assign rand_sets[8]: 1876  LLC: 2048
rand_sets[8]: 1876
Assign rand_sets[9]: 2038  LLC: 2048
rand_sets[9]: 2038
Assign rand_sets[10]: 701  LLC: 2048
rand_sets[10]: 701
Assign rand_sets[11]: 479  LLC: 2048
rand_sets[11]: 479
Assign rand_sets[12]: 892  LLC: 2048
rand_sets[12]: 892
Assign rand_sets[13]: 1820  LLC: 2048
rand_sets[13]: 1820
Assign rand_sets[14]: 1505  LLC: 2048
rand_sets[14]: 1505
Assign rand_sets[15]: 1159  LLC: 2048
rand_sets[15]: 1159
Assign rand_sets[16]: 513  LLC: 2048
rand_sets[16]: 513
Assign rand_sets[17]: 703  LLC: 2048
rand_sets[17]: 703
Assign rand_sets[18]: 561  LLC: 2048
rand_sets[18]: 561
Assign rand_sets[19]: 990  LLC: 2048
rand_sets[19]: 990
Assign rand_sets[20]: 342  LLC: 2048
rand_sets[20]: 342
Assign rand_sets[21]: 882  LLC: 2048
rand_sets[21]: 882
Assign rand_sets[22]: 15  LLC: 2048
rand_sets[22]: 15
Assign rand_sets[23]: 71  LLC: 2048
rand_sets[23]: 71
Assign rand_sets[24]: 1127  LLC: 2048
rand_sets[24]: 1127
Assign rand_sets[25]: 1382  LLC: 2048
rand_sets[25]: 1382
Assign rand_sets[26]: 647  LLC: 2048
rand_sets[26]: 647
Assign rand_sets[27]: 857  LLC: 2048
rand_sets[27]: 857
Assign rand_sets[28]: 1450  LLC: 2048
rand_sets[28]: 1450
Assign rand_sets[29]: 1160  LLC: 2048
rand_sets[29]: 1160
Assign rand_sets[30]: 1852  LLC: 2048
rand_sets[30]: 1852
Assign rand_sets[31]: 1881  LLC: 2048
rand_sets[31]: 1881
Assign rand_sets[32]: 1770  LLC: 2048
rand_sets[32]: 1770
Assign rand_sets[33]: 1622  LLC: 2048
rand_sets[33]: 1622
Assign rand_sets[34]: 275  LLC: 2048
rand_sets[34]: 275
Assign rand_sets[35]: 635  LLC: 2048
rand_sets[35]: 635
Assign rand_sets[36]: 466  LLC: 2048
rand_sets[36]: 466
Assign rand_sets[37]: 1413  LLC: 2048
rand_sets[37]: 1413
Assign rand_sets[38]: 417  LLC: 2048
rand_sets[38]: 417
Assign rand_sets[39]: 472  LLC: 2048
rand_sets[39]: 472
Assign rand_sets[40]: 1340  LLC: 2048
rand_sets[40]: 1340
Assign rand_sets[41]: 852  LLC: 2048
rand_sets[41]: 852
Assign rand_sets[42]: 1365  LLC: 2048
rand_sets[42]: 1365
Assign rand_sets[43]: 47  LLC: 2048
rand_sets[43]: 47
Assign rand_sets[44]: 823  LLC: 2048
rand_sets[44]: 823
Assign rand_sets[45]: 686  LLC: 2048
rand_sets[45]: 686
Assign rand_sets[46]: 1637  LLC: 2048
rand_sets[46]: 1637
Assign rand_sets[47]: 1115  LLC: 2048
rand_sets[47]: 1115
Assign rand_sets[48]: 986  LLC: 2048
rand_sets[48]: 986
Assign rand_sets[49]: 258  LLC: 2048
rand_sets[49]: 258
Assign rand_sets[50]: 633  LLC: 2048
rand_sets[50]: 633
Assign rand_sets[51]: 920  LLC: 2048
rand_sets[51]: 920
Assign rand_sets[52]: 204  LLC: 2048
rand_sets[52]: 204
Assign rand_sets[53]: 227  LLC: 2048
rand_sets[53]: 227
Assign rand_sets[54]: 1818  LLC: 2048
rand_sets[54]: 1818
Assign rand_sets[55]: 886  LLC: 2048
rand_sets[55]: 886
Assign rand_sets[56]: 1422  LLC: 2048
rand_sets[56]: 1422
Assign rand_sets[57]: 607  LLC: 2048
rand_sets[57]: 607
Assign rand_sets[58]: 217  LLC: 2048
rand_sets[58]: 217
Assign rand_sets[59]: 1945  LLC: 2048
rand_sets[59]: 1945
Assign rand_sets[60]: 143  LLC: 2048
rand_sets[60]: 143
Assign rand_sets[61]: 1311  LLC: 2048
rand_sets[61]: 1311
Assign rand_sets[62]: 319  LLC: 2048
rand_sets[62]: 319
Assign rand_sets[63]: 1846  LLC: 2048
rand_sets[63]: 1846
Assign rand_sets[64]: 238  LLC: 2048
rand_sets[64]: 238
Assign rand_sets[65]: 67  LLC: 2048
rand_sets[65]: 67
Assign rand_sets[66]: 1912  LLC: 2048
rand_sets[66]: 1912
Assign rand_sets[67]: 1613  LLC: 2048
rand_sets[67]: 1613
Assign rand_sets[68]: 1293  LLC: 2048
rand_sets[68]: 1293
Assign rand_sets[69]: 1018  LLC: 2048
rand_sets[69]: 1018
Assign rand_sets[70]: 1982  LLC: 2048
rand_sets[70]: 1982
Assign rand_sets[71]: 1702  LLC: 2048
rand_sets[71]: 1702
Assign rand_sets[72]: 1498  LLC: 2048
rand_sets[72]: 1498
Assign rand_sets[73]: 228  LLC: 2048
rand_sets[73]: 228
Assign rand_sets[74]: 1414  LLC: 2048
rand_sets[74]: 1414
Assign rand_sets[75]: 1166  LLC: 2048
rand_sets[75]: 1166
Assign rand_sets[76]: 732  LLC: 2048
rand_sets[76]: 732
Assign rand_sets[77]: 297  LLC: 2048
rand_sets[77]: 297
Assign rand_sets[78]: 1133  LLC: 2048
rand_sets[78]: 1133
Assign rand_sets[79]: 846  LLC: 2048
rand_sets[79]: 846
Assign rand_sets[80]: 767  LLC: 2048
rand_sets[80]: 767
Assign rand_sets[81]: 1878  LLC: 2048
rand_sets[81]: 1878
Assign rand_sets[82]: 993  LLC: 2048
rand_sets[82]: 993
Assign rand_sets[83]: 1392  LLC: 2048
rand_sets[83]: 1392
Assign rand_sets[84]: 1568  LLC: 2048
rand_sets[84]: 1568
Assign rand_sets[85]: 1787  LLC: 2048
rand_sets[85]: 1787
Assign rand_sets[86]: 399  LLC: 2048
rand_sets[86]: 399
Assign rand_sets[87]: 1201  LLC: 2048
rand_sets[87]: 1201
Assign rand_sets[88]: 856  LLC: 2048
rand_sets[88]: 856
Assign rand_sets[89]: 773  LLC: 2048
rand_sets[89]: 773
Assign rand_sets[90]: 1680  LLC: 2048
rand_sets[90]: 1680
Assign rand_sets[91]: 1477  LLC: 2048
rand_sets[91]: 1477
Assign rand_sets[92]: 9  LLC: 2048
rand_sets[92]: 9
Assign rand_sets[93]: 1500  LLC: 2048
rand_sets[93]: 1500
Assign rand_sets[94]: 851  LLC: 2048
rand_sets[94]: 851
Assign rand_sets[95]: 973  LLC: 2048
rand_sets[95]: 973
Assign rand_sets[96]: 938  LLC: 2048
rand_sets[96]: 938
Assign rand_sets[97]: 1851  LLC: 2048
rand_sets[97]: 1851
Assign rand_sets[98]: 1608  LLC: 2048
rand_sets[98]: 1608
Assign rand_sets[99]: 1945  LLC: 2048
Assign rand_sets[99]: 1106  LLC: 2048
rand_sets[99]: 1106
Assign rand_sets[100]: 979  LLC: 2048
rand_sets[100]: 979
Assign rand_sets[101]: 338  LLC: 2048
rand_sets[101]: 338
Assign rand_sets[102]: 1693  LLC: 2048
rand_sets[102]: 1693
Assign rand_sets[103]: 6  LLC: 2048
rand_sets[103]: 6
Assign rand_sets[104]: 671  LLC: 2048
rand_sets[104]: 671
Assign rand_sets[105]: 490  LLC: 2048
rand_sets[105]: 490
Assign rand_sets[106]: 1461  LLC: 2048
rand_sets[106]: 1461
Assign rand_sets[107]: 1730  LLC: 2048
rand_sets[107]: 1730
Assign rand_sets[108]: 1030  LLC: 2048
rand_sets[108]: 1030
Assign rand_sets[109]: 19  LLC: 2048
rand_sets[109]: 19
Assign rand_sets[110]: 920  LLC: 2048
Assign rand_sets[110]: 329  LLC: 2048
rand_sets[110]: 329
Assign rand_sets[111]: 1714  LLC: 2048
rand_sets[111]: 1714
Assign rand_sets[112]: 1  LLC: 2048
rand_sets[112]: 1
Assign rand_sets[113]: 1822  LLC: 2048
rand_sets[113]: 1822
Assign rand_sets[114]: 172  LLC: 2048
rand_sets[114]: 172
Assign rand_sets[115]: 1586  LLC: 2048
rand_sets[115]: 1586
Assign rand_sets[116]: 648  LLC: 2048
rand_sets[116]: 648
Assign rand_sets[117]: 1329  LLC: 2048
rand_sets[117]: 1329
Assign rand_sets[118]: 668  LLC: 2048
rand_sets[118]: 668
Assign rand_sets[119]: 1874  LLC: 2048
rand_sets[119]: 1874
Assign rand_sets[120]: 70  LLC: 2048
rand_sets[120]: 70
Assign rand_sets[121]: 661  LLC: 2048
rand_sets[121]: 661
Assign rand_sets[122]: 1649  LLC: 2048
rand_sets[122]: 1649
Assign rand_sets[123]: 1590  LLC: 2048
rand_sets[123]: 1590
Assign rand_sets[124]: 911  LLC: 2048
rand_sets[124]: 911
Assign rand_sets[125]: 1367  LLC: 2048
rand_sets[125]: 1367
Assign rand_sets[126]: 1782  LLC: 2048
rand_sets[126]: 1782
Assign rand_sets[127]: 569  LLC: 2048
rand_sets[127]: 569
Assign rand_sets[128]: 1309  LLC: 2048
rand_sets[128]: 1309
Assign rand_sets[129]: 534  LLC: 2048
rand_sets[129]: 534
Assign rand_sets[130]: 1274  LLC: 2048
rand_sets[130]: 1274
Assign rand_sets[131]: 904  LLC: 2048
rand_sets[131]: 904
Assign rand_sets[132]: 1908  LLC: 2048
rand_sets[132]: 1908
Assign rand_sets[133]: 245  LLC: 2048
rand_sets[133]: 245
Assign rand_sets[134]: 1688  LLC: 2048
rand_sets[134]: 1688
Assign rand_sets[135]: 1660  LLC: 2048
rand_sets[135]: 1660
Assign rand_sets[136]: 1303  LLC: 2048
rand_sets[136]: 1303
Assign rand_sets[137]: 1628  LLC: 2048
rand_sets[137]: 1628
Assign rand_sets[138]: 1857  LLC: 2048
rand_sets[138]: 1857
Assign rand_sets[139]: 187  LLC: 2048
rand_sets[139]: 187
Assign rand_sets[140]: 1389  LLC: 2048
rand_sets[140]: 1389
Assign rand_sets[141]: 881  LLC: 2048
rand_sets[141]: 881
Assign rand_sets[142]: 1166  LLC: 2048
Assign rand_sets[142]: 1039  LLC: 2048
rand_sets[142]: 1039
Assign rand_sets[143]: 1136  LLC: 2048
rand_sets[143]: 1136
Assign rand_sets[144]: 601  LLC: 2048
rand_sets[144]: 601
Assign rand_sets[145]: 967  LLC: 2048
rand_sets[145]: 967
Assign rand_sets[146]: 769  LLC: 2048
rand_sets[146]: 769
Assign rand_sets[147]: 283  LLC: 2048
rand_sets[147]: 283
Assign rand_sets[148]: 559  LLC: 2048
rand_sets[148]: 559
Assign rand_sets[149]: 1075  LLC: 2048
rand_sets[149]: 1075
Assign rand_sets[150]: 829  LLC: 2048
rand_sets[150]: 829
Assign rand_sets[151]: 1681  LLC: 2048
rand_sets[151]: 1681
Assign rand_sets[152]: 1728  LLC: 2048
rand_sets[152]: 1728
Assign rand_sets[153]: 541  LLC: 2048
rand_sets[153]: 541
Assign rand_sets[154]: 421  LLC: 2048
rand_sets[154]: 421
Assign rand_sets[155]: 1037  LLC: 2048
rand_sets[155]: 1037
Assign rand_sets[156]: 13  LLC: 2048
rand_sets[156]: 13
Assign rand_sets[157]: 1707  LLC: 2048
rand_sets[157]: 1707
Assign rand_sets[158]: 1075  LLC: 2048
Assign rand_sets[158]: 1933  LLC: 2048
rand_sets[158]: 1933
Assign rand_sets[159]: 1406  LLC: 2048
rand_sets[159]: 1406
Assign rand_sets[160]: 94  LLC: 2048
rand_sets[160]: 94
Assign rand_sets[161]: 1423  LLC: 2048
rand_sets[161]: 1423
Assign rand_sets[162]: 1854  LLC: 2048
rand_sets[162]: 1854
Assign rand_sets[163]: 230  LLC: 2048
rand_sets[163]: 230
Assign rand_sets[164]: 104  LLC: 2048
rand_sets[164]: 104
Assign rand_sets[165]: 1652  LLC: 2048
rand_sets[165]: 1652
Assign rand_sets[166]: 1446  LLC: 2048
rand_sets[166]: 1446
Assign rand_sets[167]: 1338  LLC: 2048
rand_sets[167]: 1338
Assign rand_sets[168]: 177  LLC: 2048
rand_sets[168]: 177
Assign rand_sets[169]: 195  LLC: 2048
rand_sets[169]: 195
Assign rand_sets[170]: 1171  LLC: 2048
rand_sets[170]: 1171
Assign rand_sets[171]: 1297  LLC: 2048
rand_sets[171]: 1297
Assign rand_sets[172]: 1704  LLC: 2048
rand_sets[172]: 1704
Assign rand_sets[173]: 100  LLC: 2048
rand_sets[173]: 100
Assign rand_sets[174]: 711  LLC: 2048
rand_sets[174]: 711
Assign rand_sets[175]: 1243  LLC: 2048
rand_sets[175]: 1243
Assign rand_sets[176]: 1738  LLC: 2048
rand_sets[176]: 1738
Assign rand_sets[177]: 1504  LLC: 2048
rand_sets[177]: 1504
Assign rand_sets[178]: 96  LLC: 2048
rand_sets[178]: 96
Assign rand_sets[179]: 1249  LLC: 2048
rand_sets[179]: 1249
Assign rand_sets[180]: 1267  LLC: 2048
rand_sets[180]: 1267
Assign rand_sets[181]: 1727  LLC: 2048
rand_sets[181]: 1727
Assign rand_sets[182]: 1545  LLC: 2048
rand_sets[182]: 1545
Assign rand_sets[183]: 1792  LLC: 2048
rand_sets[183]: 1792
Assign rand_sets[184]: 1383  LLC: 2048
rand_sets[184]: 1383
Assign rand_sets[185]: 1954  LLC: 2048
rand_sets[185]: 1954
Assign rand_sets[186]: 739  LLC: 2048
rand_sets[186]: 739
Assign rand_sets[187]: 1061  LLC: 2048
rand_sets[187]: 1061
Assign rand_sets[188]: 672  LLC: 2048
rand_sets[188]: 672
Assign rand_sets[189]: 1057  LLC: 2048
rand_sets[189]: 1057
Assign rand_sets[190]: 1329  LLC: 2048
Assign rand_sets[190]: 1415  LLC: 2048
rand_sets[190]: 1415
Assign rand_sets[191]: 981  LLC: 2048
rand_sets[191]: 981
Assign rand_sets[192]: 98  LLC: 2048
rand_sets[192]: 98
Assign rand_sets[193]: 453  LLC: 2048
rand_sets[193]: 453
Assign rand_sets[194]: 1448  LLC: 2048
rand_sets[194]: 1448
Assign rand_sets[195]: 79  LLC: 2048
rand_sets[195]: 79
Assign rand_sets[196]: 126  LLC: 2048
rand_sets[196]: 126
Assign rand_sets[197]: 1582  LLC: 2048
rand_sets[197]: 1582
Assign rand_sets[198]: 1289  LLC: 2048
rand_sets[198]: 1289
Assign rand_sets[199]: 875  LLC: 2048
rand_sets[199]: 875
Assign rand_sets[200]: 404  LLC: 2048
rand_sets[200]: 404
Assign rand_sets[201]: 415  LLC: 2048
rand_sets[201]: 415
Assign rand_sets[202]: 1712  LLC: 2048
rand_sets[202]: 1712
Assign rand_sets[203]: 1389  LLC: 2048
Assign rand_sets[203]: 169  LLC: 2048
rand_sets[203]: 169
Assign rand_sets[204]: 158  LLC: 2048
rand_sets[204]: 158
Assign rand_sets[205]: 90  LLC: 2048
rand_sets[205]: 90
Assign rand_sets[206]: 1291  LLC: 2048
rand_sets[206]: 1291
Assign rand_sets[207]: 838  LLC: 2048
rand_sets[207]: 838
Assign rand_sets[208]: 1904  LLC: 2048
rand_sets[208]: 1904
Assign rand_sets[209]: 640  LLC: 2048
rand_sets[209]: 640
Assign rand_sets[210]: 1462  LLC: 2048
rand_sets[210]: 1462
Assign rand_sets[211]: 1487  LLC: 2048
rand_sets[211]: 1487
Assign rand_sets[212]: 1863  LLC: 2048
rand_sets[212]: 1863
Assign rand_sets[213]: 1036  LLC: 2048
rand_sets[213]: 1036
Assign rand_sets[214]: 1702  LLC: 2048
Assign rand_sets[214]: 933  LLC: 2048
rand_sets[214]: 933
Assign rand_sets[215]: 554  LLC: 2048
rand_sets[215]: 554
Assign rand_sets[216]: 1496  LLC: 2048
rand_sets[216]: 1496
Assign rand_sets[217]: 1708  LLC: 2048
rand_sets[217]: 1708
Assign rand_sets[218]: 1275  LLC: 2048
Assign rand_sets[218]: 416  LLC: 2048
rand_sets[218]: 416
Assign rand_sets[219]: 491  LLC: 2048
rand_sets[219]: 491
Assign rand_sets[220]: 183  LLC: 2048
rand_sets[220]: 183
Assign rand_sets[221]: 1657  LLC: 2048
rand_sets[221]: 1657
Assign rand_sets[222]: 1060  LLC: 2048
rand_sets[222]: 1060
Assign rand_sets[223]: 626  LLC: 2048
rand_sets[223]: 626
Assign rand_sets[224]: 1315  LLC: 2048
rand_sets[224]: 1315
Assign rand_sets[225]: 1682  LLC: 2048
rand_sets[225]: 1682
Assign rand_sets[226]: 1352  LLC: 2048
rand_sets[226]: 1352
Assign rand_sets[227]: 1152  LLC: 2048
rand_sets[227]: 1152
Assign rand_sets[228]: 965  LLC: 2048
rand_sets[228]: 965
Assign rand_sets[229]: 1190  LLC: 2048
rand_sets[229]: 1190
Assign rand_sets[230]: 1191  LLC: 2048
rand_sets[230]: 1191
Assign rand_sets[231]: 645  LLC: 2048
rand_sets[231]: 645
Assign rand_sets[232]: 695  LLC: 2048
rand_sets[232]: 695
Assign rand_sets[233]: 1495  LLC: 2048
rand_sets[233]: 1495
Assign rand_sets[234]: 1932  LLC: 2048
rand_sets[234]: 1932
Assign rand_sets[235]: 656  LLC: 2048
rand_sets[235]: 656
Assign rand_sets[236]: 1508  LLC: 2048
rand_sets[236]: 1508
Assign rand_sets[237]: 939  LLC: 2048
rand_sets[237]: 939
Assign rand_sets[238]: 355  LLC: 2048
rand_sets[238]: 355
Assign rand_sets[239]: 1092  LLC: 2048
rand_sets[239]: 1092
Assign rand_sets[240]: 850  LLC: 2048
rand_sets[240]: 850
Assign rand_sets[241]: 102  LLC: 2048
rand_sets[241]: 102
Assign rand_sets[242]: 1763  LLC: 2048
rand_sets[242]: 1763
Assign rand_sets[243]: 668  LLC: 2048
Assign rand_sets[243]: 51  LLC: 2048
rand_sets[243]: 51
Assign rand_sets[244]: 1317  LLC: 2048
rand_sets[244]: 1317
Assign rand_sets[245]: 2041  LLC: 2048
rand_sets[245]: 2041
Assign rand_sets[246]: 1374  LLC: 2048
rand_sets[246]: 1374
Assign rand_sets[247]: 682  LLC: 2048
rand_sets[247]: 682
Assign rand_sets[248]: 1466  LLC: 2048
rand_sets[248]: 1466
Assign rand_sets[249]: 1139  LLC: 2048
rand_sets[249]: 1139
Assign rand_sets[250]: 1632  LLC: 2048
rand_sets[250]: 1632
Assign rand_sets[251]: 1117  LLC: 2048
rand_sets[251]: 1117
Assign rand_sets[252]: 1611  LLC: 2048
rand_sets[252]: 1611
Assign rand_sets[253]: 1905  LLC: 2048
rand_sets[253]: 1905
Assign rand_sets[254]: 1662  LLC: 2048
Assign rand_sets[254]: 446  LLC: 2048
rand_sets[254]: 446
Assign rand_sets[255]: 1705  LLC: 2048
rand_sets[255]: 1705
Heartbeat CPU 0 instructions: 10000001 cycles: 2874553 heartbeat IPC: 3.4788 cumulative IPC: 3.4788 (Simulation time: 0 hr 19 min 20 sec) 

Warmup complete CPU 0 instructions: 10000001 cycles: 2874553 (Simulation time: 0 hr 19 min 20 sec) 

Heartbeat CPU 0 instructions: 20000000 cycles: 26471791 heartbeat IPC: 0.423778 cumulative IPC: 0.423778 (Simulation time: 0 hr 37 min 46 sec) 
Heartbeat CPU 0 instructions: 30000003 cycles: 50113509 heartbeat IPC: 0.422981 cumulative IPC: 0.423379 (Simulation time: 0 hr 56 min 9 sec) 
Heartbeat CPU 0 instructions: 40000001 cycles: 73885199 heartbeat IPC: 0.420668 cumulative IPC: 0.422472 (Simulation time: 1 hr 14 min 54 sec) 
Heartbeat CPU 0 instructions: 50000000 cycles: 97901433 heartbeat IPC: 0.416385 cumulative IPC: 0.420934 (Simulation time: 1 hr 33 min 36 sec) 
Heartbeat CPU 0 instructions: 60000000 cycles: 121658039 heartbeat IPC: 0.420936 cumulative IPC: 0.420934 (Simulation time: 1 hr 49 min 48 sec) 
Finished CPU 0 instructions: 50000000 cycles: 118783489 cumulative IPC: 0.420934 (Simulation time: 1 hr 49 min 48 sec) 

ChampSim completed all CPUs

Region of Interest Statistics

CPU 0 cumulative IPC: 0.420934 instructions: 50000000 cycles: 118783489
ITLB TOTAL     ACCESS:    8441768  HIT:    7992680  MISS:     449088  HIT %:    94.6802  MISS %:    5.31983   MPKI: 8.98176
ITLB LOAD TRANSLATION ACCESS:    8441768  HIT:    7992680  MISS:     449088  HIT %:    94.6802  MISS %:    5.31983   MPKI: 8.98176
ITLB PREFETCH  REQUESTED:          0  ISSUED:          0  USEFUL:          0  USELESS:          0
ITLB USEFUL LOAD PREFETCHES:          0 PREFETCH ISSUED TO LOWER LEVEL:          0  ACCURACY: -nan
ITLB TIMELY PREFETCHES:          0 LATE PREFETCHES: 0 DROPPED PREFETCHES: 0
ITLB PREFETCHES SAME FILL-ORIGIN LEVEL: 0 DIFFERENT FILL-ORIGIN LEVEL: 0
ITLB AVERAGE MISS LATENCY: 9.05692 cycles
ITLB RQ	ACCESS:    9949922	FORWARD:          0	MERGED:    1396504	TO_CACHE:    8553418

DTLB TOTAL     ACCESS:   12316931  HIT:   11845502  MISS:     471429  HIT %:    96.1725  MISS %:    3.82749   MPKI: 9.42858
DTLB LOAD TRANSLATION ACCESS:   12316931  HIT:   11845502  MISS:     471429  HIT %:    96.1725  MISS %:    3.82749   MPKI: 9.42858
DTLB PREFETCH  REQUESTED:          0  ISSUED:          0  USEFUL:          0  USELESS:          0
DTLB USEFUL LOAD PREFETCHES:          0 PREFETCH ISSUED TO LOWER LEVEL:          0  ACCURACY: -nan
DTLB TIMELY PREFETCHES:          0 LATE PREFETCHES: 0 DROPPED PREFETCHES: 0
DTLB PREFETCHES SAME FILL-ORIGIN LEVEL: 0 DIFFERENT FILL-ORIGIN LEVEL: 0
DTLB AVERAGE MISS LATENCY: 9.38522 cycles
DTLB RQ	ACCESS:   15418181	FORWARD:          0	MERGED:    3082304	TO_CACHE:   12335877

STLB TOTAL     ACCESS:    1407915  HIT:    1405564  MISS:       2351  HIT %:     99.833  MISS %:   0.166985   MPKI: 0.04702
STLB LOAD TRANSLATION ACCESS:     920517  HIT:     918166  MISS:       2351  HIT %:    99.7446  MISS %:     0.2554   MPKI: 0.04702
STLB TRANSLATION FROM L1D PREFETCHER ACCESS:     487398  HIT:     487398  MISS:          0  HIT %:        100  MISS %:          0   MPKI: 0
STLB PREFETCH  REQUESTED:          0  ISSUED:          0  USEFUL:          0  USELESS:          0
STLB USEFUL LOAD PREFETCHES:          0 PREFETCH ISSUED TO LOWER LEVEL:          0  ACCURACY: -nan
STLB TIMELY PREFETCHES:          0 LATE PREFETCHES: 0 DROPPED PREFETCHES: 0
STLB PREFETCHES SAME FILL-ORIGIN LEVEL: 0 DIFFERENT FILL-ORIGIN LEVEL: 0
STLB AVERAGE MISS LATENCY: 83.6738 cycles
STLB RQ	ACCESS:    1553908	FORWARD:          0	MERGED:     145993	TO_CACHE:    1407915

STLB Hit, L1D data hit: 0
STLB Hit, L2C data hit: 0
STLB Hit, LLC data hit: 0
STLB Hit, LLC data miss: 0
STLB STLB hints to L2: 0
L1D TOTAL     ACCESS:   15494485  HIT:   14346377  MISS:    1148108  HIT %:    92.5902  MISS %:    7.40978   MPKI: 22.9622
L1D LOAD      ACCESS:    8581992  HIT:    7944513  MISS:     637479  HIT %:    92.5719  MISS %:     7.4281   MPKI: 12.7496
L1D RFO       ACCESS:    6296003  HIT:    6012188  MISS:     283815  HIT %:    95.4921  MISS %:    4.50786   MPKI: 5.6763
L1D PREFETCH  ACCESS:     616490  HIT:     389676  MISS:     226814  HIT %:    63.2088  MISS %:    36.7912   MPKI: 4.53628
L1D PREFETCH  REQUESTED:    1267057  ISSUED:    1267057  USEFUL:      65181  USELESS:     161556
L1D USEFUL LOAD PREFETCHES:      65181 PREFETCH ISSUED TO LOWER LEVEL:     227088  ACCURACY: 28.703
L1D TIMELY PREFETCHES:      65181 LATE PREFETCHES: 68494 DROPPED PREFETCHES: 0
L1D PREFETCHES SAME FILL-ORIGIN LEVEL: 227088 DIFFERENT FILL-ORIGIN LEVEL: 0
L1D AVERAGE MISS LATENCY: 14832.3 cycles
L1D RQ	ACCESS:   11943529	FORWARD:          0	MERGED:    3149036	TO_CACHE:    8690995
L1D WQ	ACCESS:    6773043	FORWARD:     103773	MERGED:      45857	TO_CACHE:    6727186
L1D PQ	ACCESS:     633666	FORWARD:          0	MERGED:          0	TO_CACHE:     633391

L1D UNIQUE REGIONS ACCESSED: 0
L1D REGIONS CONFLICTS: 0
L1D Cross Page Prefetch Requests: 0
L1D Same Page Prefetch Requests: 755778
L1D ROI Sum of L1D PQ occupancy: 8139039
L1D PREFETCHES PUSHED FROM L2C: 0
L1I TOTAL     ACCESS:    9523272  HIT:    6999308  MISS:    2523964  HIT %:    73.4969  MISS %:    26.5031   MPKI: 50.4793
L1I LOAD      ACCESS:    9523272  HIT:    6999308  MISS:    2523964  HIT %:    73.4969  MISS %:    26.5031   MPKI: 50.4793
L1I PREFETCH  REQUESTED:          0  ISSUED:          0  USEFUL:          0  USELESS:          0
L1I USEFUL LOAD PREFETCHES:          0 PREFETCH ISSUED TO LOWER LEVEL:          0  ACCURACY: -nan
L1I TIMELY PREFETCHES:          0 LATE PREFETCHES: 0 DROPPED PREFETCHES: 0
L1I PREFETCHES SAME FILL-ORIGIN LEVEL: 0 DIFFERENT FILL-ORIGIN LEVEL: 0
L1I AVERAGE MISS LATENCY: 18.6783 cycles
L1I RQ	ACCESS:   13809772	FORWARD:          0	MERGED:    3859850	TO_CACHE:    9949922

BTB TOTAL     ACCESS:    6178793  HIT:    4426191  MISS:    1752602  HIT %:    71.6352  MISS %:    28.3648   MPKI: 35.052
BTB BRANCH_DIRECT_JUMP	ACCESS:     566390  HIT:     416144  MISS:     150246
BTB BRANCH_INDIRECT	ACCESS:     195613  HIT:     162820  MISS:      32793
BTB BRANCH_CONDITIONAL	ACCESS:    3323726  HIT:    2859052  MISS:     464674
BTB BRANCH_DIRECT_CALL	ACCESS:     884206  HIT:     538148  MISS:     346058
BTB BRANCH_INDIRECT_CALL	ACCESS:     162323  HIT:      91555  MISS:      70768
BTB BRANCH_RETURN	ACCESS:    1046535  HIT:     358472  MISS:     688063
BTB BRANCH_OTHER ACCESS:          0  HIT:          0  MISS:          0

L2C TOTAL     ACCESS:    4696379  HIT:    3925191  MISS:     771188  HIT %:    83.5791  MISS %:    16.4209   MPKI: 15.4238
L2C LOAD      ACCESS:    3161434  HIT:    2665858  MISS:     495576  HIT %:    84.3243  MISS %:    15.6757   MPKI: 9.91152
L2C DATA LOAD MPKI: 2.24112
L2C INSTRUCTION LOAD MPKI: 7.6704
L2C RFO       ACCESS:     283536  HIT:     188942  MISS:      94594  HIT %:    66.6377  MISS %:    33.3623   MPKI: 1.89188
L2C PREFETCH  ACCESS:     756672  HIT:     587243  MISS:     169429  HIT %:    77.6087  MISS %:    22.3913   MPKI: 3.38858
L2C DATA PREFETCH MPKI: 3.38858
L2C INSTRUCTION PREFETCH MPKI: 0
L2C WRITEBACK ACCESS:     492152  HIT:     482564  MISS:       9588  HIT %:    98.0518  MISS %:    1.94818   MPKI: 0.19176
L2C LOAD TRANSLATION ACCESS:       2585  HIT:        584  MISS:       2001  HIT %:    22.5919  MISS %:    77.4081   MPKI: 0.04002
L2C PREFETCH  REQUESTED:     543636  ISSUED:     543636  USEFUL:      28079  USELESS:     141214
L2C USEFUL LOAD PREFETCHES:      28079 PREFETCH ISSUED TO LOWER LEVEL:     172340  ACCURACY: 16.2928
L2C TIMELY PREFETCHES:      28079 LATE PREFETCHES: 2911 DROPPED PREFETCHES: 0
L2C PREFETCHES SAME FILL-ORIGIN LEVEL: 88777 DIFFERENT FILL-ORIGIN LEVEL: 0
L2C AVERAGE MISS LATENCY: 36.5093 cycles
L2C RQ	ACCESS:    3447567	FORWARD:          0	MERGED:          0	TO_CACHE:    3447555
L2C WQ	ACCESS:     492152	FORWARD:         12	MERGED:          0	TO_CACHE:     492152
L2C PQ	ACCESS:     770724	FORWARD:          0	MERGED:       5421	TO_CACHE:     765303

L2C Instructions Evicting Data 176846
L2C Translations Evicting Data 1402
L2C Data Evicting Data 203079
L2C Instructions Evicting Instructions 206081
L2C Translations Evicting Instructions 574
L2C Data Evicting Instructions 171607
L2C Instructions Evicting Translations 593
L2C Translations Evicting Translations 25
L2C Data Evicting Translations 1393
L2C Dense regions hint from L2: 0
PSCL5 TOTAL     ACCESS:       2351  HIT:       2351  MISS:          0  HIT %:        100  MISS %:          0   MPKI: 0
PSCL5 LOAD TRANSLATION ACCESS:       2351  HIT:       2351  MISS:          0  HIT %:        100  MISS %:          0   MPKI: 0
PSCL5 PREFETCH  REQUESTED:          0  ISSUED:          0  USEFUL:          0  USELESS:          0
PSCL5 USEFUL LOAD PREFETCHES:          0 PREFETCH ISSUED TO LOWER LEVEL:          0  ACCURACY: -nan
PSCL5 TIMELY PREFETCHES:          0 LATE PREFETCHES: 0 DROPPED PREFETCHES: 0
PSCL5 PREFETCHES SAME FILL-ORIGIN LEVEL: 0 DIFFERENT FILL-ORIGIN LEVEL: 0

PSCL4 TOTAL     ACCESS:       2220  HIT:       2209  MISS:         11  HIT %:    99.5045  MISS %:   0.495495   MPKI: 0.00022
PSCL4 LOAD TRANSLATION ACCESS:       2220  HIT:       2209  MISS:         11  HIT %:    99.5045  MISS %:   0.495495   MPKI: 0.00022
PSCL4 PREFETCH  REQUESTED:          0  ISSUED:          0  USEFUL:          0  USELESS:          0
PSCL4 USEFUL LOAD PREFETCHES:          0 PREFETCH ISSUED TO LOWER LEVEL:          0  ACCURACY: -nan
PSCL4 TIMELY PREFETCHES:          0 LATE PREFETCHES: 0 DROPPED PREFETCHES: 0
PSCL4 PREFETCHES SAME FILL-ORIGIN LEVEL: 0 DIFFERENT FILL-ORIGIN LEVEL: 0

PSCL3 TOTAL     ACCESS:       2336  HIT:       2325  MISS:         11  HIT %:    99.5291  MISS %:    0.47089   MPKI: 0.00022
PSCL3 LOAD TRANSLATION ACCESS:       2336  HIT:       2325  MISS:         11  HIT %:    99.5291  MISS %:    0.47089   MPKI: 0.00022
PSCL3 PREFETCH  REQUESTED:          0  ISSUED:          0  USEFUL:          0  USELESS:          0
PSCL3 USEFUL LOAD PREFETCHES:          0 PREFETCH ISSUED TO LOWER LEVEL:          0  ACCURACY: -nan
PSCL3 TIMELY PREFETCHES:          0 LATE PREFETCHES: 0 DROPPED PREFETCHES: 0
PSCL3 PREFETCHES SAME FILL-ORIGIN LEVEL: 0 DIFFERENT FILL-ORIGIN LEVEL: 0

PSCL2 TOTAL     ACCESS:       2351  HIT:       2136  MISS:        215  HIT %:     90.855  MISS %:    9.14504   MPKI: 0.0043
PSCL2 LOAD TRANSLATION ACCESS:       2351  HIT:       2136  MISS:        215  HIT %:     90.855  MISS %:    9.14504   MPKI: 0.0043
PSCL2 PREFETCH  REQUESTED:          0  ISSUED:          0  USEFUL:          0  USELESS:          0
PSCL2 USEFUL LOAD PREFETCHES:          0 PREFETCH ISSUED TO LOWER LEVEL:          0  ACCURACY: -nan
PSCL2 TIMELY PREFETCHES:          0 LATE PREFETCHES: 0 DROPPED PREFETCHES: 0
PSCL2 PREFETCHES SAME FILL-ORIGIN LEVEL: 0 DIFFERENT FILL-ORIGIN LEVEL: 0

LLC TOTAL     ACCESS:     913022  HIT:     873608  MISS:      39414  HIT %:    95.6831  MISS %:    4.31687   MPKI: 0.78828
LLC LOAD      ACCESS:     492787  HIT:     488052  MISS:       4735  HIT %:    99.0391  MISS %:   0.960861   MPKI: 0.0947
LLC RFO       ACCESS:      94469  HIT:      76143  MISS:      18326  HIT %:     80.601  MISS %:     19.399   MPKI: 0.36652
LLC PREFETCH  ACCESS:     172340  HIT:     157544  MISS:      14796  HIT %:    91.4146  MISS %:    8.58535   MPKI: 0.29592
LLC WRITEBACK ACCESS:     151425  HIT:     150003  MISS:       1422  HIT %:    99.0609  MISS %:   0.939079   MPKI: 0.02844
LLC LOAD TRANSLATION ACCESS:       2001  HIT:       1866  MISS:        135  HIT %:    93.2534  MISS %:    6.74663   MPKI: 0.0027
LLC PREFETCH  REQUESTED:          0  ISSUED:          0  USEFUL:       1708  USELESS:      13138
LLC USEFUL LOAD PREFETCHES:       1708 PREFETCH ISSUED TO LOWER LEVEL:      14796  ACCURACY: 11.5437
LLC TIMELY PREFETCHES:       1708 LATE PREFETCHES: 0 DROPPED PREFETCHES: 0
LLC PREFETCHES SAME FILL-ORIGIN LEVEL: 0 DIFFERENT FILL-ORIGIN LEVEL: 0
LLC AVERAGE MISS LATENCY: 133.99 cycles
LLC RQ	ACCESS:     589260	FORWARD:          0	MERGED:          0	TO_CACHE:     589257
LLC WQ	ACCESS:     151425	FORWARD:          3	MERGED:          0	TO_CACHE:     151425
LLC PQ	ACCESS:     172340	FORWARD:          0	MERGED:          0	TO_CACHE:     172340

LLC Dense regions hint to LLC: 0

RAW hits: 512165
Loads Generated: 12455694
Loads sent to L1D: 11943529
Stores Generated: 6773032
Stores sent to L1D: 6773043
Major fault: 0 Minor fault: 2262
Allocated PAGES: 2262

stream: 
stream:times selected: 1213885
stream:pref_filled: 156782
stream:pref_useful: 26078
stream:pref_late: 51423
stream:misses: 12837
stream:misses_by_poll: 0

CS: 
CS:times selected: 168058
CS:pref_filled: 76237
CS:pref_useful: 49713
CS:pref_late: 8318
CS:misses: 17492
CS:misses_by_poll: 30

CPLX: 
CPLX:times selected: 1043484
CPLX:pref_filled: 30845
CPLX:pref_useful: 7235
CPLX:pref_late: 3035
CPLX:misses: 125398
CPLX:misses_by_poll: 5

NL_L1: 
NL:times selected: 6666
NL:pref_filled: 718
NL:pref_useful: 87
NL:pref_late: 20
NL:misses: 571
NL:misses_by_poll: 0

total selections: 2432093
total_filled: 226814
total_useful: 65181
total_late: 63164
total_polluted: 35
total_misses_after_warmup: 746487
conflicts: 3053897
Degree Incremented Times: 1784
Degree Decremented Times: 159565

L1 IP Table Write Accesses: 5348668
L1 IP Table Read Accesses: 2294771
L1 RST Write Accesses: 1017476
L1 RST Read Accesses: 2034952
L1 CSPT Write Accesses: 1017476
L1 CSPT Read Accesses: 1892029
L1 RR Filter Tag Write Accesses: 633666
L1 RR Filter Tag Read Accesses: 45896842
L1 IP Table Tag Write Accesses: 8691000
L1 IP Table Tag Read Accesses: 8691000
L1 RST Tag Write Accesses: 0
L1 RST Tag Read Accesses: 8165448
L1 RR Filter Write Accesses: 0
L1 RR Filter Read Accesses: 1680805
test: 202122
L2 IP Table Read Accesses: 1169792
L2 IP Table Write Accesses: 1549069
L2 IP Table Tag Read Accesses: 859385
L2 IP Table Tag Write Accesses: 859385

DRAM Statistics
 CHANNEL 0
 RQ ROW_BUFFER_HIT:      17682  ROW_BUFFER_MISS:      20269
 DBUS_CONGESTED:         26
 WQ ROW_BUFFER_HIT:       1924  ROW_BUFFER_MISS:      10267  FULL:          0

 AVG_CONGESTED_CYCLE: 7
 All warmup complete: 2
Channel 0 Bank busy for read cycles: 0
Channel 0 Bank busy for write cycles: 0
Channel 0
Rank 0
0banks busy for read cycles: 116397693
0banks busy for write cycles: 3281
1banks busy for read cycles: 698527
1banks busy for write cycles: 358305
2banks busy for read cycles: 493329
2banks busy for write cycles: 131027
3banks busy for read cycles: 125870
3banks busy for write cycles: 64336
4banks busy for read cycles: 99307
4banks busy for write cycles: 38535
5banks busy for read cycles: 67292
5banks busy for write cycles: 31285
6banks busy for read cycles: 48422
6banks busy for write cycles: 26260
7banks busy for read cycles: 41486
7banks busy for write cycles: 29300
8banks busy for read cycles: 69786
8banks busy for write cycles: 59449

CPU 0 Branch Prediction Accuracy: 91.7383% MPKI: 15.1397 Average ROB Occupancy at Mispredict: 17.6895
Branch types
NOT_BRANCH: 40837081 81.6742%
BRANCH_DIRECT_JUMP: 566390 1.13278%
BRANCH_INDIRECT: 195613 0.391226%
BRANCH_CONDITIONAL: 6307490 12.615%
BRANCH_DIRECT_CALL: 884206 1.76841%
BRANCH_INDIRECT_CALL: 162323 0.324646%
BRANCH_RETURN: 1046535 2.09307%
BRANCH_OTHER: 0 0%

@sumon_overall_L1D     65181     68494     68494    161556    226814   1267057   1267057
@Sumon_Early_by_class_L1D     19037     41340      3570        10
@Sumon_Late_by_class_L1D     50357      8030      2608        10

@Sumon_Early_by_cycle_L1D     46525      3020      2450      4326       463      1020       641      1933      1248      2616       733       206
@Sumon_Late_by_cycle_L1D     19470     20338     17571      2022      1919        32
@Sumon_Early_stream_L1D      6096      1295      1621      3635       253       649       521      1304       875      1932       651       205
@Sumon_Early_CS_L1D     38550      1557       657        37        18        77         8       363        15        47        10         1
@Sumon_Early_CPLX_L1D      1578       106       136       557        88       199       103       253       197       293        60         0
@Sumon_Late_stream_L1D     15857     18545     15829        24       102         0
@Sumon_Late_CS_L1D      2626       566      1120      1977      1709        32
@Sumon_Late_CPLX_L1D       786      1171       618         6        27         0
@sumon_overall_L2C     28079      2911         0    141214    169429    543636    543636
@Sumon_Early_by_class_L2C      3058       234       568         0
@Sumon_Late_by_class_L2C         0         0         0         0

@Sumon_Early_by_cycle_L2C      4972      2296      1826      1171       750      3285      2205      2406       696      1248      1274      5950
@Sumon_Late_by_cycle_L2C       837       703       796        40       535         0
@Sumon_Early_stream_L2C         0         0         0         0         0         0         0         0         0        36       333      2689
@Sumon_Early_CS_L2C         0         0         0         0         0         0         0         0         0         0        16       218
@Sumon_Early_CPLX_L2C         0         0         0         0         0         0         0         0         0         0        30       538
@Sumon_Late_stream_L2C         0         0         0         0         0         0
@Sumon_Late_CS_L2C         0         0         0         0         0         0
@Sumon_Late_CPLX_L2C         0         0         0         0         0         0
DRAM PAGES: 1048576
Allocated PAGES: 2262
