
*** ChampSim Multicore Out-of-Order Simulator ***

Warmup Instructions: 2000000
Simulation Instructions: 5000000
Number of CPUs: 1
LLC sets: 2048
LLC ways: 16
Off-chip DRAM Size: 4096 MB Channels: 1 Width: 64-bit Data Rate: 6400 MT/s
CPU 0 runs dpc3_traces/602.gcc_s-2226B.champsimtrace.xz
.xz
CPU 0 Bimodal branch predictor
BTB has LRU replacement policy
ITLB has LRU replacement policy
DTLB has LRU replacement policy
STLB has LRU replacement policy
L1I has LRU replacement policy
IP Table Entries: 256
L1D has LRU replacement policy
IP_Table L2 entries: 256
L2C has LRU replacement policy
LLC has LRU replacement policy

Warmup complete CPU 0 instructions: 2000003 cycles: 746947 (Simulation time: 0 hr 0 min 14 sec) 

Finished CPU 0 instructions: 5000000 cycles: 13403797 cumulative IPC: 0.373029 (Simulation time: 0 hr 0 min 46 sec) 

ChampSim completed all CPUs

Region of Interest Statistics

CPU 0 cumulative IPC: 0.373029 instructions: 5000000 cycles: 13403797
ITLB TOTAL     ACCESS:     900686  HIT:     900683  MISS:          3  HIT %:    99.9997  MISS %: 0.000333079   MPKI: 0.0006
ITLB LOAD TRANSLATION ACCESS:     900686  HIT:     900683  MISS:          3  HIT %:    99.9997  MISS %: 0.000333079   MPKI: 0.0006
ITLB PREFETCH  REQUESTED:          0  ISSUED:          0  USEFUL:          0  USELESS:          0
ITLB USEFUL LOAD PREFETCHES:          0 PREFETCH ISSUED TO LOWER LEVEL:          0  ACCURACY: -nan
ITLB TIMELY PREFETCHES:          0 LATE PREFETCHES: 0 DROPPED PREFETCHES: 0
ITLB PREFETCHES SAME FILL-ORIGIN LEVEL: 0 DIFFERENT FILL-ORIGIN LEVEL: 0
ITLB AVERAGE MISS LATENCY: 327.333 cycles
ITLB RQ	ACCESS:     921223	FORWARD:          0	MERGED:      20535	TO_CACHE:     900688

DTLB TOTAL     ACCESS:     776220  HIT:     768727  MISS:       7493  HIT %:    99.0347  MISS %:   0.965319   MPKI: 1.4986
DTLB LOAD TRANSLATION ACCESS:     776220  HIT:     768727  MISS:       7493  HIT %:    99.0347  MISS %:   0.965319   MPKI: 1.4986
DTLB PREFETCH  REQUESTED:          0  ISSUED:          0  USEFUL:          0  USELESS:          0
DTLB USEFUL LOAD PREFETCHES:          0 PREFETCH ISSUED TO LOWER LEVEL:          0  ACCURACY: -nan
DTLB TIMELY PREFETCHES:          0 LATE PREFETCHES: 0 DROPPED PREFETCHES: 0
DTLB PREFETCHES SAME FILL-ORIGIN LEVEL: 0 DIFFERENT FILL-ORIGIN LEVEL: 0
DTLB AVERAGE MISS LATENCY: 161.296 cycles
DTLB RQ	ACCESS:     914531	FORWARD:          0	MERGED:     138286	TO_CACHE:     776245

STLB TOTAL     ACCESS:     301934  HIT:     294891  MISS:       7043  HIT %:    97.6674  MISS %:    2.33263   MPKI: 1.4086
STLB LOAD TRANSLATION ACCESS:       7496  HIT:        454  MISS:       7042  HIT %:    6.05656  MISS %:    93.9434   MPKI: 1.4084
STLB TRANSLATION FROM L1D PREFETCHER ACCESS:     294438  HIT:     294437  MISS:          1  HIT %:    99.9997  MISS %: 0.00033963   MPKI: 0.0002
STLB PREFETCH  REQUESTED:          0  ISSUED:          0  USEFUL:          1  USELESS:          0
STLB USEFUL LOAD PREFETCHES:          1 PREFETCH ISSUED TO LOWER LEVEL:          0  ACCURACY: inf
STLB TIMELY PREFETCHES:          1 LATE PREFETCHES: 0 DROPPED PREFETCHES: 0
STLB PREFETCHES SAME FILL-ORIGIN LEVEL: 0 DIFFERENT FILL-ORIGIN LEVEL: 0
STLB AVERAGE MISS LATENCY: 162.19 cycles
STLB RQ	ACCESS:     498273	FORWARD:          0	MERGED:     196338	TO_CACHE:     301935

STLB Hit, L1D data hit: 0
STLB Hit, L2C data hit: 0
STLB Hit, LLC data hit: 0
STLB Hit, LLC data miss: 0
STLB STLB hints to L2: 0
L1D TOTAL     ACCESS:    1400731  HIT:    1017930  MISS:     382801  HIT %:    72.6713  MISS %:    27.3287   MPKI: 76.5602
L1D LOAD      ACCESS:     837063  HIT:     822686  MISS:      14377  HIT %:    98.2824  MISS %:    1.71755   MPKI: 2.8754
L1D RFO       ACCESS:      76124  HIT:      76112  MISS:         12  HIT %:    99.9842  MISS %:  0.0157638   MPKI: 0.0024
L1D PREFETCH  ACCESS:     487544  HIT:     119132  MISS:     368412  HIT %:    24.4351  MISS %:    75.5649   MPKI: 73.6824
L1D PREFETCH  REQUESTED:     981557  ISSUED:     981554  USEFUL:     332781  USELESS:      35647
L1D USEFUL LOAD PREFETCHES:     332781 PREFETCH ISSUED TO LOWER LEVEL:     371339  ACCURACY: 89.6165
L1D TIMELY PREFETCHES:     332781 LATE PREFETCHES: 2851 DROPPED PREFETCHES: 0
L1D PREFETCHES SAME FILL-ORIGIN LEVEL: 371339 DIFFERENT FILL-ORIGIN LEVEL: 0
L1D AVERAGE MISS LATENCY: 56672.2 cycles
L1D RQ	ACCESS:    1778328	FORWARD:          0	MERGED:     938381	TO_CACHE:     838402
L1D WQ	ACCESS:      85171	FORWARD:       1545	MERGED:       9042	TO_CACHE:      76129
L1D PQ	ACCESS:     490777	FORWARD:          0	MERGED:          0	TO_CACHE:     490777

L1D UNIQUE REGIONS ACCESSED: 0
L1D REGIONS CONFLICTS: 0
L1D Cross Page Prefetch Requests: 0
L1D Same Page Prefetch Requests: 687095
L1D ROI Sum of L1D PQ occupancy: 6469844
L1D PREFETCHES PUSHED FROM L2C: 0
L1I TOTAL     ACCESS:     921220  HIT:     921183  MISS:         37  HIT %:     99.996  MISS %: 0.00401641   MPKI: 0.0074
L1I LOAD      ACCESS:     921220  HIT:     921183  MISS:         37  HIT %:     99.996  MISS %: 0.00401641   MPKI: 0.0074
L1I PREFETCH  REQUESTED:          0  ISSUED:          0  USEFUL:          0  USELESS:          0
L1I USEFUL LOAD PREFETCHES:          0 PREFETCH ISSUED TO LOWER LEVEL:          0  ACCURACY: -nan
L1I TIMELY PREFETCHES:          0 LATE PREFETCHES: 0 DROPPED PREFETCHES: 0
L1I PREFETCHES SAME FILL-ORIGIN LEVEL: 0 DIFFERENT FILL-ORIGIN LEVEL: 0
L1I AVERAGE MISS LATENCY: 198.73 cycles
L1I RQ	ACCESS:    1387703	FORWARD:          0	MERGED:     466480	TO_CACHE:     921223

BTB TOTAL     ACCESS:    1183824  HIT:    1183726  MISS:         98  HIT %:    99.9917  MISS %: 0.00827826   MPKI: 0.0196
BTB BRANCH_DIRECT_JUMP	ACCESS:      19877  HIT:      19851  MISS:         26
BTB BRANCH_INDIRECT	ACCESS:          0  HIT:          0  MISS:          0
BTB BRANCH_CONDITIONAL	ACCESS:    1146050  HIT:    1146001  MISS:         49
BTB BRANCH_DIRECT_CALL	ACCESS:       8948  HIT:       8938  MISS:         10
BTB BRANCH_INDIRECT_CALL	ACCESS:          0  HIT:          0  MISS:          0
BTB BRANCH_RETURN	ACCESS:       8949  HIT:       8936  MISS:         13
BTB BRANCH_OTHER ACCESS:          0  HIT:          0  MISS:          0

L2C TOTAL     ACCESS:     695981  HIT:     321951  MISS:     374030  HIT %:    46.2586  MISS %:    53.7414   MPKI: 74.806
L2C LOAD      ACCESS:      11562  HIT:       3143  MISS:       8419  HIT %:    27.1839  MISS %:    72.8161   MPKI: 1.6838
L2C DATA LOAD MPKI: 1.6764
L2C INSTRUCTION LOAD MPKI: 0.0074
L2C RFO       ACCESS:          8  HIT:          5  MISS:          3  HIT %:       62.5  MISS %:       37.5   MPKI: 0.0006
L2C PREFETCH  ACCESS:     676629  HIT:     312938  MISS:     363691  HIT %:    46.2496  MISS %:    53.7504   MPKI: 72.7382
L2C DATA PREFETCH MPKI: 72.7382
L2C INSTRUCTION PREFETCH MPKI: 0
L2C WRITEBACK ACCESS:        661  HIT:        643  MISS:         18  HIT %:    97.2769  MISS %:    2.72315   MPKI: 0.0036
L2C LOAD TRANSLATION ACCESS:       7119  HIT:       5222  MISS:       1897  HIT %:     73.353  MISS %:     26.647   MPKI: 0.3794
L2C TRANSLATION FROM L1D PREFETCHER ACCESS:          2  HIT:          0  MISS:          2  HIT %:          0  MISS %:        100   MPKI: 0.0004
L2C PREFETCH  REQUESTED:     757892  ISSUED:     757886  USEFUL:       1223  USELESS:     362415
L2C USEFUL LOAD PREFETCHES:       1223 PREFETCH ISSUED TO LOWER LEVEL:     363719  ACCURACY: 0.336249
L2C TIMELY PREFETCHES:       1223 LATE PREFETCHES: 25 DROPPED PREFETCHES: 0
L2C PREFETCHES SAME FILL-ORIGIN LEVEL: 284468 DIFFERENT FILL-ORIGIN LEVEL: 0
L2C AVERAGE MISS LATENCY: 110.391 cycles
L2C RQ	ACCESS:      18692	FORWARD:          0	MERGED:          0	TO_CACHE:      18691
L2C WQ	ACCESS:        661	FORWARD:          1	MERGED:          0	TO_CACHE:        661
L2C PQ	ACCESS:    1129154	FORWARD:          0	MERGED:     217538	TO_CACHE:     911616

L2C Instructions Evicting Data 37
L2C Translations Evicting Data 1891
L2C Data Evicting Data 370141
L2C Instructions Evicting Instructions 0
L2C Translations Evicting Instructions 0
L2C Data Evicting Instructions 37
L2C Instructions Evicting Translations 0
L2C Translations Evicting Translations 8
L2C Data Evicting Translations 1898
L2C Dense regions hint from L2: 0
PSCL5 TOTAL     ACCESS:       7043  HIT:       7043  MISS:          0  HIT %:        100  MISS %:          0   MPKI: 0
PSCL5 LOAD TRANSLATION ACCESS:       7042  HIT:       7042  MISS:          0  HIT %:        100  MISS %:          0   MPKI: 0
PSCL5 TRANSLATION FROM L1D PREFETCHER ACCESS:          1  HIT:          1  MISS:          0  HIT %:        100  MISS %:          0   MPKI: 0
PSCL5 PREFETCH  REQUESTED:          0  ISSUED:          0  USEFUL:          0  USELESS:          0
PSCL5 USEFUL LOAD PREFETCHES:          0 PREFETCH ISSUED TO LOWER LEVEL:          0  ACCURACY: -nan
PSCL5 TIMELY PREFETCHES:          0 LATE PREFETCHES: 0 DROPPED PREFETCHES: 0
PSCL5 PREFETCHES SAME FILL-ORIGIN LEVEL: 0 DIFFERENT FILL-ORIGIN LEVEL: 0

PSCL4 TOTAL     ACCESS:       7043  HIT:       7043  MISS:          0  HIT %:        100  MISS %:          0   MPKI: 0
PSCL4 LOAD TRANSLATION ACCESS:       7042  HIT:       7042  MISS:          0  HIT %:        100  MISS %:          0   MPKI: 0
PSCL4 TRANSLATION FROM L1D PREFETCHER ACCESS:          1  HIT:          1  MISS:          0  HIT %:        100  MISS %:          0   MPKI: 0
PSCL4 PREFETCH  REQUESTED:          0  ISSUED:          0  USEFUL:          0  USELESS:          0
PSCL4 USEFUL LOAD PREFETCHES:          0 PREFETCH ISSUED TO LOWER LEVEL:          0  ACCURACY: -nan
PSCL4 TIMELY PREFETCHES:          0 LATE PREFETCHES: 0 DROPPED PREFETCHES: 0
PSCL4 PREFETCHES SAME FILL-ORIGIN LEVEL: 0 DIFFERENT FILL-ORIGIN LEVEL: 0

PSCL3 TOTAL     ACCESS:       7043  HIT:       7042  MISS:          1  HIT %:    99.9858  MISS %:  0.0141985   MPKI: 0.0002
PSCL3 LOAD TRANSLATION ACCESS:       7042  HIT:       7041  MISS:          1  HIT %:    99.9858  MISS %:  0.0142005   MPKI: 0.0002
PSCL3 TRANSLATION FROM L1D PREFETCHER ACCESS:          1  HIT:          1  MISS:          0  HIT %:        100  MISS %:          0   MPKI: 0
PSCL3 PREFETCH  REQUESTED:          0  ISSUED:          0  USEFUL:          0  USELESS:          0
PSCL3 USEFUL LOAD PREFETCHES:          0 PREFETCH ISSUED TO LOWER LEVEL:          0  ACCURACY: -nan
PSCL3 TIMELY PREFETCHES:          0 LATE PREFETCHES: 0 DROPPED PREFETCHES: 0
PSCL3 PREFETCHES SAME FILL-ORIGIN LEVEL: 0 DIFFERENT FILL-ORIGIN LEVEL: 0

PSCL2 TOTAL     ACCESS:       7043  HIT:       6748  MISS:        295  HIT %:    95.8114  MISS %:    4.18856   MPKI: 0.059
PSCL2 LOAD TRANSLATION ACCESS:       7043  HIT:       6748  MISS:        295  HIT %:    95.8114  MISS %:    4.18856   MPKI: 0.059
PSCL2 PREFETCH  REQUESTED:          0  ISSUED:          0  USEFUL:          0  USELESS:          0
PSCL2 USEFUL LOAD PREFETCHES:          0 PREFETCH ISSUED TO LOWER LEVEL:          0  ACCURACY: -nan
PSCL2 TIMELY PREFETCHES:          0 LATE PREFETCHES: 0 DROPPED PREFETCHES: 0
PSCL2 PREFETCHES SAME FILL-ORIGIN LEVEL: 0 DIFFERENT FILL-ORIGIN LEVEL: 0

LLC TOTAL     ACCESS:     374640  HIT:       2362  MISS:     372278  HIT %:   0.630472  MISS %:    99.3695   MPKI: 74.4556
LLC LOAD      ACCESS:       8394  HIT:        120  MISS:       8274  HIT %:    1.42959  MISS %:    98.5704   MPKI: 1.6548
LLC RFO       ACCESS:          3  HIT:          0  MISS:          3  HIT %:          0  MISS %:        100   MPKI: 0.0006
LLC PREFETCH  ACCESS:     363716  HIT:       1523  MISS:     362193  HIT %:   0.418733  MISS %:    99.5813   MPKI: 72.4386
LLC WRITEBACK ACCESS:        628  HIT:        614  MISS:         14  HIT %:    97.7707  MISS %:     2.2293   MPKI: 0.0028
LLC LOAD TRANSLATION ACCESS:       1897  HIT:        105  MISS:       1792  HIT %:    5.53506  MISS %:    94.4649   MPKI: 0.3584
LLC TRANSLATION FROM L1D PREFETCHER ACCESS:          2  HIT:          0  MISS:          2  HIT %:          0  MISS %:        100   MPKI: 0.0004
LLC PREFETCH  REQUESTED:          0  ISSUED:          0  USEFUL:         29  USELESS:     362169
LLC USEFUL LOAD PREFETCHES:         29 PREFETCH ISSUED TO LOWER LEVEL:     362196  ACCURACY: 0.00800671
LLC TIMELY PREFETCHES:         29 LATE PREFETCHES: 0 DROPPED PREFETCHES: 0
LLC PREFETCHES SAME FILL-ORIGIN LEVEL: 0 DIFFERENT FILL-ORIGIN LEVEL: 0
LLC AVERAGE MISS LATENCY: 80.4061 cycles
LLC RQ	ACCESS:      10296	FORWARD:          0	MERGED:          0	TO_CACHE:      10296
LLC WQ	ACCESS:        628	FORWARD:          0	MERGED:          0	TO_CACHE:        628
LLC PQ	ACCESS:     363719	FORWARD:          0	MERGED:          0	TO_CACHE:     363719

LLC Dense regions hint to LLC: 0

RAW hits: 3999
Loads Generated: 1782327
Loads sent to L1D: 1778328
Stores Generated: 85171
Stores sent to L1D: 85171
Major fault: 0 Minor fault: 9948
Allocated PAGES: 9948

stream: 
stream:times selected: 958503
stream:pref_filled: 476043
stream:pref_useful: 441359
stream:pref_late: 3297
stream:misses: 823
stream:misses_by_poll: 0

CS: 
CS:times selected: 670814
CS:pref_filled: 3542
CS:pref_useful: 3407
CS:pref_late: 260
CS:misses: 15537
CS:misses_by_poll: 36

CPLX: 
CPLX:times selected: 287315
CPLX:pref_filled: 34887
CPLX:pref_useful: 23283
CPLX:pref_late: 120
CPLX:misses: 4624
CPLX:misses_by_poll: 307

NL_L1: 
NL:times selected: 179
NL:pref_filled: 4
NL:pref_useful: 1
NL:pref_late: 1
NL:misses: 8
NL:misses_by_poll: 0

total selections: 1916811
total_filled: 368412
total_useful: 332781
total_late: 3875
total_polluted: 343
total_misses_after_warmup: 15715
conflicts: 446
Degree Incremented Times: 17228
Degree Decremented Times: 0

L1 IP Table Write Accesses: 835714
L1 IP Table Read Accesses: 835268
L1 RST Write Accesses: 567184
L1 RST Read Accesses: 1134368
L1 CSPT Write Accesses: 567184
L1 CSPT Read Accesses: 1198959
L1 RR Filter Tag Write Accesses: 490780
L1 RR Filter Tag Read Accesses: 127093036
L1 IP Table Tag Write Accesses: 838401
L1 IP Table Tag Read Accesses: 838401
L1 RST Tag Write Accesses: 0
L1 RST Tag Read Accesses: 5158646
L1 RR Filter Write Accesses: 0
L1 RR Filter Read Accesses: 4620499
test: 119416
L2 IP Table Read Accesses: 335800
L2 IP Table Write Accesses: 324348
L2 IP Table Tag Read Accesses: 167923
L2 IP Table Tag Write Accesses: 167923

DRAM Statistics
 CHANNEL 0
 RQ ROW_BUFFER_HIT:     344003  ROW_BUFFER_MISS:      28261
 DBUS_CONGESTED:         62
 WQ ROW_BUFFER_HIT:         65  ROW_BUFFER_MISS:        556  FULL:          0

 AVG_CONGESTED_CYCLE: 3
 All warmup complete: 2
Channel 0 Bank busy for read cycles: 0
Channel 0 Bank busy for write cycles: 0
Channel 0
Rank 0
0banks busy for read cycles: 6502193
0banks busy for write cycles: 392
1banks busy for read cycles: 1734551
1banks busy for write cycles: 92338
2banks busy for read cycles: 1524842
2banks busy for write cycles: 22606
3banks busy for read cycles: 1099079
3banks busy for write cycles: 9063
4banks busy for read cycles: 516771
4banks busy for write cycles: 2801
5banks busy for read cycles: 913185
5banks busy for write cycles: 365
6banks busy for read cycles: 301220
6banks busy for write cycles: 288
7banks busy for read cycles: 553347
7banks busy for write cycles: 144
8banks busy for read cycles: 130613
8banks busy for write cycles: 0

CPU 0 Branch Prediction Accuracy: 99.1204% MPKI: 3.119 Average ROB Occupancy at Mispredict: 104.128
Branch types
NOT_BRANCH: 3227111 64.5422%
BRANCH_DIRECT_JUMP: 19877 0.39754%
BRANCH_INDIRECT: 0 0%
BRANCH_CONDITIONAL: 1735110 34.7022%
BRANCH_DIRECT_CALL: 8948 0.17896%
BRANCH_INDIRECT_CALL: 0 0%
BRANCH_RETURN: 8949 0.17898%
BRANCH_OTHER: 0 0%

 @Sumon early L1D    332781    198848    217501     28264      4204      3920      6845      1549      5533       566       699        90        35
@Sumon lateL1D      2851      3690       181         4         0         0         0         0         0         0         0         0         0
 @Sumon early L2C      1223       770       588        96        10         2        16        36        68        58       301       162       229
@Sumon lateL2C        25        37         4         0         0         0         0         0         0         0         0         0         0
DRAM PAGES: 1048576
Allocated PAGES: 9948
