Initialize SIGNATURE TABLE
ST_SET: 1
ST_WAY: 256
ST_TAG_BIT: 16
ST_TAG_MASK: ffff

Initialize PATTERN TABLE
PT_SET: 512
PT_WAY: 4
SIG_DELTA_BIT: 7
C_SIG_BIT: 4
C_DELTA_BIT: 4

Initialize PREFETCH FILTER
FILTER_SET: 1024

*** ChampSim Multicore Out-of-Order Simulator ***

Warmup Instructions: 10000000
Simulation Instructions: 50000000
Number of CPUs: 1
LLC sets: 2048
LLC ways: 16
Off-chip DRAM Size: 4096 MB Channels: 1 Width: 64-bit Data Rate: 400 MT/s
CPU 0 runs traces/SPEC2017/600.perlbench_s-570B.champsimtrace.xz
.xz
CPU 0 Bimodal branch predictor
BTB has LRU replacement policy
ITLB has LRU replacement policy
DTLB has LRU replacement policy
STLB has LRU replacement policy
L1I has LRU replacement policy
L1D has LRU replacement policy
ST_WAYS: 256
PT_SETS: 512
L2C has LRU replacement policy
LLC has LRU replacement policy
Killed
*** Reached end of trace for Core: 0 Repeating trace: traces/SPEC2017/600.perlbench_s-570B.champsimtrace.xz
Killed
*** Reached end of trace for Core: 0 Repeating trace: traces/SPEC2017/600.perlbench_s-570B.champsimtrace.xz
Killed
*** Reached end of trace for Core: 0 Repeating trace: traces/SPEC2017/600.perlbench_s-570B.champsimtrace.xz
Heartbeat CPU 0 instructions: 10000002 cycles: 2857384 heartbeat IPC: 3.49971 cumulative IPC: 3.49971 (Simulation time: 2 hr 51 min 44 sec) 

Warmup complete CPU 0 instructions: 10000002 cycles: 2857384 (Simulation time: 2 hr 52 min 15 sec) 

Heartbeat CPU 0 instructions: 20000001 cycles: 18934520 heartbeat IPC: 0.622001 cumulative IPC: 0.622001 (Simulation time: 3 hr 39 min 56 sec) 
Heartbeat CPU 0 instructions: 30000000 cycles: 35326277 heartbeat IPC: 0.610063 cumulative IPC: 0.615974 (Simulation time: 3 hr 46 min 16 sec) 
Heartbeat CPU 0 instructions: 40000002 cycles: 51901380 heartbeat IPC: 0.603315 cumulative IPC: 0.611696 (Simulation time: 3 hr 47 min 43 sec) 
Heartbeat CPU 0 instructions: 50000000 cycles: 67302048 heartbeat IPC: 0.649322 cumulative IPC: 0.620687 (Simulation time: 3 hr 51 min 27 sec) 
Heartbeat CPU 0 instructions: 60000000 cycles: 82927751 heartbeat IPC: 0.639971 cumulative IPC: 0.624451 (Simulation time: 3 hr 52 min 16 sec) 
Finished CPU 0 instructions: 50000002 cycles: 80070368 cumulative IPC: 0.624451 (Simulation time: 3 hr 52 min 51 sec) 

ChampSim completed all CPUs

Region of Interest Statistics

CPU 0 cumulative IPC: 0.624451 instructions: 50000002 cycles: 80070368
ITLB TOTAL     ACCESS:    7379866  HIT:    7379670  MISS:        196  HIT %:    99.9973  MISS %: 0.00265587   MPKI: 0.00392
ITLB LOAD TRANSLATION ACCESS:    7379866  HIT:    7379670  MISS:        196  HIT %:    99.9973  MISS %: 0.00265587   MPKI: 0.00392
ITLB PREFETCH  REQUESTED:          0  ISSUED:          0  USEFUL:          0  USELESS:          0
ITLB USEFUL LOAD PREFETCHES:          0 PREFETCH ISSUED TO LOWER LEVEL:          0  ACCURACY: -nan
ITLB TIMELY PREFETCHES:          0 LATE PREFETCHES: 0 DROPPED PREFETCHES: 0
ITLB PREFETCHES SAME FILL-ORIGIN LEVEL: 0 DIFFERENT FILL-ORIGIN LEVEL: 0
ITLB AVERAGE MISS LATENCY: 10.5867 cycles
ITLB RQ	ACCESS:    8372240	FORWARD:          0	MERGED:     992329	TO_CACHE:    7379911

DTLB TOTAL     ACCESS:   12659202  HIT:   12624507  MISS:      34695  HIT %:    99.7259  MISS %:   0.274069   MPKI: 0.6939
DTLB LOAD TRANSLATION ACCESS:   12659202  HIT:   12624507  MISS:      34695  HIT %:    99.7259  MISS %:   0.274069   MPKI: 0.6939
DTLB PREFETCH  REQUESTED:          0  ISSUED:          0  USEFUL:          0  USELESS:          0
DTLB USEFUL LOAD PREFETCHES:          0 PREFETCH ISSUED TO LOWER LEVEL:          0  ACCURACY: -nan
DTLB TIMELY PREFETCHES:          0 LATE PREFETCHES: 0 DROPPED PREFETCHES: 0
DTLB PREFETCHES SAME FILL-ORIGIN LEVEL: 0 DIFFERENT FILL-ORIGIN LEVEL: 0
DTLB AVERAGE MISS LATENCY: 10.6659 cycles
DTLB RQ	ACCESS:   19220471	FORWARD:          0	MERGED:    6561076	TO_CACHE:   12659395

STLB TOTAL     ACCESS:      34891  HIT:      34555  MISS:        336  HIT %:     99.037  MISS %:   0.962999   MPKI: 0.00672
STLB LOAD TRANSLATION ACCESS:      34891  HIT:      34555  MISS:        336  HIT %:     99.037  MISS %:   0.962999   MPKI: 0.00672
STLB PREFETCH  REQUESTED:          0  ISSUED:          0  USEFUL:          0  USELESS:          0
STLB USEFUL LOAD PREFETCHES:          0 PREFETCH ISSUED TO LOWER LEVEL:          0  ACCURACY: -nan
STLB TIMELY PREFETCHES:          0 LATE PREFETCHES: 0 DROPPED PREFETCHES: 0
STLB PREFETCHES SAME FILL-ORIGIN LEVEL: 0 DIFFERENT FILL-ORIGIN LEVEL: 0
STLB AVERAGE MISS LATENCY: 172.551 cycles
STLB RQ	ACCESS:      34891	FORWARD:          0	MERGED:          0	TO_CACHE:      34891

STLB Hit, L1D data hit: 0
STLB Hit, L2C data hit: 0
STLB Hit, LLC data hit: 0
STLB Hit, LLC data miss: 0
STLB STLB hints to L2: 0
L1D TOTAL     ACCESS:   19219643  HIT:   19215036  MISS:       4607  HIT %:     99.976  MISS %:  0.0239703   MPKI: 0.09214
L1D LOAD      ACCESS:    8547982  HIT:    8543561  MISS:       4421  HIT %:    99.9483  MISS %:  0.0517198   MPKI: 0.08842
L1D RFO       ACCESS:   10671661  HIT:   10671475  MISS:        186  HIT %:    99.9983  MISS %: 0.00174293   MPKI: 0.00372
L1D PREFETCH  REQUESTED:          0  ISSUED:          0  USEFUL:          0  USELESS:          0
L1D USEFUL LOAD PREFETCHES:          0 PREFETCH ISSUED TO LOWER LEVEL:          0  ACCURACY: -nan
L1D TIMELY PREFETCHES:          0 LATE PREFETCHES: 0 DROPPED PREFETCHES: 0
L1D PREFETCHES SAME FILL-ORIGIN LEVEL: 0 DIFFERENT FILL-ORIGIN LEVEL: 0
L1D AVERAGE MISS LATENCY: 147.339 cycles
L1D RQ	ACCESS:   10838675	FORWARD:          0	MERGED:    1955747	TO_CACHE:    8548517
L1D WQ	ACCESS:   10763416	FORWARD:     334411	MERGED:      91462	TO_CACHE:   10671954

L1D UNIQUE REGIONS ACCESSED: 0
L1D REGIONS CONFLICTS: 0
L1D Cross Page Prefetch Requests: 0
L1D Same Page Prefetch Requests: 0
L1D ROI Sum of L1D PQ occupancy: 0
L1D PREFETCHES PUSHED FROM L2C: 0
L1I TOTAL     ACCESS:    8371732  HIT:    8369827  MISS:       1905  HIT %:    99.9772  MISS %:  0.0227551   MPKI: 0.0381
L1I LOAD      ACCESS:    8371732  HIT:    8369827  MISS:       1905  HIT %:    99.9772  MISS %:  0.0227551   MPKI: 0.0381
L1I PREFETCH  REQUESTED:          0  ISSUED:          0  USEFUL:          0  USELESS:          0
L1I USEFUL LOAD PREFETCHES:          0 PREFETCH ISSUED TO LOWER LEVEL:          0  ACCURACY: -nan
L1I TIMELY PREFETCHES:          0 LATE PREFETCHES: 0 DROPPED PREFETCHES: 0
L1I PREFETCHES SAME FILL-ORIGIN LEVEL: 0 DIFFERENT FILL-ORIGIN LEVEL: 0
L1I AVERAGE MISS LATENCY: 30.1806 cycles
L1I RQ	ACCESS:   13344868	FORWARD:          0	MERGED:    4972628	TO_CACHE:    8372240

BTB TOTAL     ACCESS:    5032328  HIT:    4768954  MISS:     263374  HIT %:    94.7664  MISS %:    5.23364   MPKI: 5.26748
BTB BRANCH_DIRECT_JUMP	ACCESS:    1007002  HIT:    1006855  MISS:        147
BTB BRANCH_INDIRECT	ACCESS:     361225  HIT:     106454  MISS:     254771
BTB BRANCH_CONDITIONAL	ACCESS:    2937822  HIT:    2937409  MISS:        413
BTB BRANCH_DIRECT_CALL	ACCESS:     356057  HIT:     355998  MISS:         59
BTB BRANCH_INDIRECT_CALL	ACCESS:       7082  HIT:       3644  MISS:       3438
BTB BRANCH_RETURN	ACCESS:     363140  HIT:     358594  MISS:       4546
BTB BRANCH_OTHER ACCESS:          0  HIT:          0  MISS:          0

L2C TOTAL     ACCESS:       7672  HIT:       2911  MISS:       4761  HIT %:    37.9432  MISS %:    62.0568   MPKI: 0.09522
L2C LOAD      ACCESS:       6326  HIT:       1835  MISS:       4491  HIT %:    29.0073  MISS %:    70.9927   MPKI: 0.08982
L2C DATA LOAD MPKI: 0.08662
L2C INSTRUCTION LOAD MPKI: 0.0032
L2C RFO       ACCESS:        186  HIT:         23  MISS:        163  HIT %:    12.3656  MISS %:    87.6344   MPKI: 0.00326
L2C PREFETCH  ACCESS:        238  HIT:        222  MISS:         16  HIT %:    93.2773  MISS %:    6.72269   MPKI: 0.00032
L2C DATA PREFETCH MPKI: 0.00032
L2C INSTRUCTION PREFETCH MPKI: 0
L2C WRITEBACK ACCESS:        578  HIT:        578  MISS:          0  HIT %:        100  MISS %:          0   MPKI: 0
L2C LOAD TRANSLATION ACCESS:        344  HIT:        253  MISS:         91  HIT %:    73.5465  MISS %:    26.4535   MPKI: 0.00182
L2C PREFETCH  REQUESTED:       3156  ISSUED:       3156  USEFUL:         14  USELESS:          1
L2C USEFUL LOAD PREFETCHES:         14 PREFETCH ISSUED TO LOWER LEVEL:       2845  ACCURACY: 0.492091
L2C TIMELY PREFETCHES:         14 LATE PREFETCHES: 4 DROPPED PREFETCHES: 0
L2C PREFETCHES SAME FILL-ORIGIN LEVEL: 20 DIFFERENT FILL-ORIGIN LEVEL: 2825
L2C AVERAGE MISS LATENCY: 138.427 cycles
L2C RQ	ACCESS:       6856	FORWARD:          0	MERGED:          0	TO_CACHE:       6856
L2C WQ	ACCESS:        578	FORWARD:          0	MERGED:          0	TO_CACHE:        578
L2C PQ	ACCESS:       3156	FORWARD:          0	MERGED:         16	TO_CACHE:       3140

L2C Instructions Evicting Data 3
L2C Translations Evicting Data 3
L2C Data Evicting Data 189
L2C Instructions Evicting Instructions 0
L2C Translations Evicting Instructions 1
L2C Data Evicting Instructions 77
L2C Instructions Evicting Translations 1
L2C Translations Evicting Translations 0
L2C Data Evicting Translations 17
L2C Dense regions hint from L2: 0
PSCL5 TOTAL     ACCESS:        336  HIT:        336  MISS:          0  HIT %:        100  MISS %:          0   MPKI: 0
PSCL5 LOAD TRANSLATION ACCESS:        336  HIT:        336  MISS:          0  HIT %:        100  MISS %:          0   MPKI: 0
PSCL5 PREFETCH  REQUESTED:          0  ISSUED:          0  USEFUL:          0  USELESS:          0
PSCL5 USEFUL LOAD PREFETCHES:          0 PREFETCH ISSUED TO LOWER LEVEL:          0  ACCURACY: -nan
PSCL5 TIMELY PREFETCHES:          0 LATE PREFETCHES: 0 DROPPED PREFETCHES: 0
PSCL5 PREFETCHES SAME FILL-ORIGIN LEVEL: 0 DIFFERENT FILL-ORIGIN LEVEL: 0

PSCL4 TOTAL     ACCESS:        336  HIT:        336  MISS:          0  HIT %:        100  MISS %:          0   MPKI: 0
PSCL4 LOAD TRANSLATION ACCESS:        336  HIT:        336  MISS:          0  HIT %:        100  MISS %:          0   MPKI: 0
PSCL4 PREFETCH  REQUESTED:          0  ISSUED:          0  USEFUL:          0  USELESS:          0
PSCL4 USEFUL LOAD PREFETCHES:          0 PREFETCH ISSUED TO LOWER LEVEL:          0  ACCURACY: -nan
PSCL4 TIMELY PREFETCHES:          0 LATE PREFETCHES: 0 DROPPED PREFETCHES: 0
PSCL4 PREFETCHES SAME FILL-ORIGIN LEVEL: 0 DIFFERENT FILL-ORIGIN LEVEL: 0

PSCL3 TOTAL     ACCESS:        336  HIT:        336  MISS:          0  HIT %:        100  MISS %:          0   MPKI: 0
PSCL3 LOAD TRANSLATION ACCESS:        336  HIT:        336  MISS:          0  HIT %:        100  MISS %:          0   MPKI: 0
PSCL3 PREFETCH  REQUESTED:          0  ISSUED:          0  USEFUL:          0  USELESS:          0
PSCL3 USEFUL LOAD PREFETCHES:          0 PREFETCH ISSUED TO LOWER LEVEL:          0  ACCURACY: -nan
PSCL3 TIMELY PREFETCHES:          0 LATE PREFETCHES: 0 DROPPED PREFETCHES: 0
PSCL3 PREFETCHES SAME FILL-ORIGIN LEVEL: 0 DIFFERENT FILL-ORIGIN LEVEL: 0

PSCL2 TOTAL     ACCESS:        336  HIT:        322  MISS:         14  HIT %:    95.8333  MISS %:    4.16667   MPKI: 0.00028
PSCL2 LOAD TRANSLATION ACCESS:        336  HIT:        322  MISS:         14  HIT %:    95.8333  MISS %:    4.16667   MPKI: 0.00028
PSCL2 PREFETCH  REQUESTED:          0  ISSUED:          0  USEFUL:          0  USELESS:          0
PSCL2 USEFUL LOAD PREFETCHES:          0 PREFETCH ISSUED TO LOWER LEVEL:          0  ACCURACY: -nan
PSCL2 TIMELY PREFETCHES:          0 LATE PREFETCHES: 0 DROPPED PREFETCHES: 0
PSCL2 PREFETCHES SAME FILL-ORIGIN LEVEL: 0 DIFFERENT FILL-ORIGIN LEVEL: 0

LLC TOTAL     ACCESS:       7362  HIT:       2055  MISS:       5307  HIT %:    27.9136  MISS %:    72.0864   MPKI: 0.10614
LLC LOAD      ACCESS:       4487  HIT:       1120  MISS:       3367  HIT %:     24.961  MISS %:     75.039   MPKI: 0.06734
LLC RFO       ACCESS:        163  HIT:          6  MISS:        157  HIT %:    3.68098  MISS %:     96.319   MPKI: 0.00314
LLC PREFETCH  ACCESS:       2596  HIT:        903  MISS:       1693  HIT %:    34.7843  MISS %:    65.2157   MPKI: 0.03386
LLC WRITEBACK ACCESS:         25  HIT:         25  MISS:          0  HIT %:        100  MISS %:          0   MPKI: 0
LLC LOAD TRANSLATION ACCESS:         91  HIT:          1  MISS:         90  HIT %:     1.0989  MISS %:    98.9011   MPKI: 0.0018
LLC PREFETCH  REQUESTED:          0  ISSUED:          0  USEFUL:       1122  USELESS:          0
LLC USEFUL LOAD PREFETCHES:       1122 PREFETCH ISSUED TO LOWER LEVEL:       1789  ACCURACY: 62.7166
LLC TIMELY PREFETCHES:       1122 LATE PREFETCHES: 96 DROPPED PREFETCHES: 0
LLC PREFETCHES SAME FILL-ORIGIN LEVEL: 1781 DIFFERENT FILL-ORIGIN LEVEL: 0
LLC AVERAGE MISS LATENCY: 160.063 cycles
LLC RQ	ACCESS:       4741	FORWARD:          0	MERGED:          0	TO_CACHE:       4741
LLC WQ	ACCESS:         25	FORWARD:          0	MERGED:          0	TO_CACHE:         25
LLC PQ	ACCESS:       2845	FORWARD:          0	MERGED:          1	TO_CACHE:       2844

LLC Dense regions hint to LLC: 0

RAW hits: 726218
Loads Generated: 11564895
Loads sent to L1D: 10838675
Stores Generated: 10763413
Stores sent to L1D: 10763416
Major fault: 0 Minor fault: 642
Allocated PAGES: 642
 All Calls: 5360
 Critical Calls: 5360
------------------
Depth Distribution
------------------
depth 0: 0
depth 1: 2104
depth 2: 785
depth 3: 433
depth 4: 226
depth 5: 100
depth 6: 42
depth 7: 10
depth 8: 2
depth 9: 2
depth 10: 2
depth 11: 1
depth 12: 1
depth 13: 0
depth 14: 0
depth 15: 0
depth 16: 0
depth 17: 0
depth 18: 0
depth 19: 0
depth 20: 0
depth 21: 0
depth 22: 0
depth 23: 0
depth 24: 0
depth 25: 0
depth 26: 0
depth 27: 0
depth 28: 0
depth 29: 0
Total: 3708
-----------------------------
-----------------------------
	Captured at Filter
-----------------------------
depth 0: 0
depth 1: 5
depth 2: 1
depth 3: 1
depth 4: 0
depth 5: 0
depth 6: 0
depth 7: 0
depth 8: 0
depth 9: 0
depth 10: 0
depth 11: 0
depth 12: 0
depth 13: 0
depth 14: 0
depth 15: 0
depth 16: 0
depth 17: 0
depth 18: 0
depth 19: 0
depth 20: 0
depth 21: 0
depth 22: 0
depth 23: 0
depth 24: 0
depth 25: 0
depth 26: 0
depth 27: 0
depth 28: 0
depth 29: 0
-----------------------------
-----------------------------
		Lost at Page
-----------------------------
depth 0: 0
depth 1: 81
depth 2: 31
depth 3: 22
depth 4: 22
depth 5: 13
depth 6: 11
depth 7: 10
depth 8: 3
depth 9: 0
depth 10: 0
depth 11: 0
depth 12: 0
depth 13: 0
depth 14: 0
depth 15: 0
depth 16: 0
depth 17: 0
depth 18: 0
depth 19: 0
depth 20: 0
depth 21: 0
depth 22: 0
depth 23: 0
depth 24: 0
depth 25: 0
depth 26: 0
depth 27: 0
depth 28: 0
depth 29: 0
-----------------------------
-----------------------------
	Lost due to PQ Size
-----------------------------
0
-----------------------------
ST read accesses: 4129
ST write accesses: 292
PT read accesses: 53253
PT write accesses: 4643
FILTER read accesses: 12343
FILTER write accesses: 4853
GHR read accesses: 3277
GHR write accesses: 147
GHR counter read accesses: 38158
GHR counter write accesses: 4460
ST tag read accesses: 1856669
ST tag write accesses: 118653

DRAM Statistics
 CHANNEL 0
 RQ ROW_BUFFER_HIT:       2275  ROW_BUFFER_MISS:       3032
 DBUS_CONGESTED:       1829
 WQ ROW_BUFFER_HIT:          0  ROW_BUFFER_MISS:          0  FULL:          0

 AVG_CONGESTED_CYCLE: 65
 All warmup complete: 2
Channel 0 Bank busy for read cycles: 0
Channel 0 Bank busy for write cycles: 0
Channel 0
Rank 0
0banks busy for read cycles: 79568766
0banks busy for write cycles: 0
1banks busy for read cycles: 338175
1banks busy for write cycles: 0
2banks busy for read cycles: 115714
2banks busy for write cycles: 0
3banks busy for read cycles: 33813
3banks busy for write cycles: 0
4banks busy for read cycles: 10200
4banks busy for write cycles: 0
5banks busy for read cycles: 2559
5banks busy for write cycles: 0
6banks busy for read cycles: 833
6banks busy for write cycles: 0
7banks busy for read cycles: 309
7banks busy for write cycles: 0
8banks busy for read cycles: 0
8banks busy for write cycles: 0

CPU 0 Branch Prediction Accuracy: 97.5611% MPKI: 3.43332 Average ROB Occupancy at Mispredict: 39.9877
Branch types
NOT_BRANCH: 42960939 85.9219%
BRANCH_DIRECT_JUMP: 1007002 2.014%
BRANCH_INDIRECT: 361225 0.72245%
BRANCH_CONDITIONAL: 4944220 9.88844%
BRANCH_DIRECT_CALL: 356057 0.712114%
BRANCH_INDIRECT_CALL: 7082 0.014164%
BRANCH_RETURN: 363140 0.72628%
BRANCH_OTHER: 0 0%

@sumon_overall_L1D         0         0         0         0         0         0
@Sumon_Early_by_class_L1D         0         0         0         0
@Sumon_Late_by_class_L1D         0         0         0         0

@Sumon_Early_by_cycle_L1D         0         0         0         0         0         0         0         0         0         0         0         0
@Sumon_Late_by_cycle_L1D         0         0         0         0         0         0         0         0         0         0         0         0
@Sumon_Early_stream_L1D         0         0         0         0         0         0         0         0         0         0         0         0
@Sumon_Early_CS_L1D         0         0         0         0         0         0         0         0         0         0         0         0
@Sumon_Early_CPLX_L1D         0         0         0         0         0         0         0         0         0         0         0         0
@Sumon_Late_stream_L1D         0         0         0         0         0         0         0         0         0         0         0         0
@Sumon_Late_CS_L1D         0         0         0         0         0         0         0         0         0         0         0         0
@Sumon_Late_CPLX_L1D         0         0         0         0         0         0         0         0         0         0         0         0
@sumon_overall_L2C        14         4         1        16      3156      3156
@Sumon_Early_by_class_L2C         0         0         0         0
@Sumon_Late_by_class_L2C         0         0         0         0

@Sumon_Early_by_cycle_L2C        10         1         0         0         1         1         0         0         0         0         1         0
@Sumon_Late_by_cycle_L2C         4         0         0         0         0         0         0         0         0         0         0         0
@Sumon_Early_stream_L2C         0         0         0         0         0         0         0         0         0         0         0         0
@Sumon_Early_CS_L2C         0         0         0         0         0         0         0         0         0         0         0         0
@Sumon_Early_CPLX_L2C         0         0         0         0         0         0         0         0         0         0         0         0
@Sumon_Late_stream_L2C         0         0         0         0         0         0         0         0         0         0         0         0
@Sumon_Late_CS_L2C         0         0         0         0         0         0         0         0         0         0         0         0
@Sumon_Late_CPLX_L2C         0         0         0         0         0         0         0         0         0         0         0         0
DRAM PAGES: 1048576
Allocated PAGES: 642
