Initialize SIGNATURE TABLE
ST_SET: 1
ST_WAY: 256
ST_TAG_BIT: 16
ST_TAG_MASK: ffff

Initialize PATTERN TABLE
PT_SET: 512
PT_WAY: 4
SIG_DELTA_BIT: 7
C_SIG_BIT: 4
C_DELTA_BIT: 4

Initialize PREFETCH FILTER
FILTER_SET: 1024

*** ChampSim Multicore Out-of-Order Simulator ***

Warmup Instructions: 10000000
Simulation Instructions: 50000000
Number of CPUs: 1
LLC sets: 2048
LLC ways: 16
Off-chip DRAM Size: 4096 MB Channels: 1 Width: 64-bit Data Rate: 400 MT/s
CPU 0 runs traces/SPEC2017/603.bwaves_s-2931B.champsimtrace.xz
.xz
CPU 0 Bimodal branch predictor
BTB has LRU replacement policy
ITLB has LRU replacement policy
DTLB has LRU replacement policy
STLB has LRU replacement policy
L1I has LRU replacement policy
L1D has LRU replacement policy
ST_WAYS: 256
PT_SETS: 512
L2C has LRU replacement policy
LLC has LRU replacement policy
Killed
*** Reached end of trace for Core: 0 Repeating trace: traces/SPEC2017/603.bwaves_s-2931B.champsimtrace.xz
Killed
*** Reached end of trace for Core: 0 Repeating trace: traces/SPEC2017/603.bwaves_s-2931B.champsimtrace.xz
Killed
*** Reached end of trace for Core: 0 Repeating trace: traces/SPEC2017/603.bwaves_s-2931B.champsimtrace.xz
Killed
*** Reached end of trace for Core: 0 Repeating trace: traces/SPEC2017/603.bwaves_s-2931B.champsimtrace.xz
Killed
*** Reached end of trace for Core: 0 Repeating trace: traces/SPEC2017/603.bwaves_s-2931B.champsimtrace.xz
Killed
*** Reached end of trace for Core: 0 Repeating trace: traces/SPEC2017/603.bwaves_s-2931B.champsimtrace.xz
Killed
*** Reached end of trace for Core: 0 Repeating trace: traces/SPEC2017/603.bwaves_s-2931B.champsimtrace.xz
Heartbeat CPU 0 instructions: 10000003 cycles: 2947298 heartbeat IPC: 3.39294 cumulative IPC: 3.39294 (Simulation time: 2 hr 4 min 56 sec) 

Warmup complete CPU 0 instructions: 10000003 cycles: 2947298 (Simulation time: 2 hr 5 min 25 sec) 

Killed
*** Reached end of trace for Core: 0 Repeating trace: traces/SPEC2017/603.bwaves_s-2931B.champsimtrace.xz
Killed
*** Reached end of trace for Core: 0 Repeating trace: traces/SPEC2017/603.bwaves_s-2931B.champsimtrace.xz
Heartbeat CPU 0 instructions: 20000002 cycles: 17010898 heartbeat IPC: 0.711055 cumulative IPC: 0.711055 (Simulation time: 3 hr 45 min 29 sec) 
Heartbeat CPU 0 instructions: 30000001 cycles: 33614020 heartbeat IPC: 0.602296 cumulative IPC: 0.652173 (Simulation time: 3 hr 49 min 51 sec) 
Heartbeat CPU 0 instructions: 40000001 cycles: 50297793 heartbeat IPC: 0.599385 cumulative IPC: 0.633573 (Simulation time: 3 hr 55 min 27 sec) 
Heartbeat CPU 0 instructions: 50000001 cycles: 66914829 heartbeat IPC: 0.601792 cumulative IPC: 0.625317 (Simulation time: 3 hr 58 min 12 sec) 
Heartbeat CPU 0 instructions: 60000003 cycles: 83521420 heartbeat IPC: 0.602171 cumulative IPC: 0.620547 (Simulation time: 4 hr 7 min 39 sec) 
Finished CPU 0 instructions: 50000000 cycles: 80574122 cumulative IPC: 0.620547 (Simulation time: 4 hr 7 min 39 sec) 

ChampSim completed all CPUs

Region of Interest Statistics

CPU 0 cumulative IPC: 0.620547 instructions: 50000000 cycles: 80574122
ITLB TOTAL     ACCESS:    6078747  HIT:    6078747  MISS:          0  HIT %:        100  MISS %:          0   MPKI: 0
ITLB LOAD TRANSLATION ACCESS:    6078747  HIT:    6078747  MISS:          0  HIT %:        100  MISS %:          0   MPKI: 0
ITLB PREFETCH  REQUESTED:          0  ISSUED:          0  USEFUL:          0  USELESS:          0
ITLB USEFUL LOAD PREFETCHES:          0 PREFETCH ISSUED TO LOWER LEVEL:          0  ACCURACY: -nan
ITLB TIMELY PREFETCHES:          0 LATE PREFETCHES: 0 DROPPED PREFETCHES: 0
ITLB PREFETCHES SAME FILL-ORIGIN LEVEL: 0 DIFFERENT FILL-ORIGIN LEVEL: 0
ITLB AVERAGE MISS LATENCY: -nan cycles
ITLB RQ	ACCESS:    7068254	FORWARD:          0	MERGED:     989507	TO_CACHE:    6078747

DTLB TOTAL     ACCESS:   11566754  HIT:   11466804  MISS:      99950  HIT %:    99.1359  MISS %:   0.864115   MPKI: 1.999
DTLB LOAD TRANSLATION ACCESS:   11566754  HIT:   11466804  MISS:      99950  HIT %:    99.1359  MISS %:   0.864115   MPKI: 1.999
DTLB PREFETCH  REQUESTED:          0  ISSUED:          0  USEFUL:          0  USELESS:          0
DTLB USEFUL LOAD PREFETCHES:          0 PREFETCH ISSUED TO LOWER LEVEL:          0  ACCURACY: -nan
DTLB TIMELY PREFETCHES:          0 LATE PREFETCHES: 0 DROPPED PREFETCHES: 0
DTLB PREFETCHES SAME FILL-ORIGIN LEVEL: 0 DIFFERENT FILL-ORIGIN LEVEL: 0
DTLB AVERAGE MISS LATENCY: 77.1102 cycles
DTLB RQ	ACCESS:   16821246	FORWARD:          0	MERGED:    5245536	TO_CACHE:   11575710

STLB TOTAL     ACCESS:      99950  HIT:      90920  MISS:       9030  HIT %:    90.9655  MISS %:    9.03452   MPKI: 0.1806
STLB LOAD TRANSLATION ACCESS:      99950  HIT:      90920  MISS:       9030  HIT %:    90.9655  MISS %:    9.03452   MPKI: 0.1806
STLB PREFETCH  REQUESTED:          0  ISSUED:          0  USEFUL:          0  USELESS:          0
STLB USEFUL LOAD PREFETCHES:          0 PREFETCH ISSUED TO LOWER LEVEL:          0  ACCURACY: -nan
STLB TIMELY PREFETCHES:          0 LATE PREFETCHES: 0 DROPPED PREFETCHES: 0
STLB PREFETCHES SAME FILL-ORIGIN LEVEL: 0 DIFFERENT FILL-ORIGIN LEVEL: 0
STLB AVERAGE MISS LATENCY: 746.23 cycles
STLB RQ	ACCESS:      99950	FORWARD:          0	MERGED:          0	TO_CACHE:      99950

STLB Hit, L1D data hit: 0
STLB Hit, L2C data hit: 0
STLB Hit, LLC data hit: 0
STLB Hit, LLC data miss: 0
STLB STLB hints to L2: 0
L1D TOTAL     ACCESS:   14970929  HIT:   14179866  MISS:     791063  HIT %:     94.716  MISS %:    5.28399   MPKI: 15.8213
L1D LOAD      ACCESS:    8537582  HIT:    8046803  MISS:     490779  HIT %:    94.2515  MISS %:    5.74845   MPKI: 9.81558
L1D RFO       ACCESS:    6433347  HIT:    6133063  MISS:     300284  HIT %:    95.3324  MISS %:    4.66762   MPKI: 6.00568
L1D PREFETCH  REQUESTED:          0  ISSUED:          0  USEFUL:          0  USELESS:          0
L1D USEFUL LOAD PREFETCHES:          0 PREFETCH ISSUED TO LOWER LEVEL:          0  ACCURACY: -nan
L1D TIMELY PREFETCHES:          0 LATE PREFETCHES: 0 DROPPED PREFETCHES: 0
L1D PREFETCHES SAME FILL-ORIGIN LEVEL: 0 DIFFERENT FILL-ORIGIN LEVEL: 0
L1D AVERAGE MISS LATENCY: 1367.54 cycles
L1D RQ	ACCESS:   13613215	FORWARD:          0	MERGED:    4004161	TO_CACHE:    8543806
L1D WQ	ACCESS:    9162276	FORWARD:    1065248	MERGED:     884836	TO_CACHE:    8277440

L1D UNIQUE REGIONS ACCESSED: 0
L1D REGIONS CONFLICTS: 0
L1D Cross Page Prefetch Requests: 0
L1D Same Page Prefetch Requests: 0
L1D ROI Sum of L1D PQ occupancy: 0
L1D PREFETCHES PUSHED FROM L2C: 0
L1I TOTAL     ACCESS:    7068247  HIT:    7068240  MISS:          7  HIT %:    99.9999  MISS %: 9.90345e-05   MPKI: 0.00014
L1I LOAD      ACCESS:    7068247  HIT:    7068240  MISS:          7  HIT %:    99.9999  MISS %: 9.90345e-05   MPKI: 0.00014
L1I PREFETCH  REQUESTED:          0  ISSUED:          0  USEFUL:          0  USELESS:          0
L1I USEFUL LOAD PREFETCHES:          0 PREFETCH ISSUED TO LOWER LEVEL:          0  ACCURACY: -nan
L1I TIMELY PREFETCHES:          0 LATE PREFETCHES: 0 DROPPED PREFETCHES: 0
L1I PREFETCHES SAME FILL-ORIGIN LEVEL: 0 DIFFERENT FILL-ORIGIN LEVEL: 0
L1I AVERAGE MISS LATENCY: 517.143 cycles
L1I RQ	ACCESS:   10249524	FORWARD:          0	MERGED:    3181270	TO_CACHE:    7068254

BTB TOTAL     ACCESS:     421995  HIT:     421990  MISS:          5  HIT %:    99.9988  MISS %: 0.00118485   MPKI: 0.0001
BTB BRANCH_DIRECT_JUMP	ACCESS:          0  HIT:          0  MISS:          0
BTB BRANCH_INDIRECT	ACCESS:          0  HIT:          0  MISS:          0
BTB BRANCH_CONDITIONAL	ACCESS:     421995  HIT:     421990  MISS:          5
BTB BRANCH_DIRECT_CALL	ACCESS:          0  HIT:          0  MISS:          0
BTB BRANCH_INDIRECT_CALL	ACCESS:          0  HIT:          0  MISS:          0
BTB BRANCH_RETURN	ACCESS:          0  HIT:          0  MISS:          0
BTB BRANCH_OTHER ACCESS:          0  HIT:          0  MISS:          0

L2C TOTAL     ACCESS:    1608665  HIT:     869369  MISS:     739296  HIT %:    54.0429  MISS %:    45.9571   MPKI: 14.7859
L2C LOAD      ACCESS:     490768  HIT:     339276  MISS:     151492  HIT %:    69.1316  MISS %:    30.8684   MPKI: 3.02984
L2C DATA LOAD MPKI: 3.0297
L2C INSTRUCTION LOAD MPKI: 0.00014
L2C RFO       ACCESS:     298927  HIT:       1230  MISS:     297697  HIT %:   0.411472  MISS %:    99.5885   MPKI: 5.95394
L2C PREFETCH  ACCESS:     508182  HIT:     219286  MISS:     288896  HIT %:    43.1511  MISS %:    56.8489   MPKI: 5.77792
L2C DATA PREFETCH MPKI: 5.77792
L2C INSTRUCTION PREFETCH MPKI: 0
L2C WRITEBACK ACCESS:     301749  HIT:     301733  MISS:         16  HIT %:    99.9947  MISS %: 0.00530242   MPKI: 0.00032
L2C LOAD TRANSLATION ACCESS:       9039  HIT:       7844  MISS:       1195  HIT %:    86.7795  MISS %:    13.2205   MPKI: 0.0239
L2C PREFETCH  REQUESTED:    3165810  ISSUED:    2916532  USEFUL:     288846  USELESS:         61
L2C USEFUL LOAD PREFETCHES:     288846 PREFETCH ISSUED TO LOWER LEVEL:    2686999  ACCURACY: 10.7498
L2C TIMELY PREFETCHES:     288846 LATE PREFETCHES: 699 DROPPED PREFETCHES: 0
L2C PREFETCHES SAME FILL-ORIGIN LEVEL: 289595 DIFFERENT FILL-ORIGIN LEVEL: 2397404
L2C AVERAGE MISS LATENCY: 1474.41 cycles
L2C RQ	ACCESS:     800123	FORWARD:          0	MERGED:          0	TO_CACHE:     798748
L2C WQ	ACCESS:     301749	FORWARD:       1375	MERGED:          0	TO_CACHE:     301749
L2C PQ	ACCESS:    2916532	FORWARD:          0	MERGED:      10031	TO_CACHE:    2906501

L2C Instructions Evicting Data 7
L2C Translations Evicting Data 1195
L2C Data Evicting Data 736906
L2C Instructions Evicting Instructions 0
L2C Translations Evicting Instructions 0
L2C Data Evicting Instructions 7
L2C Instructions Evicting Translations 0
L2C Translations Evicting Translations 0
L2C Data Evicting Translations 1165
L2C Dense regions hint from L2: 0
PSCL5 TOTAL     ACCESS:       9030  HIT:       9030  MISS:          0  HIT %:        100  MISS %:          0   MPKI: 0
PSCL5 LOAD TRANSLATION ACCESS:       9030  HIT:       9030  MISS:          0  HIT %:        100  MISS %:          0   MPKI: 0
PSCL5 PREFETCH  REQUESTED:          0  ISSUED:          0  USEFUL:          0  USELESS:          0
PSCL5 USEFUL LOAD PREFETCHES:          0 PREFETCH ISSUED TO LOWER LEVEL:          0  ACCURACY: -nan
PSCL5 TIMELY PREFETCHES:          0 LATE PREFETCHES: 0 DROPPED PREFETCHES: 0
PSCL5 PREFETCHES SAME FILL-ORIGIN LEVEL: 0 DIFFERENT FILL-ORIGIN LEVEL: 0

PSCL4 TOTAL     ACCESS:       9030  HIT:       9030  MISS:          0  HIT %:        100  MISS %:          0   MPKI: 0
PSCL4 LOAD TRANSLATION ACCESS:       9030  HIT:       9030  MISS:          0  HIT %:        100  MISS %:          0   MPKI: 0
PSCL4 PREFETCH  REQUESTED:          0  ISSUED:          0  USEFUL:          0  USELESS:          0
PSCL4 USEFUL LOAD PREFETCHES:          0 PREFETCH ISSUED TO LOWER LEVEL:          0  ACCURACY: -nan
PSCL4 TIMELY PREFETCHES:          0 LATE PREFETCHES: 0 DROPPED PREFETCHES: 0
PSCL4 PREFETCHES SAME FILL-ORIGIN LEVEL: 0 DIFFERENT FILL-ORIGIN LEVEL: 0

PSCL3 TOTAL     ACCESS:       7403  HIT:       7395  MISS:          8  HIT %:    99.8919  MISS %:   0.108064   MPKI: 0.00016
PSCL3 LOAD TRANSLATION ACCESS:       7403  HIT:       7395  MISS:          8  HIT %:    99.8919  MISS %:   0.108064   MPKI: 0.00016
PSCL3 PREFETCH  REQUESTED:          0  ISSUED:          0  USEFUL:          0  USELESS:          0
PSCL3 USEFUL LOAD PREFETCHES:          0 PREFETCH ISSUED TO LOWER LEVEL:          0  ACCURACY: -nan
PSCL3 TIMELY PREFETCHES:          0 LATE PREFETCHES: 0 DROPPED PREFETCHES: 0
PSCL3 PREFETCHES SAME FILL-ORIGIN LEVEL: 0 DIFFERENT FILL-ORIGIN LEVEL: 0

PSCL2 TOTAL     ACCESS:       9030  HIT:       9010  MISS:         20  HIT %:    99.7785  MISS %:   0.221484   MPKI: 0.0004
PSCL2 LOAD TRANSLATION ACCESS:       9030  HIT:       9010  MISS:         20  HIT %:    99.7785  MISS %:   0.221484   MPKI: 0.0004
PSCL2 PREFETCH  REQUESTED:          0  ISSUED:          0  USEFUL:          0  USELESS:          0
PSCL2 USEFUL LOAD PREFETCHES:          0 PREFETCH ISSUED TO LOWER LEVEL:          0  ACCURACY: -nan
PSCL2 TIMELY PREFETCHES:          0 LATE PREFETCHES: 0 DROPPED PREFETCHES: 0
PSCL2 PREFETCHES SAME FILL-ORIGIN LEVEL: 0 DIFFERENT FILL-ORIGIN LEVEL: 0

LLC TOTAL     ACCESS:    3229520  HIT:    2586279  MISS:     643241  HIT %:    80.0825  MISS %:    19.9175   MPKI: 12.8648
LLC LOAD      ACCESS:     150794  HIT:     141970  MISS:       8824  HIT %:    94.1483  MISS %:    5.85169   MPKI: 0.17648
LLC RFO       ACCESS:     297697  HIT:      18004  MISS:     279693  HIT %:    6.04776  MISS %:    93.9522   MPKI: 5.59386
LLC PREFETCH  ACCESS:    2482209  HIT:    2128678  MISS:     353531  HIT %:    85.7574  MISS %:    14.2426   MPKI: 7.07062
LLC WRITEBACK ACCESS:     297625  HIT:     297609  MISS:         16  HIT %:    99.9946  MISS %: 0.00537589   MPKI: 0.00032
LLC LOAD TRANSLATION ACCESS:       1195  HIT:         18  MISS:       1177  HIT %:    1.50628  MISS %:    98.4937   MPKI: 0.02354
LLC PREFETCH  REQUESTED:          0  ISSUED:          0  USEFUL:     128423  USELESS:     218869
LLC USEFUL LOAD PREFETCHES:     128423 PREFETCH ISSUED TO LOWER LEVEL:     354240  ACCURACY: 36.2531
LLC TIMELY PREFETCHES:     128423 LATE PREFETCHES: 702 DROPPED PREFETCHES: 0
LLC PREFETCHES SAME FILL-ORIGIN LEVEL: 349491 DIFFERENT FILL-ORIGIN LEVEL: 0
LLC AVERAGE MISS LATENCY: 3025.25 cycles
LLC RQ	ACCESS:     449699	FORWARD:          0	MERGED:          0	TO_CACHE:     449699
LLC WQ	ACCESS:     297626	FORWARD:          0	MERGED:          0	TO_CACHE:     297626
LLC PQ	ACCESS:    2686999	FORWARD:          0	MERGED:          3	TO_CACHE:    2686996

LLC Dense regions hint to LLC: 0

RAW hits: 1048275
Loads Generated: 14661487
Loads sent to L1D: 13613215
Stores Generated: 9162274
Stores sent to L1D: 9162276
Major fault: 0 Minor fault: 9574
Allocated PAGES: 9574
 All Calls: 607931
 Critical Calls: 607931
------------------
Depth Distribution
------------------
depth 0: 0
depth 1: 558449
depth 2: 535773
depth 3: 502032
depth 4: 470569
depth 5: 444010
depth 6: 414829
depth 7: 320209
depth 8: 205621
depth 9: 33960
depth 10: 466
depth 11: 3
depth 12: 0
depth 13: 0
depth 14: 0
depth 15: 0
depth 16: 0
depth 17: 0
depth 18: 0
depth 19: 0
depth 20: 0
depth 21: 0
depth 22: 0
depth 23: 0
depth 24: 0
depth 25: 0
depth 26: 0
depth 27: 0
depth 28: 0
depth 29: 0
Total: 3485921
-----------------------------
-----------------------------
	Captured at Filter
-----------------------------
depth 0: 0
depth 1: 17603
depth 2: 13385
depth 3: 10275
depth 4: 9659
depth 5: 8591
depth 6: 7959
depth 7: 6962
depth 8: 3968
depth 9: 949
depth 10: 74
depth 11: 0
depth 12: 0
depth 13: 0
depth 14: 0
depth 15: 0
depth 16: 0
depth 17: 0
depth 18: 0
depth 19: 0
depth 20: 0
depth 21: 0
depth 22: 0
depth 23: 0
depth 24: 0
depth 25: 0
depth 26: 0
depth 27: 0
depth 28: 0
depth 29: 0
-----------------------------
-----------------------------
		Lost at Page
-----------------------------
depth 0: 0
depth 1: 10671
depth 2: 18894
depth 3: 27723
depth 4: 35918
depth 5: 44288
depth 6: 51501
depth 7: 48387
depth 8: 37642
depth 9: 9947
depth 10: 169
depth 11: 1
depth 12: 0
depth 13: 0
depth 14: 0
depth 15: 0
depth 16: 0
depth 17: 0
depth 18: 0
depth 19: 0
depth 20: 0
depth 21: 0
depth 22: 0
depth 23: 0
depth 24: 0
depth 25: 0
depth 26: 0
depth 27: 0
depth 28: 0
depth 29: 0
-----------------------------
-----------------------------
	Lost due to PQ Size
-----------------------------
368042
-----------------------------
ST read accesses: 485013
ST write accesses: 5749
PT read accesses: 19574864
PT write accesses: 721480
FILTER read accesses: 4437334
FILTER write accesses: 1354002
GHR read accesses: 1283168
GHR write accesses: 234227
GHR counter read accesses: 16619684
GHR counter write accesses: 1119521
ST tag read accesses: 191963773
ST tag write accesses: 6841507

DRAM Statistics
 CHANNEL 0
 RQ ROW_BUFFER_HIT:     353652  ROW_BUFFER_MISS:     289573
 DBUS_CONGESTED:     900561
 WQ ROW_BUFFER_HIT:      46794  ROW_BUFFER_MISS:     231230  FULL:          0

 AVG_CONGESTED_CYCLE: 77
 All warmup complete: 2
Channel 0 Bank busy for read cycles: 0
Channel 0 Bank busy for write cycles: 0
Channel 0
Rank 0
0banks busy for read cycles: 2530674
0banks busy for write cycles: 32
1banks busy for read cycles: 556389
1banks busy for write cycles: 35745
2banks busy for read cycles: 932871
2banks busy for write cycles: 32826
3banks busy for read cycles: 3129490
3banks busy for write cycles: 31877
4banks busy for read cycles: 8957801
4banks busy for write cycles: 31483
5banks busy for read cycles: 12706993
5banks busy for write cycles: 31483
6banks busy for read cycles: 12256466
6banks busy for write cycles: 31682
7banks busy for read cycles: 9011278
7banks busy for write cycles: 325228
8banks busy for read cycles: 6746085
8banks busy for write cycles: 23225720

CPU 0 Branch Prediction Accuracy: 80.6208% MPKI: 1.6356 Average ROB Occupancy at Mispredict: 138.042
Branch types
NOT_BRANCH: 49577841 99.1557%
BRANCH_DIRECT_JUMP: 0 0%
BRANCH_INDIRECT: 0 0%
BRANCH_CONDITIONAL: 421998 0.843996%
BRANCH_DIRECT_CALL: 0 0%
BRANCH_INDIRECT_CALL: 0 0%
BRANCH_RETURN: 0 0%
BRANCH_OTHER: 0 0%

@sumon_overall_L1D         0         0         0         0         0         0
@Sumon_Early_by_class_L1D         0         0         0         0
@Sumon_Late_by_class_L1D         0         0         0         0

@Sumon_Early_by_cycle_L1D         0         0         0         0         0         0         0         0         0         0         0         0
@Sumon_Late_by_cycle_L1D         0         0         0         0         0         0         0         0         0         0         0         0
@Sumon_Early_stream_L1D         0         0         0         0         0         0         0         0         0         0         0         0
@Sumon_Early_CS_L1D         0         0         0         0         0         0         0         0         0         0         0         0
@Sumon_Early_CPLX_L1D         0         0         0         0         0         0         0         0         0         0         0         0
@Sumon_Late_stream_L1D         0         0         0         0         0         0         0         0         0         0         0         0
@Sumon_Late_CS_L1D         0         0         0         0         0         0         0         0         0         0         0         0
@Sumon_Late_CPLX_L1D         0         0         0         0         0         0         0         0         0         0         0         0
@sumon_overall_L2C    288846       699        61    288896   2916532   3165810
@Sumon_Early_by_class_L2C         0         0         0         0
@Sumon_Late_by_class_L2C         0         0         0         0

@Sumon_Early_by_cycle_L2C        71       148       924      6535     54387    180038     42348      4080       290         3         0        22
@Sumon_Late_by_cycle_L2C        75        90       141        91        70       210        22         0         0         0         0         0
@Sumon_Early_stream_L2C         0         0         0         0         0         0         0         0         0         0         0         0
@Sumon_Early_CS_L2C         0         0         0         0         0         0         0         0         0         0         0         0
@Sumon_Early_CPLX_L2C         0         0         0         0         0         0         0         0         0         0         0         0
@Sumon_Late_stream_L2C         0         0         0         0         0         0         0         0         0         0         0         0
@Sumon_Late_CS_L2C         0         0         0         0         0         0         0         0         0         0         0         0
@Sumon_Late_CPLX_L2C         0         0         0         0         0         0         0         0         0         0         0         0
DRAM PAGES: 1048576
Allocated PAGES: 9574
