Initialize SIGNATURE TABLE
ST_SET: 1
ST_WAY: 256
ST_TAG_BIT: 16
ST_TAG_MASK: ffff

Initialize PATTERN TABLE
PT_SET: 512
PT_WAY: 4
SIG_DELTA_BIT: 7
C_SIG_BIT: 4
C_DELTA_BIT: 4

Initialize PREFETCH FILTER
FILTER_SET: 1024

*** ChampSim Multicore Out-of-Order Simulator ***

Warmup Instructions: 10000000
Simulation Instructions: 50000000
Number of CPUs: 1
LLC sets: 2048
LLC ways: 16
Off-chip DRAM Size: 4096 MB Channels: 1 Width: 64-bit Data Rate: 400 MT/s
CPU 0 runs traces/SPEC2017/607.cactuBSSN_s-2421B.champsimtrace.xz
.xz
CPU 0 Bimodal branch predictor
BTB has LRU replacement policy
ITLB has LRU replacement policy
DTLB has LRU replacement policy
STLB has LRU replacement policy
L1I has LRU replacement policy
L1D has LRU replacement policy
ST_WAYS: 256
PT_SETS: 512
L2C has LRU replacement policy
LLC has LRU replacement policy
Heartbeat CPU 0 instructions: 10000002 cycles: 3587297 heartbeat IPC: 2.78761 cumulative IPC: 2.78761 (Simulation time: 4 hr 7 min 25 sec) 

Warmup complete CPU 0 instructions: 10000002 cycles: 3587297 (Simulation time: 4 hr 7 min 28 sec) 

Heartbeat CPU 0 instructions: 20000001 cycles: 15046961 heartbeat IPC: 0.872626 cumulative IPC: 0.872626 (Simulation time: 4 hr 25 min 38 sec) 
Heartbeat CPU 0 instructions: 30000000 cycles: 26492037 heartbeat IPC: 0.873738 cumulative IPC: 0.873182 (Simulation time: 4 hr 43 min 7 sec) 
Heartbeat CPU 0 instructions: 40000001 cycles: 37943044 heartbeat IPC: 0.873286 cumulative IPC: 0.873216 (Simulation time: 5 hr 0 min 0 sec) 
Heartbeat CPU 0 instructions: 50000000 cycles: 49385546 heartbeat IPC: 0.873935 cumulative IPC: 0.873396 (Simulation time: 5 hr 16 min 23 sec) 
Heartbeat CPU 0 instructions: 60000003 cycles: 63078439 heartbeat IPC: 0.730306 cumulative IPC: 0.840461 (Simulation time: 5 hr 23 min 13 sec) 
Finished CPU 0 instructions: 50000001 cycles: 59491142 cumulative IPC: 0.840461 (Simulation time: 5 hr 23 min 13 sec) 

ChampSim completed all CPUs

Region of Interest Statistics

CPU 0 cumulative IPC: 0.840461 instructions: 50000001 cycles: 59491142
ITLB TOTAL     ACCESS:    6923015  HIT:    6922955  MISS:         60  HIT %:    99.9991  MISS %: 0.000866674   MPKI: 0.0012
ITLB LOAD TRANSLATION ACCESS:    6923015  HIT:    6922955  MISS:         60  HIT %:    99.9991  MISS %: 0.000866674   MPKI: 0.0012
ITLB PREFETCH  REQUESTED:          0  ISSUED:          0  USEFUL:          0  USELESS:          0
ITLB USEFUL LOAD PREFETCHES:          0 PREFETCH ISSUED TO LOWER LEVEL:          0  ACCURACY: -nan
ITLB TIMELY PREFETCHES:          0 LATE PREFETCHES: 0 DROPPED PREFETCHES: 0
ITLB PREFETCHES SAME FILL-ORIGIN LEVEL: 0 DIFFERENT FILL-ORIGIN LEVEL: 0
ITLB AVERAGE MISS LATENCY: 411.833 cycles
ITLB RQ	ACCESS:    8517551	FORWARD:          0	MERGED:    1594524	TO_CACHE:    6923027

DTLB TOTAL     ACCESS:   13459481  HIT:   11240424  MISS:    2219057  HIT %:    83.5131  MISS %:    16.4869   MPKI: 44.3811
DTLB LOAD TRANSLATION ACCESS:   13459481  HIT:   11240424  MISS:    2219057  HIT %:    83.5131  MISS %:    16.4869   MPKI: 44.3811
DTLB PREFETCH  REQUESTED:          0  ISSUED:          0  USEFUL:          0  USELESS:          0
DTLB USEFUL LOAD PREFETCHES:          0 PREFETCH ISSUED TO LOWER LEVEL:          0  ACCURACY: -nan
DTLB TIMELY PREFETCHES:          0 LATE PREFETCHES: 0 DROPPED PREFETCHES: 0
DTLB PREFETCHES SAME FILL-ORIGIN LEVEL: 0 DIFFERENT FILL-ORIGIN LEVEL: 0
DTLB AVERAGE MISS LATENCY: 10.3155 cycles
DTLB RQ	ACCESS:   18914905	FORWARD:          0	MERGED:    5246869	TO_CACHE:   13668036

STLB TOTAL     ACCESS:    2219117  HIT:    2216059  MISS:       3058  HIT %:    99.8622  MISS %:   0.137803   MPKI: 0.06116
STLB LOAD TRANSLATION ACCESS:    2219117  HIT:    2216059  MISS:       3058  HIT %:    99.8622  MISS %:   0.137803   MPKI: 0.06116
STLB PREFETCH  REQUESTED:          0  ISSUED:          0  USEFUL:          0  USELESS:          0
STLB USEFUL LOAD PREFETCHES:          0 PREFETCH ISSUED TO LOWER LEVEL:          0  ACCURACY: -nan
STLB TIMELY PREFETCHES:          0 LATE PREFETCHES: 0 DROPPED PREFETCHES: 0
STLB PREFETCHES SAME FILL-ORIGIN LEVEL: 0 DIFFERENT FILL-ORIGIN LEVEL: 0
STLB AVERAGE MISS LATENCY: 718.407 cycles
STLB RQ	ACCESS:    2219117	FORWARD:          0	MERGED:          0	TO_CACHE:    2219117

STLB Hit, L1D data hit: 0
STLB Hit, L2C data hit: 0
STLB Hit, LLC data hit: 0
STLB Hit, LLC data miss: 0
STLB STLB hints to L2: 0
L1D TOTAL     ACCESS:   18791699  HIT:   14780070  MISS:    4011629  HIT %:    78.6521  MISS %:    21.3479   MPKI: 80.2326
L1D LOAD      ACCESS:   14522883  HIT:   10830368  MISS:    3692515  HIT %:    74.5745  MISS %:    25.4255   MPKI: 73.8503
L1D RFO       ACCESS:    4268816  HIT:    3949702  MISS:     319114  HIT %:    92.5245  MISS %:    7.47547   MPKI: 6.38228
L1D PREFETCH  REQUESTED:          0  ISSUED:          0  USEFUL:          0  USELESS:          0
L1D USEFUL LOAD PREFETCHES:          0 PREFETCH ISSUED TO LOWER LEVEL:          0  ACCURACY: -nan
L1D TIMELY PREFETCHES:          0 LATE PREFETCHES: 0 DROPPED PREFETCHES: 0
L1D PREFETCHES SAME FILL-ORIGIN LEVEL: 0 DIFFERENT FILL-ORIGIN LEVEL: 0
L1D AVERAGE MISS LATENCY: 27.9064 cycles
L1D RQ	ACCESS:   18618978	FORWARD:          0	MERGED:    3990853	TO_CACHE:   14618051
L1D WQ	ACCESS:    4319708	FORWARD:      10074	MERGED:      22854	TO_CACHE:    4296854

L1D UNIQUE REGIONS ACCESSED: 0
L1D REGIONS CONFLICTS: 0
L1D Cross Page Prefetch Requests: 0
L1D Same Page Prefetch Requests: 0
L1D ROI Sum of L1D PQ occupancy: 0
L1D PREFETCHES PUSHED FROM L2C: 0
L1I TOTAL     ACCESS:    7962241  HIT:    6872484  MISS:    1089757  HIT %:    86.3134  MISS %:    13.6866   MPKI: 21.7951
L1I LOAD      ACCESS:    7962241  HIT:    6872484  MISS:    1089757  HIT %:    86.3134  MISS %:    13.6866   MPKI: 21.7951
L1I PREFETCH  REQUESTED:          0  ISSUED:          0  USEFUL:          0  USELESS:          0
L1I USEFUL LOAD PREFETCHES:          0 PREFETCH ISSUED TO LOWER LEVEL:          0  ACCURACY: -nan
L1I TIMELY PREFETCHES:          0 LATE PREFETCHES: 0 DROPPED PREFETCHES: 0
L1I PREFETCHES SAME FILL-ORIGIN LEVEL: 0 DIFFERENT FILL-ORIGIN LEVEL: 0
L1I AVERAGE MISS LATENCY: 14.3143 cycles
L1I RQ	ACCESS:   12034926	FORWARD:          0	MERGED:    3517375	TO_CACHE:    8517551

BTB TOTAL     ACCESS:     280550  HIT:     262606  MISS:      17944  HIT %:     93.604  MISS %:    6.39601   MPKI: 0.35888
BTB BRANCH_DIRECT_JUMP	ACCESS:      48856  HIT:      48796  MISS:         60
BTB BRANCH_INDIRECT	ACCESS:      10100  HIT:      10021  MISS:         79
BTB BRANCH_CONDITIONAL	ACCESS:     122188  HIT:     121715  MISS:        473
BTB BRANCH_DIRECT_CALL	ACCESS:      49700  HIT:      49036  MISS:        664
BTB BRANCH_INDIRECT_CALL	ACCESS:          3  HIT:          0  MISS:          3
BTB BRANCH_RETURN	ACCESS:      49703  HIT:      33038  MISS:      16665
BTB BRANCH_OTHER ACCESS:          0  HIT:          0  MISS:          0

L2C TOTAL     ACCESS:    8188934  HIT:    7866569  MISS:     322365  HIT %:    96.0634  MISS %:    3.93659   MPKI: 6.4473
L2C LOAD      ACCESS:    4765357  HIT:    4511073  MISS:     254284  HIT %:    94.6639  MISS %:     5.3361   MPKI: 5.08568
L2C DATA LOAD MPKI: 5.05536
L2C INSTRUCTION LOAD MPKI: 0.03032
L2C RFO       ACCESS:     318889  HIT:     293294  MISS:      25595  HIT %:    91.9737  MISS %:     8.0263   MPKI: 0.5119
L2C PREFETCH  ACCESS:    2755262  HIT:    2716743  MISS:      38519  HIT %:     98.602  MISS %:    1.39802   MPKI: 0.77038
L2C DATA PREFETCH MPKI: 0.77038
L2C INSTRUCTION PREFETCH MPKI: 0
L2C WRITEBACK ACCESS:     344954  HIT:     344951  MISS:          3  HIT %:    99.9991  MISS %: 0.000869681   MPKI: 6e-05
L2C LOAD TRANSLATION ACCESS:       4472  HIT:        508  MISS:       3964  HIT %:    11.3596  MISS %:    88.6404   MPKI: 0.07928
L2C PREFETCH  REQUESTED:    4456458  ISSUED:    4192052  USEFUL:      37388  USELESS:       1174
L2C USEFUL LOAD PREFETCHES:      37388 PREFETCH ISSUED TO LOWER LEVEL:     910267  ACCURACY: 4.10737
L2C TIMELY PREFETCHES:      37388 LATE PREFETCHES: 1869 DROPPED PREFETCHES: 0
L2C PREFETCHES SAME FILL-ORIGIN LEVEL: 49095 DIFFERENT FILL-ORIGIN LEVEL: 861172
L2C AVERAGE MISS LATENCY: 194.151 cycles
L2C RQ	ACCESS:    5105858	FORWARD:          0	MERGED:          0	TO_CACHE:    5088718
L2C WQ	ACCESS:     344954	FORWARD:      17159	MERGED:          0	TO_CACHE:     344954
L2C PQ	ACCESS:    4192052	FORWARD:          0	MERGED:     540246	TO_CACHE:    3651787

L2C Instructions Evicting Data 1491
L2C Translations Evicting Data 3896
L2C Data Evicting Data 311385
L2C Instructions Evicting Instructions 15
L2C Translations Evicting Instructions 7
L2C Data Evicting Instructions 1646
L2C Instructions Evicting Translations 10
L2C Translations Evicting Translations 61
L2C Data Evicting Translations 3851
L2C Dense regions hint from L2: 0
PSCL5 TOTAL     ACCESS:       3058  HIT:       3058  MISS:          0  HIT %:        100  MISS %:          0   MPKI: 0
PSCL5 LOAD TRANSLATION ACCESS:       3058  HIT:       3058  MISS:          0  HIT %:        100  MISS %:          0   MPKI: 0
PSCL5 PREFETCH  REQUESTED:          0  ISSUED:          0  USEFUL:          0  USELESS:          0
PSCL5 USEFUL LOAD PREFETCHES:          0 PREFETCH ISSUED TO LOWER LEVEL:          0  ACCURACY: -nan
PSCL5 TIMELY PREFETCHES:          0 LATE PREFETCHES: 0 DROPPED PREFETCHES: 0
PSCL5 PREFETCHES SAME FILL-ORIGIN LEVEL: 0 DIFFERENT FILL-ORIGIN LEVEL: 0

PSCL4 TOTAL     ACCESS:       3058  HIT:       3058  MISS:          0  HIT %:        100  MISS %:          0   MPKI: 0
PSCL4 LOAD TRANSLATION ACCESS:       3058  HIT:       3058  MISS:          0  HIT %:        100  MISS %:          0   MPKI: 0
PSCL4 PREFETCH  REQUESTED:          0  ISSUED:          0  USEFUL:          0  USELESS:          0
PSCL4 USEFUL LOAD PREFETCHES:          0 PREFETCH ISSUED TO LOWER LEVEL:          0  ACCURACY: -nan
PSCL4 TIMELY PREFETCHES:          0 LATE PREFETCHES: 0 DROPPED PREFETCHES: 0
PSCL4 PREFETCHES SAME FILL-ORIGIN LEVEL: 0 DIFFERENT FILL-ORIGIN LEVEL: 0

PSCL3 TOTAL     ACCESS:       3058  HIT:       3053  MISS:          5  HIT %:    99.8365  MISS %:   0.163506   MPKI: 0.0001
PSCL3 LOAD TRANSLATION ACCESS:       3058  HIT:       3053  MISS:          5  HIT %:    99.8365  MISS %:   0.163506   MPKI: 0.0001
PSCL3 PREFETCH  REQUESTED:          0  ISSUED:          0  USEFUL:          0  USELESS:          0
PSCL3 USEFUL LOAD PREFETCHES:          0 PREFETCH ISSUED TO LOWER LEVEL:          0  ACCURACY: -nan
PSCL3 TIMELY PREFETCHES:          0 LATE PREFETCHES: 0 DROPPED PREFETCHES: 0
PSCL3 PREFETCHES SAME FILL-ORIGIN LEVEL: 0 DIFFERENT FILL-ORIGIN LEVEL: 0

PSCL2 TOTAL     ACCESS:       3058  HIT:       1587  MISS:       1471  HIT %:    51.8967  MISS %:    48.1033   MPKI: 0.02942
PSCL2 LOAD TRANSLATION ACCESS:       3058  HIT:       1587  MISS:       1471  HIT %:    51.8967  MISS %:    48.1033   MPKI: 0.02942
PSCL2 PREFETCH  REQUESTED:          0  ISSUED:          0  USEFUL:          0  USELESS:          0
PSCL2 USEFUL LOAD PREFETCHES:          0 PREFETCH ISSUED TO LOWER LEVEL:          0  ACCURACY: -nan
PSCL2 TIMELY PREFETCHES:          0 LATE PREFETCHES: 0 DROPPED PREFETCHES: 0
PSCL2 PREFETCHES SAME FILL-ORIGIN LEVEL: 0 DIFFERENT FILL-ORIGIN LEVEL: 0

LLC TOTAL     ACCESS:    1156357  HIT:     979589  MISS:     176768  HIT %:    84.7134  MISS %:    15.2866   MPKI: 3.53536
LLC LOAD      ACCESS:     252413  HIT:     220654  MISS:      31759  HIT %:    87.4178  MISS %:    12.5822   MPKI: 0.63518
LLC RFO       ACCESS:      25526  HIT:        861  MISS:      24665  HIT %:    3.37303  MISS %:     96.627   MPKI: 0.4933
LLC PREFETCH  ACCESS:     841264  HIT:     721593  MISS:     119671  HIT %:    85.7749  MISS %:    14.2251   MPKI: 2.39342
LLC WRITEBACK ACCESS:      33190  HIT:      33152  MISS:         38  HIT %:    99.8855  MISS %:   0.114492   MPKI: 0.00076
LLC LOAD TRANSLATION ACCESS:       3964  HIT:       3329  MISS:        635  HIT %:    83.9808  MISS %:    16.0192   MPKI: 0.0127
LLC PREFETCH  REQUESTED:          0  ISSUED:          0  USEFUL:      88064  USELESS:      20102
LLC USEFUL LOAD PREFETCHES:      88064 PREFETCH ISSUED TO LOWER LEVEL:     122490  ACCURACY: 71.8948
LLC TIMELY PREFETCHES:      88064 LATE PREFETCHES: 2819 DROPPED PREFETCHES: 0
LLC PREFETCHES SAME FILL-ORIGIN LEVEL: 117001 DIFFERENT FILL-ORIGIN LEVEL: 0
LLC AVERAGE MISS LATENCY: 1038.73 cycles
LLC RQ	ACCESS:     281974	FORWARD:          0	MERGED:          0	TO_CACHE:     281903
LLC WQ	ACCESS:      33190	FORWARD:         71	MERGED:          0	TO_CACHE:      33190
LLC PQ	ACCESS:     859100	FORWARD:          0	MERGED:      11564	TO_CACHE:     847536

LLC Dense regions hint to LLC: 0

RAW hits: 108139
Loads Generated: 18727117
Loads sent to L1D: 18618978
Stores Generated: 4319811
Stores sent to L1D: 4319809
Major fault: 0 Minor fault: 3837
Allocated PAGES: 3837
 All Calls: 4350799
 Critical Calls: 4350799
------------------
Depth Distribution
------------------
depth 0: 0
depth 1: 3159288
depth 2: 1302681
depth 3: 353355
depth 4: 64083
depth 5: 7797
depth 6: 400
depth 7: 6
depth 8: 1
depth 9: 0
depth 10: 0
depth 11: 0
depth 12: 0
depth 13: 0
depth 14: 0
depth 15: 0
depth 16: 0
depth 17: 0
depth 18: 0
depth 19: 0
depth 20: 0
depth 21: 0
depth 22: 0
depth 23: 0
depth 24: 0
depth 25: 0
depth 26: 0
depth 27: 0
depth 28: 0
depth 29: 0
Total: 4887611
-----------------------------
-----------------------------
	Captured at Filter
-----------------------------
depth 0: 0
depth 1: 877144
depth 2: 531673
depth 3: 240779
depth 4: 46906
depth 5: 12447
depth 6: 924
depth 7: 27
depth 8: 0
depth 9: 0
depth 10: 0
depth 11: 0
depth 12: 0
depth 13: 0
depth 14: 0
depth 15: 0
depth 16: 0
depth 17: 0
depth 18: 0
depth 19: 0
depth 20: 0
depth 21: 0
depth 22: 0
depth 23: 0
depth 24: 0
depth 25: 0
depth 26: 0
depth 27: 0
depth 28: 0
depth 29: 0
-----------------------------
-----------------------------
		Lost at Page
-----------------------------
depth 0: 0
depth 1: 804932
depth 2: 238376
depth 3: 33262
depth 4: 4259
depth 5: 1634
depth 6: 132
depth 7: 6
depth 8: 1
depth 9: 0
depth 10: 0
depth 11: 0
depth 12: 0
depth 13: 0
depth 14: 0
depth 15: 0
depth 16: 0
depth 17: 0
depth 18: 0
depth 19: 0
depth 20: 0
depth 21: 0
depth 22: 0
depth 23: 0
depth 24: 0
depth 25: 0
depth 26: 0
depth 27: 0
depth 28: 0
depth 29: 0
-----------------------------
-----------------------------
	Lost due to PQ Size
-----------------------------
346077
-----------------------------
ST read accesses: 3667256
ST write accesses: 8344
PT read accesses: 51305049
PT write accesses: 4054824
FILTER read accesses: 9898193
FILTER write accesses: 724027
GHR read accesses: 6772926
GHR write accesses: 970267
GHR counter read accesses: 45955572
GHR counter write accesses: 4101076
ST tag read accesses: 1432165940
ST tag write accesses: 358557143

DRAM Statistics
 CHANNEL 0
 RQ ROW_BUFFER_HIT:     101871  ROW_BUFFER_MISS:      74859
 DBUS_CONGESTED:     173292
 WQ ROW_BUFFER_HIT:      12271  ROW_BUFFER_MISS:      22482  FULL:          0

 AVG_CONGESTED_CYCLE: 64
 All warmup complete: 2
Channel 0 Bank busy for read cycles: 0
Channel 0 Bank busy for write cycles: 0
Channel 0
Rank 0
0banks busy for read cycles: 39986441
0banks busy for write cycles: 13123
1banks busy for read cycles: 6223667
1banks busy for write cycles: 1836269
2banks busy for read cycles: 2530122
2banks busy for write cycles: 621052
3banks busy for read cycles: 1950729
3banks busy for write cycles: 413112
4banks busy for read cycles: 1492496
4banks busy for write cycles: 308698
5banks busy for read cycles: 1127591
5banks busy for write cycles: 266190
6banks busy for read cycles: 1043094
6banks busy for write cycles: 245395
7banks busy for read cycles: 695208
7banks busy for write cycles: 195248
8banks busy for read cycles: 406683
8banks busy for write cycles: 136025

CPU 0 Branch Prediction Accuracy: 99.2795% MPKI: 0.0593 Average ROB Occupancy at Mispredict: 16.8236
Branch types
NOT_BRANCH: 49588170 99.1763%
BRANCH_DIRECT_JUMP: 48856 0.097712%
BRANCH_INDIRECT: 10100 0.0202%
BRANCH_CONDITIONAL: 253148 0.506296%
BRANCH_DIRECT_CALL: 49700 0.0994%
BRANCH_INDIRECT_CALL: 3 6e-06%
BRANCH_RETURN: 49703 0.099406%
BRANCH_OTHER: 0 0%

@sumon_overall_L1D         0         0         0         0         0         0
@Sumon_Early_by_class_L1D         0         0         0         0
@Sumon_Late_by_class_L1D         0         0         0         0

@Sumon_Early_by_cycle_L1D         0         0         0         0         0         0         0         0         0         0         0         0
@Sumon_Late_by_cycle_L1D         0         0         0         0         0         0         0         0         0         0         0         0
@Sumon_Early_stream_L1D         0         0         0         0         0         0         0         0         0         0         0         0
@Sumon_Early_CS_L1D         0         0         0         0         0         0         0         0         0         0         0         0
@Sumon_Early_CPLX_L1D         0         0         0         0         0         0         0         0         0         0         0         0
@Sumon_Late_stream_L1D         0         0         0         0         0         0         0         0         0         0         0         0
@Sumon_Late_CS_L1D         0         0         0         0         0         0         0         0         0         0         0         0
@Sumon_Late_CPLX_L1D         0         0         0         0         0         0         0         0         0         0         0         0
@sumon_overall_L2C     37388      1869      1174     38519   4192052   4456458
@Sumon_Early_by_class_L2C         0         0         0         0
@Sumon_Late_by_class_L2C         0         0         0         0

@Sumon_Early_by_cycle_L2C       881       116        37         8         4        34        41       123      2382     29876      3612       274
@Sumon_Late_by_cycle_L2C      1709       125        33         2         0         0         0         0         0         0         0         0
@Sumon_Early_stream_L2C         0         0         0         0         0         0         0         0         0         0         0         0
@Sumon_Early_CS_L2C         0         0         0         0         0         0         0         0         0         0         0         0
@Sumon_Early_CPLX_L2C         0         0         0         0         0         0         0         0         0         0         0         0
@Sumon_Late_stream_L2C         0         0         0         0         0         0         0         0         0         0         0         0
@Sumon_Late_CS_L2C         0         0         0         0         0         0         0         0         0         0         0         0
@Sumon_Late_CPLX_L2C         0         0         0         0         0         0         0         0         0         0         0         0
DRAM PAGES: 1048576
Allocated PAGES: 3837
