Initialize SIGNATURE TABLE
ST_SET: 1
ST_WAY: 256
ST_TAG_BIT: 16
ST_TAG_MASK: ffff

Initialize PATTERN TABLE
PT_SET: 512
PT_WAY: 4
SIG_DELTA_BIT: 7
C_SIG_BIT: 4
C_DELTA_BIT: 4

Initialize PREFETCH FILTER
FILTER_SET: 1024

*** ChampSim Multicore Out-of-Order Simulator ***

Warmup Instructions: 10000000
Simulation Instructions: 50000000
Number of CPUs: 1
LLC sets: 2048
LLC ways: 16
Off-chip DRAM Size: 4096 MB Channels: 1 Width: 64-bit Data Rate: 400 MT/s
CPU 0 runs traces/SPEC2017/654.roms_s-1070B.champsimtrace.xz
.xz
CPU 0 Bimodal branch predictor
BTB has LRU replacement policy
ITLB has LRU replacement policy
DTLB has LRU replacement policy
STLB has LRU replacement policy
L1I has LRU replacement policy
L1D has LRU replacement policy
ST_WAYS: 256
PT_SETS: 512
L2C has LRU replacement policy
LLC has LRU replacement policy
Heartbeat CPU 0 instructions: 10000002 cycles: 3115204 heartbeat IPC: 3.21006 cumulative IPC: 3.21006 (Simulation time: 4 hr 9 min 51 sec) 

Warmup complete CPU 0 instructions: 10000002 cycles: 3115204 (Simulation time: 4 hr 9 min 51 sec) 

Heartbeat CPU 0 instructions: 20000000 cycles: 23378972 heartbeat IPC: 0.493492 cumulative IPC: 0.493492 (Simulation time: 4 hr 33 min 15 sec) 
Heartbeat CPU 0 instructions: 30000003 cycles: 49977166 heartbeat IPC: 0.375965 cumulative IPC: 0.426785 (Simulation time: 4 hr 57 min 21 sec) 
Heartbeat CPU 0 instructions: 40000003 cycles: 76633750 heartbeat IPC: 0.375142 cumulative IPC: 0.40806 (Simulation time: 5 hr 20 min 13 sec) 
Heartbeat CPU 0 instructions: 50000000 cycles: 93581167 heartbeat IPC: 0.59006 cumulative IPC: 0.442155 (Simulation time: 5 hr 26 min 46 sec) 
Heartbeat CPU 0 instructions: 60000000 cycles: 127976523 heartbeat IPC: 0.290737 cumulative IPC: 0.400444 (Simulation time: 5 hr 32 min 36 sec) 
Finished CPU 0 instructions: 50000002 cycles: 124861321 cumulative IPC: 0.400444 (Simulation time: 5 hr 32 min 36 sec) 

ChampSim completed all CPUs

Region of Interest Statistics

CPU 0 cumulative IPC: 0.400444 instructions: 50000002 cycles: 124861321
ITLB TOTAL     ACCESS:    7750045  HIT:    7750045  MISS:          0  HIT %:        100  MISS %:          0   MPKI: 0
ITLB LOAD TRANSLATION ACCESS:    7750045  HIT:    7750045  MISS:          0  HIT %:        100  MISS %:          0   MPKI: 0
ITLB PREFETCH  REQUESTED:          0  ISSUED:          0  USEFUL:          0  USELESS:          0
ITLB USEFUL LOAD PREFETCHES:          0 PREFETCH ISSUED TO LOWER LEVEL:          0  ACCURACY: -nan
ITLB TIMELY PREFETCHES:          0 LATE PREFETCHES: 0 DROPPED PREFETCHES: 0
ITLB PREFETCHES SAME FILL-ORIGIN LEVEL: 0 DIFFERENT FILL-ORIGIN LEVEL: 0
ITLB AVERAGE MISS LATENCY: -nan cycles
ITLB RQ	ACCESS:    8276201	FORWARD:          0	MERGED:     526157	TO_CACHE:    7750044

DTLB TOTAL     ACCESS:   12197382  HIT:   12173295  MISS:      24087  HIT %:    99.8025  MISS %:   0.197477   MPKI: 0.48174
DTLB LOAD TRANSLATION ACCESS:   12197382  HIT:   12173295  MISS:      24087  HIT %:    99.8025  MISS %:   0.197477   MPKI: 0.48174
DTLB PREFETCH  REQUESTED:          0  ISSUED:          0  USEFUL:          0  USELESS:          0
DTLB USEFUL LOAD PREFETCHES:          0 PREFETCH ISSUED TO LOWER LEVEL:          0  ACCURACY: -nan
DTLB TIMELY PREFETCHES:          0 LATE PREFETCHES: 0 DROPPED PREFETCHES: 0
DTLB PREFETCHES SAME FILL-ORIGIN LEVEL: 0 DIFFERENT FILL-ORIGIN LEVEL: 0
DTLB AVERAGE MISS LATENCY: 636.767 cycles
DTLB RQ	ACCESS:   13536126	FORWARD:          0	MERGED:    1306269	TO_CACHE:   12229857

STLB TOTAL     ACCESS:      24087  HIT:         14  MISS:      24073  HIT %:  0.0581226  MISS %:    99.9419   MPKI: 0.48146
STLB LOAD TRANSLATION ACCESS:      24087  HIT:         14  MISS:      24073  HIT %:  0.0581226  MISS %:    99.9419   MPKI: 0.48146
STLB PREFETCH  REQUESTED:          0  ISSUED:          0  USEFUL:          0  USELESS:          0
STLB USEFUL LOAD PREFETCHES:          0 PREFETCH ISSUED TO LOWER LEVEL:          0  ACCURACY: -nan
STLB TIMELY PREFETCHES:          0 LATE PREFETCHES: 0 DROPPED PREFETCHES: 0
STLB PREFETCHES SAME FILL-ORIGIN LEVEL: 0 DIFFERENT FILL-ORIGIN LEVEL: 0
STLB AVERAGE MISS LATENCY: 624.923 cycles
STLB RQ	ACCESS:      24087	FORWARD:          0	MERGED:          0	TO_CACHE:      24087

STLB Hit, L1D data hit: 0
STLB Hit, L2C data hit: 0
STLB Hit, LLC data hit: 0
STLB Hit, LLC data miss: 0
STLB STLB hints to L2: 0
L1D TOTAL     ACCESS:   10936661  HIT:    9848206  MISS:    1088455  HIT %:    90.0476  MISS %:    9.95235   MPKI: 21.7691
L1D LOAD      ACCESS:   10497717  HIT:    9753643  MISS:     744074  HIT %:     92.912  MISS %:    7.08796   MPKI: 14.8815
L1D RFO       ACCESS:     438944  HIT:      94563  MISS:     344381  HIT %:    21.5433  MISS %:    78.4567   MPKI: 6.88762
L1D PREFETCH  REQUESTED:          0  ISSUED:          0  USEFUL:          0  USELESS:          0
L1D USEFUL LOAD PREFETCHES:          0 PREFETCH ISSUED TO LOWER LEVEL:          0  ACCURACY: -nan
L1D TIMELY PREFETCHES:          0 LATE PREFETCHES: 0 DROPPED PREFETCHES: 0
L1D PREFETCHES SAME FILL-ORIGIN LEVEL: 0 DIFFERENT FILL-ORIGIN LEVEL: 0
L1D AVERAGE MISS LATENCY: 795.073 cycles
L1D RQ	ACCESS:   18807447	FORWARD:          0	MERGED:    8010047	TO_CACHE:   10797400
L1D WQ	ACCESS:    2738726	FORWARD:          0	MERGED:          0	TO_CACHE:    2738726

L1D UNIQUE REGIONS ACCESSED: 0
L1D REGIONS CONFLICTS: 0
L1D Cross Page Prefetch Requests: 0
L1D Same Page Prefetch Requests: 0
L1D ROI Sum of L1D PQ occupancy: 0
L1D PREFETCHES PUSHED FROM L2C: 0
L1I TOTAL     ACCESS:    8276202  HIT:    8276202  MISS:          0  HIT %:        100  MISS %:          0   MPKI: 0
L1I LOAD      ACCESS:    8276202  HIT:    8276202  MISS:          0  HIT %:        100  MISS %:          0   MPKI: 0
L1I PREFETCH  REQUESTED:          0  ISSUED:          0  USEFUL:          0  USELESS:          0
L1I USEFUL LOAD PREFETCHES:          0 PREFETCH ISSUED TO LOWER LEVEL:          0  ACCURACY: -nan
L1I TIMELY PREFETCHES:          0 LATE PREFETCHES: 0 DROPPED PREFETCHES: 0
L1I PREFETCHES SAME FILL-ORIGIN LEVEL: 0 DIFFERENT FILL-ORIGIN LEVEL: 0
L1I AVERAGE MISS LATENCY: -nan cycles
L1I RQ	ACCESS:   13436763	FORWARD:          0	MERGED:    5160562	TO_CACHE:    8276201

BTB TOTAL     ACCESS:    2779529  HIT:    2779520  MISS:          9  HIT %:    99.9997  MISS %: 0.000323796   MPKI: 0.00018
BTB BRANCH_DIRECT_JUMP	ACCESS:          0  HIT:          0  MISS:          0
BTB BRANCH_INDIRECT	ACCESS:          0  HIT:          0  MISS:          0
BTB BRANCH_CONDITIONAL	ACCESS:    2779529  HIT:    2779520  MISS:          9
BTB BRANCH_DIRECT_CALL	ACCESS:          0  HIT:          0  MISS:          0
BTB BRANCH_INDIRECT_CALL	ACCESS:          0  HIT:          0  MISS:          0
BTB BRANCH_RETURN	ACCESS:          0  HIT:          0  MISS:          0
BTB BRANCH_OTHER ACCESS:          0  HIT:          0  MISS:          0

L2C TOTAL     ACCESS:    1920187  HIT:     822573  MISS:    1097614  HIT %:    42.8382  MISS %:    57.1618   MPKI: 21.9523
L2C LOAD      ACCESS:     744074  HIT:     458569  MISS:     285505  HIT %:    61.6295  MISS %:    38.3705   MPKI: 5.7101
L2C DATA LOAD MPKI: 5.7101
L2C INSTRUCTION LOAD MPKI: 0
L2C RFO       ACCESS:     344381  HIT:          0  MISS:     344381  HIT %:          0  MISS %:        100   MPKI: 6.88762
L2C PREFETCH  ACCESS:     463245  HIT:        429  MISS:     462816  HIT %:  0.0926076  MISS %:    99.9074   MPKI: 9.25632
L2C DATA PREFETCH MPKI: 9.25632
L2C INSTRUCTION PREFETCH MPKI: 0
L2C WRITEBACK ACCESS:     344390  HIT:     344382  MISS:          8  HIT %:    99.9977  MISS %: 0.00232295   MPKI: 0.00016
L2C LOAD TRANSLATION ACCESS:      24097  HIT:      19193  MISS:       4904  HIT %:    79.6489  MISS %:    20.3511   MPKI: 0.09808
L2C PREFETCH  REQUESTED:    5364947  ISSUED:    4814206  USEFUL:     458564  USELESS:       4251
L2C USEFUL LOAD PREFETCHES:     458564 PREFETCH ISSUED TO LOWER LEVEL:    4789105  ACCURACY: 9.57515
L2C TIMELY PREFETCHES:     458564 LATE PREFETCHES: 51231 DROPPED PREFETCHES: 0
L2C PREFETCHES SAME FILL-ORIGIN LEVEL: 514047 DIFFERENT FILL-ORIGIN LEVEL: 4275058
L2C AVERAGE MISS LATENCY: 824.014 cycles
L2C RQ	ACCESS:    1112557	FORWARD:          0	MERGED:          0	TO_CACHE:    1112557
L2C WQ	ACCESS:     344390	FORWARD:          0	MERGED:          0	TO_CACHE:     344390
L2C PQ	ACCESS:    4814206	FORWARD:          0	MERGED:      20173	TO_CACHE:    4794033

L2C Instructions Evicting Data 0
L2C Translations Evicting Data 4873
L2C Data Evicting Data 1087826
L2C Instructions Evicting Instructions 0
L2C Translations Evicting Instructions 0
L2C Data Evicting Instructions 0
L2C Instructions Evicting Translations 0
L2C Translations Evicting Translations 31
L2C Data Evicting Translations 4876
L2C Dense regions hint from L2: 0
PSCL5 TOTAL     ACCESS:      24073  HIT:      24073  MISS:          0  HIT %:        100  MISS %:          0   MPKI: 0
PSCL5 LOAD TRANSLATION ACCESS:      24073  HIT:      24073  MISS:          0  HIT %:        100  MISS %:          0   MPKI: 0
PSCL5 PREFETCH  REQUESTED:          0  ISSUED:          0  USEFUL:          0  USELESS:          0
PSCL5 USEFUL LOAD PREFETCHES:          0 PREFETCH ISSUED TO LOWER LEVEL:          0  ACCURACY: -nan
PSCL5 TIMELY PREFETCHES:          0 LATE PREFETCHES: 0 DROPPED PREFETCHES: 0
PSCL5 PREFETCHES SAME FILL-ORIGIN LEVEL: 0 DIFFERENT FILL-ORIGIN LEVEL: 0

PSCL4 TOTAL     ACCESS:      24073  HIT:      24073  MISS:          0  HIT %:        100  MISS %:          0   MPKI: 0
PSCL4 LOAD TRANSLATION ACCESS:      24073  HIT:      24073  MISS:          0  HIT %:        100  MISS %:          0   MPKI: 0
PSCL4 PREFETCH  REQUESTED:          0  ISSUED:          0  USEFUL:          0  USELESS:          0
PSCL4 USEFUL LOAD PREFETCHES:          0 PREFETCH ISSUED TO LOWER LEVEL:          0  ACCURACY: -nan
PSCL4 TIMELY PREFETCHES:          0 LATE PREFETCHES: 0 DROPPED PREFETCHES: 0
PSCL4 PREFETCHES SAME FILL-ORIGIN LEVEL: 0 DIFFERENT FILL-ORIGIN LEVEL: 0

PSCL3 TOTAL     ACCESS:      24073  HIT:      24073  MISS:          0  HIT %:        100  MISS %:          0   MPKI: 0
PSCL3 LOAD TRANSLATION ACCESS:      24073  HIT:      24073  MISS:          0  HIT %:        100  MISS %:          0   MPKI: 0
PSCL3 PREFETCH  REQUESTED:          0  ISSUED:          0  USEFUL:          0  USELESS:          0
PSCL3 USEFUL LOAD PREFETCHES:          0 PREFETCH ISSUED TO LOWER LEVEL:          0  ACCURACY: -nan
PSCL3 TIMELY PREFETCHES:          0 LATE PREFETCHES: 0 DROPPED PREFETCHES: 0
PSCL3 PREFETCHES SAME FILL-ORIGIN LEVEL: 0 DIFFERENT FILL-ORIGIN LEVEL: 0

PSCL2 TOTAL     ACCESS:      24073  HIT:      24008  MISS:         65  HIT %:      99.73  MISS %:   0.270012   MPKI: 0.0013
PSCL2 LOAD TRANSLATION ACCESS:      24073  HIT:      24008  MISS:         65  HIT %:      99.73  MISS %:   0.270012   MPKI: 0.0013
PSCL2 PREFETCH  REQUESTED:          0  ISSUED:          0  USEFUL:          0  USELESS:          0
PSCL2 USEFUL LOAD PREFETCHES:          0 PREFETCH ISSUED TO LOWER LEVEL:          0  ACCURACY: -nan
PSCL2 TIMELY PREFETCHES:          0 LATE PREFETCHES: 0 DROPPED PREFETCHES: 0
PSCL2 PREFETCHES SAME FILL-ORIGIN LEVEL: 0 DIFFERENT FILL-ORIGIN LEVEL: 0

LLC TOTAL     ACCESS:    4117903  HIT:    2985355  MISS:    1132548  HIT %:     72.497  MISS %:     27.503   MPKI: 22.651
LLC LOAD      ACCESS:     234274  HIT:     190626  MISS:      43648  HIT %:    81.3688  MISS %:    18.6312   MPKI: 0.87296
LLC RFO       ACCESS:     344381  HIT:          0  MISS:     344381  HIT %:          0  MISS %:        100   MPKI: 6.88762
LLC PREFETCH  ACCESS:    3189854  HIT:    2450231  MISS:     739623  HIT %:    76.8133  MISS %:    23.1867   MPKI: 14.7925
LLC WRITEBACK ACCESS:     344490  HIT:     344486  MISS:          4  HIT %:    99.9988  MISS %: 0.00116114   MPKI: 8e-05
LLC LOAD TRANSLATION ACCESS:       4904  HIT:         12  MISS:       4892  HIT %:   0.244698  MISS %:    99.7553   MPKI: 0.09784
LLC PREFETCH  REQUESTED:          0  ISSUED:          0  USEFUL:     190626  USELESS:     548846
LLC USEFUL LOAD PREFETCHES:     190626 PREFETCH ISSUED TO LOWER LEVEL:     754542  ACCURACY: 25.2638
LLC TIMELY PREFETCHES:     190626 LATE PREFETCHES: 14919 DROPPED PREFETCHES: 0
LLC PREFETCHES SAME FILL-ORIGIN LEVEL: 740545 DIFFERENT FILL-ORIGIN LEVEL: 0
LLC AVERAGE MISS LATENCY: 2024.96 cycles
LLC RQ	ACCESS:     583564	FORWARD:          0	MERGED:          0	TO_CACHE:     583564
LLC WQ	ACCESS:     344490	FORWARD:          0	MERGED:          0	TO_CACHE:     344490
LLC PQ	ACCESS:    4789105	FORWARD:          0	MERGED:       6702	TO_CACHE:    4782403

LLC Dense regions hint to LLC: 0

RAW hits: 2
Loads Generated: 18807450
Loads sent to L1D: 18807447
Stores Generated: 2738725
Stores sent to L1D: 2738726
Major fault: 0 Minor fault: 15227
Allocated PAGES: 15227
 All Calls: 895603
 Critical Calls: 895603
------------------
Depth Distribution
------------------
depth 0: 0
depth 1: 836901
depth 2: 809370
depth 3: 777141
depth 4: 747671
depth 5: 713319
depth 6: 649996
depth 7: 498980
depth 8: 329628
depth 9: 188201
depth 10: 133265
depth 11: 104394
depth 12: 73481
depth 13: 42072
depth 14: 8679
depth 15: 8461
depth 16: 0
depth 17: 0
depth 18: 0
depth 19: 0
depth 20: 0
depth 21: 0
depth 22: 0
depth 23: 0
depth 24: 0
depth 25: 0
depth 26: 0
depth 27: 0
depth 28: 0
depth 29: 0
Total: 5921559
-----------------------------
-----------------------------
	Captured at Filter
-----------------------------
depth 0: 0
depth 1: 4572
depth 2: 4318
depth 3: 4290
depth 4: 4117
depth 5: 4054
depth 6: 3783
depth 7: 2763
depth 8: 1767
depth 9: 952
depth 10: 652
depth 11: 500
depth 12: 349
depth 13: 214
depth 14: 41
depth 15: 36
depth 16: 0
depth 17: 0
depth 18: 0
depth 19: 0
depth 20: 0
depth 21: 0
depth 22: 0
depth 23: 0
depth 24: 0
depth 25: 0
depth 26: 0
depth 27: 0
depth 28: 0
depth 29: 0
-----------------------------
-----------------------------
		Lost at Page
-----------------------------
depth 0: 0
depth 1: 13894
depth 2: 27735
depth 3: 41610
depth 4: 55475
depth 5: 69333
depth 6: 79636
depth 7: 71826
depth 8: 56592
depth 9: 37106
depth 10: 27102
depth 11: 23344
depth 12: 16878
depth 13: 11293
depth 14: 1876
depth 15: 2057
depth 16: 0
depth 17: 0
depth 18: 0
depth 19: 0
depth 20: 0
depth 21: 0
depth 22: 0
depth 23: 0
depth 24: 0
depth 25: 0
depth 26: 0
depth 27: 0
depth 28: 0
depth 29: 0
-----------------------------
-----------------------------
	Lost due to PQ Size
-----------------------------
661215
-----------------------------
ST read accesses: 726429
ST write accesses: 17645
PT read accesses: 32788426
PT write accesses: 1081618
FILTER read accesses: 7233276
FILTER write accesses: 2125243
GHR read accesses: 1699443
GHR write accesses: 431246
GHR counter read accesses: 27730376
GHR counter write accesses: 1797927
ST tag read accesses: 295070629
ST tag write accesses: 8023562

DRAM Statistics
 CHANNEL 0
 RQ ROW_BUFFER_HIT:     395928  ROW_BUFFER_MISS:     736616
 DBUS_CONGESTED:    1428933
 WQ ROW_BUFFER_HIT:      32282  ROW_BUFFER_MISS:     312259  FULL:          0

 AVG_CONGESTED_CYCLE: 78
 All warmup complete: 2
Channel 0 Bank busy for read cycles: 0
Channel 0 Bank busy for write cycles: 0
Channel 0
Rank 0
0banks busy for read cycles: 9561
0banks busy for write cycles: 0
1banks busy for read cycles: 1129170
1banks busy for write cycles: 42234
2banks busy for read cycles: 1601783
2banks busy for write cycles: 42222
3banks busy for read cycles: 2327686
3banks busy for write cycles: 42218
4banks busy for read cycles: 3409814
4banks busy for write cycles: 42216
5banks busy for read cycles: 4912434
5banks busy for write cycles: 42217
6banks busy for read cycles: 7063384
6banks busy for write cycles: 43413
7banks busy for read cycles: 12293740
7banks busy for write cycles: 454887
8banks busy for read cycles: 61659145
8banks busy for write cycles: 29745198

CPU 0 Branch Prediction Accuracy: 99.8858% MPKI: 0.06352 Average ROB Occupancy at Mispredict: 264.932
Branch types
NOT_BRANCH: 47219347 94.4387%
BRANCH_DIRECT_JUMP: 0 0%
BRANCH_INDIRECT: 0 0%
BRANCH_CONDITIONAL: 2780656 5.56131%
BRANCH_DIRECT_CALL: 0 0%
BRANCH_INDIRECT_CALL: 0 0%
BRANCH_RETURN: 0 0%
BRANCH_OTHER: 0 0%

@sumon_overall_L1D         0         0         0         0         0         0
@Sumon_Early_by_class_L1D         0         0         0         0
@Sumon_Late_by_class_L1D         0         0         0         0

@Sumon_Early_by_cycle_L1D         0         0         0         0         0         0         0         0         0         0         0         0
@Sumon_Late_by_cycle_L1D         0         0         0         0         0         0         0         0         0         0         0         0
@Sumon_Early_stream_L1D         0         0         0         0         0         0         0         0         0         0         0         0
@Sumon_Early_CS_L1D         0         0         0         0         0         0         0         0         0         0         0         0
@Sumon_Early_CPLX_L1D         0         0         0         0         0         0         0         0         0         0         0         0
@Sumon_Late_stream_L1D         0         0         0         0         0         0         0         0         0         0         0         0
@Sumon_Late_CS_L1D         0         0         0         0         0         0         0         0         0         0         0         0
@Sumon_Late_CPLX_L1D         0         0         0         0         0         0         0         0         0         0         0         0
@sumon_overall_L2C    458564     51231      4251    462816   4814206   5364947
@Sumon_Early_by_class_L2C         0         0         0         0
@Sumon_Late_by_class_L2C         0         0         0         0

@Sumon_Early_by_cycle_L2C     43543     91151    206528     22886     18033     56405     19153       865         0         0         0         0
@Sumon_Late_by_cycle_L2C     15782      6042      6605      4447      3069     10857      4294       135         0         0         0         0
@Sumon_Early_stream_L2C         0         0         0         0         0         0         0         0         0         0         0         0
@Sumon_Early_CS_L2C         0         0         0         0         0         0         0         0         0         0         0         0
@Sumon_Early_CPLX_L2C         0         0         0         0         0         0         0         0         0         0         0         0
@Sumon_Late_stream_L2C         0         0         0         0         0         0         0         0         0         0         0         0
@Sumon_Late_CS_L2C         0         0         0         0         0         0         0         0         0         0         0         0
@Sumon_Late_CPLX_L2C         0         0         0         0         0         0         0         0         0         0         0         0
DRAM PAGES: 1048576
Allocated PAGES: 15227
