Initialize SIGNATURE TABLE
ST_SET: 1
ST_WAY: 256
ST_TAG_BIT: 16
ST_TAG_MASK: ffff

Initialize PATTERN TABLE
PT_SET: 512
PT_WAY: 4
SIG_DELTA_BIT: 7
C_SIG_BIT: 4
C_DELTA_BIT: 4

Initialize PREFETCH FILTER
FILTER_SET: 1024

*** ChampSim Multicore Out-of-Order Simulator ***

Warmup Instructions: 10000000
Simulation Instructions: 50000000
Number of CPUs: 1
LLC sets: 2048
LLC ways: 16
Off-chip DRAM Size: 4096 MB Channels: 1 Width: 64-bit Data Rate: 400 MT/s
CPU 0 runs traces/SPEC2017/654.roms_s-1007B.champsimtrace.xz
.xz
CPU 0 Bimodal branch predictor
BTB has LRU replacement policy
ITLB has LRU replacement policy
DTLB has LRU replacement policy
STLB has LRU replacement policy
L1I has LRU replacement policy
L1D has LRU replacement policy
ST_WAYS: 256
PT_SETS: 512
L2C has LRU replacement policy
LLC has LRU replacement policy
Heartbeat CPU 0 instructions: 10000000 cycles: 3017142 heartbeat IPC: 3.31439 cumulative IPC: 3.31439 (Simulation time: 3 hr 55 min 11 sec) 

Warmup complete CPU 0 instructions: 10000004 cycles: 3017143 (Simulation time: 3 hr 55 min 13 sec) 

Heartbeat CPU 0 instructions: 20000001 cycles: 22533833 heartbeat IPC: 0.512382 cumulative IPC: 0.512382 (Simulation time: 3 hr 55 min 56 sec) 
Heartbeat CPU 0 instructions: 30000000 cycles: 42066276 heartbeat IPC: 0.511969 cumulative IPC: 0.512175 (Simulation time: 3 hr 57 min 56 sec) 
Heartbeat CPU 0 instructions: 40000000 cycles: 61596397 heartbeat IPC: 0.51203 cumulative IPC: 0.512127 (Simulation time: 3 hr 59 min 18 sec) 
Heartbeat CPU 0 instructions: 50000000 cycles: 94292059 heartbeat IPC: 0.305851 cumulative IPC: 0.438236 (Simulation time: 4 hr 16 min 48 sec) 
Heartbeat CPU 0 instructions: 60000002 cycles: 126593696 heartbeat IPC: 0.309582 cumulative IPC: 0.404607 (Simulation time: 4 hr 40 min 47 sec) 
Finished CPU 0 instructions: 50000000 cycles: 123576565 cumulative IPC: 0.404607 (Simulation time: 4 hr 40 min 47 sec) 

ChampSim completed all CPUs

Region of Interest Statistics

CPU 0 cumulative IPC: 0.404607 instructions: 50000000 cycles: 123576565
ITLB TOTAL     ACCESS:    8397089  HIT:    8397083  MISS:          6  HIT %:    99.9999  MISS %: 7.14533e-05   MPKI: 0.00012
ITLB LOAD TRANSLATION ACCESS:    8397089  HIT:    8397083  MISS:          6  HIT %:    99.9999  MISS %: 7.14533e-05   MPKI: 0.00012
ITLB PREFETCH  REQUESTED:          0  ISSUED:          0  USEFUL:          0  USELESS:          0
ITLB USEFUL LOAD PREFETCHES:          0 PREFETCH ISSUED TO LOWER LEVEL:          0  ACCURACY: -nan
ITLB TIMELY PREFETCHES:          0 LATE PREFETCHES: 0 DROPPED PREFETCHES: 0
ITLB PREFETCHES SAME FILL-ORIGIN LEVEL: 0 DIFFERENT FILL-ORIGIN LEVEL: 0
ITLB AVERAGE MISS LATENCY: 369.167 cycles
ITLB RQ	ACCESS:   10689634	FORWARD:          0	MERGED:    2292545	TO_CACHE:    8397089

DTLB TOTAL     ACCESS:   13939606  HIT:   13928255  MISS:      11351  HIT %:    99.9186  MISS %:  0.0814298   MPKI: 0.22702
DTLB LOAD TRANSLATION ACCESS:   13939606  HIT:   13928255  MISS:      11351  HIT %:    99.9186  MISS %:  0.0814298   MPKI: 0.22702
DTLB PREFETCH  REQUESTED:          0  ISSUED:          0  USEFUL:          0  USELESS:          0
DTLB USEFUL LOAD PREFETCHES:          0 PREFETCH ISSUED TO LOWER LEVEL:          0  ACCURACY: -nan
DTLB TIMELY PREFETCHES:          0 LATE PREFETCHES: 0 DROPPED PREFETCHES: 0
DTLB PREFETCHES SAME FILL-ORIGIN LEVEL: 0 DIFFERENT FILL-ORIGIN LEVEL: 0
DTLB AVERAGE MISS LATENCY: 634.129 cycles
DTLB RQ	ACCESS:   15630993	FORWARD:          0	MERGED:    1674558	TO_CACHE:   13956435

STLB TOTAL     ACCESS:      11357  HIT:        445  MISS:      10912  HIT %:    3.91829  MISS %:    96.0817   MPKI: 0.21824
STLB LOAD TRANSLATION ACCESS:      11357  HIT:        445  MISS:      10912  HIT %:    3.91829  MISS %:    96.0817   MPKI: 0.21824
STLB PREFETCH  REQUESTED:          0  ISSUED:          0  USEFUL:          0  USELESS:          0
STLB USEFUL LOAD PREFETCHES:          0 PREFETCH ISSUED TO LOWER LEVEL:          0  ACCURACY: -nan
STLB TIMELY PREFETCHES:          0 LATE PREFETCHES: 0 DROPPED PREFETCHES: 0
STLB PREFETCHES SAME FILL-ORIGIN LEVEL: 0 DIFFERENT FILL-ORIGIN LEVEL: 0
STLB AVERAGE MISS LATENCY: 650.243 cycles
STLB RQ	ACCESS:      11357	FORWARD:          0	MERGED:          0	TO_CACHE:      11357

STLB Hit, L1D data hit: 0
STLB Hit, L2C data hit: 0
STLB Hit, LLC data hit: 0
STLB Hit, LLC data miss: 0
STLB STLB hints to L2: 0
L1D TOTAL     ACCESS:   14631923  HIT:   14181076  MISS:     450847  HIT %:    96.9187  MISS %:    3.08126   MPKI: 9.01694
L1D LOAD      ACCESS:    9722176  HIT:    9425061  MISS:     297115  HIT %:    96.9439  MISS %:    3.05605   MPKI: 5.9423
L1D RFO       ACCESS:    4909747  HIT:    4756015  MISS:     153732  HIT %:    96.8688  MISS %:    3.13116   MPKI: 3.07464
L1D PREFETCH  REQUESTED:          0  ISSUED:          0  USEFUL:          0  USELESS:          0
L1D USEFUL LOAD PREFETCHES:          0 PREFETCH ISSUED TO LOWER LEVEL:          0  ACCURACY: -nan
L1D TIMELY PREFETCHES:          0 LATE PREFETCHES: 0 DROPPED PREFETCHES: 0
L1D PREFETCHES SAME FILL-ORIGIN LEVEL: 0 DIFFERENT FILL-ORIGIN LEVEL: 0
L1D AVERAGE MISS LATENCY: 929.073 cycles
L1D RQ	ACCESS:   12546420	FORWARD:          0	MERGED:    2699991	TO_CACHE:    9839385
L1D WQ	ACCESS:    6118340	FORWARD:       7044	MERGED:     326732	TO_CACHE:    5791608

L1D UNIQUE REGIONS ACCESSED: 0
L1D REGIONS CONFLICTS: 0
L1D Cross Page Prefetch Requests: 0
L1D Same Page Prefetch Requests: 0
L1D ROI Sum of L1D PQ occupancy: 0
L1D PREFETCHES PUSHED FROM L2C: 0
L1I TOTAL     ACCESS:   10689612  HIT:   10689549  MISS:         63  HIT %:    99.9994  MISS %: 0.000589357   MPKI: 0.00126
L1I LOAD      ACCESS:   10689612  HIT:   10689549  MISS:         63  HIT %:    99.9994  MISS %: 0.000589357   MPKI: 0.00126
L1I PREFETCH  REQUESTED:          0  ISSUED:          0  USEFUL:          0  USELESS:          0
L1I USEFUL LOAD PREFETCHES:          0 PREFETCH ISSUED TO LOWER LEVEL:          0  ACCURACY: -nan
L1I TIMELY PREFETCHES:          0 LATE PREFETCHES: 0 DROPPED PREFETCHES: 0
L1I PREFETCHES SAME FILL-ORIGIN LEVEL: 0 DIFFERENT FILL-ORIGIN LEVEL: 0
L1I AVERAGE MISS LATENCY: 369.159 cycles
L1I RQ	ACCESS:   14011612	FORWARD:          0	MERGED:    3321978	TO_CACHE:   10689634

BTB TOTAL     ACCESS:    3139531  HIT:    2812744  MISS:     326787  HIT %:    89.5912  MISS %:    10.4088   MPKI: 6.53574
BTB BRANCH_DIRECT_JUMP	ACCESS:     326747  HIT:     326739  MISS:          8
BTB BRANCH_INDIRECT	ACCESS:          0  HIT:          0  MISS:          0
BTB BRANCH_CONDITIONAL	ACCESS:    1505847  HIT:    1505816  MISS:         31
BTB BRANCH_DIRECT_CALL	ACCESS:     653469  HIT:     653459  MISS:         10
BTB BRANCH_INDIRECT_CALL	ACCESS:          0  HIT:          0  MISS:          0
BTB BRANCH_RETURN	ACCESS:     653468  HIT:     326730  MISS:     326738
BTB BRANCH_OTHER ACCESS:          0  HIT:          0  MISS:          0

L2C TOTAL     ACCESS:     793844  HIT:     338390  MISS:     455454  HIT %:    42.6268  MISS %:    57.3732   MPKI: 9.10908
L2C LOAD      ACCESS:     297178  HIT:     176239  MISS:     120939  HIT %:    59.3042  MISS %:    40.6958   MPKI: 2.41878
L2C DATA LOAD MPKI: 2.41752
L2C INSTRUCTION LOAD MPKI: 0.00126
L2C RFO       ACCESS:     153732  HIT:          0  MISS:     153732  HIT %:          0  MISS %:        100   MPKI: 3.07464
L2C PREFETCH  ACCESS:     178279  HIT:         57  MISS:     178222  HIT %:  0.0319724  MISS %:     99.968   MPKI: 3.56444
L2C DATA PREFETCH MPKI: 3.56444
L2C INSTRUCTION PREFETCH MPKI: 0
L2C WRITEBACK ACCESS:     153734  HIT:     153531  MISS:        203  HIT %:     99.868  MISS %:   0.132046   MPKI: 0.00406
L2C LOAD TRANSLATION ACCESS:      10921  HIT:       8563  MISS:       2358  HIT %:    78.4086  MISS %:    21.5914   MPKI: 0.04716
L2C PREFETCH  REQUESTED:    2209610  ISSUED:    2028734  USEFUL:     176238  USELESS:       1990
L2C USEFUL LOAD PREFETCHES:     176238 PREFETCH ISSUED TO LOWER LEVEL:    1968424  ACCURACY: 8.95325
L2C TIMELY PREFETCHES:     176238 LATE PREFETCHES: 21786 DROPPED PREFETCHES: 0
L2C PREFETCHES SAME FILL-ORIGIN LEVEL: 200008 DIFFERENT FILL-ORIGIN LEVEL: 1768416
L2C AVERAGE MISS LATENCY: 958.841 cycles
L2C RQ	ACCESS:     461831	FORWARD:          0	MERGED:          0	TO_CACHE:     461831
L2C WQ	ACCESS:     153734	FORWARD:          0	MERGED:          0	TO_CACHE:     153734
L2C PQ	ACCESS:    2028734	FORWARD:          0	MERGED:      53089	TO_CACHE:    1975645

L2C Instructions Evicting Data 62
L2C Translations Evicting Data 2353
L2C Data Evicting Data 449804
L2C Instructions Evicting Instructions 0
L2C Translations Evicting Instructions 0
L2C Data Evicting Instructions 45
L2C Instructions Evicting Translations 1
L2C Translations Evicting Translations 1
L2C Data Evicting Translations 2341
L2C Dense regions hint from L2: 0
PSCL5 TOTAL     ACCESS:      10912  HIT:      10912  MISS:          0  HIT %:        100  MISS %:          0   MPKI: 0
PSCL5 LOAD TRANSLATION ACCESS:      10912  HIT:      10912  MISS:          0  HIT %:        100  MISS %:          0   MPKI: 0
PSCL5 PREFETCH  REQUESTED:          0  ISSUED:          0  USEFUL:          0  USELESS:          0
PSCL5 USEFUL LOAD PREFETCHES:          0 PREFETCH ISSUED TO LOWER LEVEL:          0  ACCURACY: -nan
PSCL5 TIMELY PREFETCHES:          0 LATE PREFETCHES: 0 DROPPED PREFETCHES: 0
PSCL5 PREFETCHES SAME FILL-ORIGIN LEVEL: 0 DIFFERENT FILL-ORIGIN LEVEL: 0

PSCL4 TOTAL     ACCESS:      10912  HIT:      10912  MISS:          0  HIT %:        100  MISS %:          0   MPKI: 0
PSCL4 LOAD TRANSLATION ACCESS:      10912  HIT:      10912  MISS:          0  HIT %:        100  MISS %:          0   MPKI: 0
PSCL4 PREFETCH  REQUESTED:          0  ISSUED:          0  USEFUL:          0  USELESS:          0
PSCL4 USEFUL LOAD PREFETCHES:          0 PREFETCH ISSUED TO LOWER LEVEL:          0  ACCURACY: -nan
PSCL4 TIMELY PREFETCHES:          0 LATE PREFETCHES: 0 DROPPED PREFETCHES: 0
PSCL4 PREFETCHES SAME FILL-ORIGIN LEVEL: 0 DIFFERENT FILL-ORIGIN LEVEL: 0

PSCL3 TOTAL     ACCESS:      10912  HIT:      10909  MISS:          3  HIT %:    99.9725  MISS %:  0.0274927   MPKI: 6e-05
PSCL3 LOAD TRANSLATION ACCESS:      10912  HIT:      10909  MISS:          3  HIT %:    99.9725  MISS %:  0.0274927   MPKI: 6e-05
PSCL3 PREFETCH  REQUESTED:          0  ISSUED:          0  USEFUL:          0  USELESS:          0
PSCL3 USEFUL LOAD PREFETCHES:          0 PREFETCH ISSUED TO LOWER LEVEL:          0  ACCURACY: -nan
PSCL3 TIMELY PREFETCHES:          0 LATE PREFETCHES: 0 DROPPED PREFETCHES: 0
PSCL3 PREFETCHES SAME FILL-ORIGIN LEVEL: 0 DIFFERENT FILL-ORIGIN LEVEL: 0

PSCL2 TOTAL     ACCESS:      10912  HIT:      10861  MISS:         51  HIT %:    99.5326  MISS %:   0.467375   MPKI: 0.00102
PSCL2 LOAD TRANSLATION ACCESS:      10912  HIT:      10861  MISS:         51  HIT %:    99.5326  MISS %:   0.467375   MPKI: 0.00102
PSCL2 PREFETCH  REQUESTED:          0  ISSUED:          0  USEFUL:          0  USELESS:          0
PSCL2 USEFUL LOAD PREFETCHES:          0 PREFETCH ISSUED TO LOWER LEVEL:          0  ACCURACY: -nan
PSCL2 TIMELY PREFETCHES:          0 LATE PREFETCHES: 0 DROPPED PREFETCHES: 0
PSCL2 PREFETCHES SAME FILL-ORIGIN LEVEL: 0 DIFFERENT FILL-ORIGIN LEVEL: 0

LLC TOTAL     ACCESS:    1728427  HIT:    1253342  MISS:     475085  HIT %:    72.5134  MISS %:    27.4866   MPKI: 9.5017
LLC LOAD      ACCESS:      99153  HIT:      77842  MISS:      21311  HIT %:     78.507  MISS %:     21.493   MPKI: 0.42622
LLC RFO       ACCESS:     153732  HIT:          0  MISS:     153732  HIT %:          0  MISS %:        100   MPKI: 3.07464
LLC PREFETCH  ACCESS:    1319100  HIT:    1021613  MISS:     297487  HIT %:    77.4477  MISS %:    22.5523   MPKI: 5.94974
LLC WRITEBACK ACCESS:     154084  HIT:     153882  MISS:        202  HIT %:    99.8689  MISS %:   0.131097   MPKI: 0.00404
LLC LOAD TRANSLATION ACCESS:       2358  HIT:          5  MISS:       2353  HIT %:   0.212044  MISS %:     99.788   MPKI: 0.04706
LLC PREFETCH  REQUESTED:          0  ISSUED:          0  USEFUL:      77842  USELESS:     212621
LLC USEFUL LOAD PREFETCHES:      77842 PREFETCH ISSUED TO LOWER LEVEL:     306492  ACCURACY: 25.3977
LLC TIMELY PREFETCHES:      77842 LATE PREFETCHES: 9005 DROPPED PREFETCHES: 0
LLC PREFETCHES SAME FILL-ORIGIN LEVEL: 301184 DIFFERENT FILL-ORIGIN LEVEL: 0
LLC AVERAGE MISS LATENCY: 2347.01 cycles
LLC RQ	ACCESS:     255243	FORWARD:          0	MERGED:          0	TO_CACHE:     255243
LLC WQ	ACCESS:     154084	FORWARD:          0	MERGED:          0	TO_CACHE:     154084
LLC PQ	ACCESS:    1968424	FORWARD:          0	MERGED:      10802	TO_CACHE:    1957622

LLC Dense regions hint to LLC: 0

RAW hits: 1336552
Loads Generated: 13882972
Loads sent to L1D: 12546420
Stores Generated: 6118341
Stores sent to L1D: 6118340
Major fault: 0 Minor fault: 10479
Allocated PAGES: 10479
 All Calls: 305182
 Critical Calls: 305182
------------------
Depth Distribution
------------------
depth 0: 0
depth 1: 288716
depth 2: 278692
depth 3: 268229
depth 4: 260975
depth 5: 252247
depth 6: 243605
depth 7: 215644
depth 8: 153766
depth 9: 85642
depth 10: 26829
depth 11: 14404
depth 12: 8502
depth 13: 2395
depth 14: 0
depth 15: 0
depth 16: 0
depth 17: 0
depth 18: 0
depth 19: 0
depth 20: 0
depth 21: 0
depth 22: 0
depth 23: 0
depth 24: 0
depth 25: 0
depth 26: 0
depth 27: 0
depth 28: 0
depth 29: 0
Total: 2099646
-----------------------------
-----------------------------
	Captured at Filter
-----------------------------
depth 0: 0
depth 1: 2631
depth 2: 1440
depth 3: 1420
depth 4: 1371
depth 5: 1353
depth 6: 1316
depth 7: 1165
depth 8: 879
depth 9: 515
depth 10: 148
depth 11: 74
depth 12: 44
depth 13: 19
depth 14: 0
depth 15: 0
depth 16: 0
depth 17: 0
depth 18: 0
depth 19: 0
depth 20: 0
depth 21: 0
depth 22: 0
depth 23: 0
depth 24: 0
depth 25: 0
depth 26: 0
depth 27: 0
depth 28: 0
depth 29: 0
-----------------------------
-----------------------------
		Lost at Page
-----------------------------
depth 0: 0
depth 1: 4743
depth 2: 9488
depth 3: 14233
depth 4: 18968
depth 5: 23594
depth 6: 28034
depth 7: 29554
depth 8: 25209
depth 9: 16646
depth 10: 5245
depth 11: 3098
depth 12: 2000
depth 13: 594
depth 14: 0
depth 15: 0
depth 16: 0
depth 17: 0
depth 18: 0
depth 19: 0
depth 20: 0
depth 21: 0
depth 22: 0
depth 23: 0
depth 24: 0
depth 25: 0
depth 26: 0
depth 27: 0
depth 28: 0
depth 29: 0
-----------------------------
-----------------------------
	Lost due to PQ Size
-----------------------------
180888
-----------------------------
ST read accesses: 289618
ST write accesses: 7497
PT read accesses: 13433149
PT write accesses: 430483
FILTER read accesses: 2973914
FILTER write accesses: 861666
GHR read accesses: 662747
GHR write accesses: 171846
GHR counter read accesses: 11344014
GHR counter write accesses: 710111
ST tag read accesses: 117813907
ST tag write accesses: 3166475

DRAM Statistics
 CHANNEL 0
 RQ ROW_BUFFER_HIT:     254602  ROW_BUFFER_MISS:     220281
 DBUS_CONGESTED:     560898
 WQ ROW_BUFFER_HIT:      12762  ROW_BUFFER_MISS:     135697  FULL:          0

 AVG_CONGESTED_CYCLE: 78
 All warmup complete: 2
Channel 0 Bank busy for read cycles: 0
Channel 0 Bank busy for write cycles: 0
Channel 0
Rank 0
0banks busy for read cycles: 70133049
0banks busy for write cycles: 8346
1banks busy for read cycles: 3605763
1banks busy for write cycles: 1211215
2banks busy for read cycles: 1230737
2banks busy for write cycles: 264686
3banks busy for read cycles: 799811
3banks busy for write cycles: 65804
4banks busy for read cycles: 1158175
4banks busy for write cycles: 55688
5banks busy for read cycles: 1595514
5banks busy for write cycles: 50287
6banks busy for read cycles: 2288892
6banks busy for write cycles: 52189
7banks busy for read cycles: 3731314
7banks busy for write cycles: 243995
8banks busy for read cycles: 25346916
8banks busy for write cycles: 11734185

CPU 0 Branch Prediction Accuracy: 99.9659% MPKI: 0.03484 Average ROB Occupancy at Mispredict: 147.557
Branch types
NOT_BRANCH: 44898664 89.7973%
BRANCH_DIRECT_JUMP: 326747 0.653494%
BRANCH_INDIRECT: 0 0%
BRANCH_CONDITIONAL: 3467349 6.9347%
BRANCH_DIRECT_CALL: 653469 1.30694%
BRANCH_INDIRECT_CALL: 0 0%
BRANCH_RETURN: 653468 1.30694%
BRANCH_OTHER: 0 0%

@sumon_overall_L1D         0         0         0         0         0         0
@Sumon_Early_by_class_L1D         0         0         0         0
@Sumon_Late_by_class_L1D         0         0         0         0

@Sumon_Early_by_cycle_L1D         0         0         0         0         0         0         0         0         0         0         0         0
@Sumon_Late_by_cycle_L1D         0         0         0         0         0         0         0         0         0         0         0         0
@Sumon_Early_stream_L1D         0         0         0         0         0         0         0         0         0         0         0         0
@Sumon_Early_CS_L1D         0         0         0         0         0         0         0         0         0         0         0         0
@Sumon_Early_CPLX_L1D         0         0         0         0         0         0         0         0         0         0         0         0
@Sumon_Late_stream_L1D         0         0         0         0         0         0         0         0         0         0         0         0
@Sumon_Late_CS_L1D         0         0         0         0         0         0         0         0         0         0         0         0
@Sumon_Late_CPLX_L1D         0         0         0         0         0         0         0         0         0         0         0         0
@sumon_overall_L2C    176238     21786      1990    178222   2028734   2209610
@Sumon_Early_by_class_L2C         0         0         0         0
@Sumon_Late_by_class_L2C         0         0         0         0

@Sumon_Early_by_cycle_L2C     17188     60635     30044      8474      5656     23206     28324      2481       230         0         0         0
@Sumon_Late_by_cycle_L2C      7240      3006      3008      1533       838      3705      2233       223         0         0         0         0
@Sumon_Early_stream_L2C         0         0         0         0         0         0         0         0         0         0         0         0
@Sumon_Early_CS_L2C         0         0         0         0         0         0         0         0         0         0         0         0
@Sumon_Early_CPLX_L2C         0         0         0         0         0         0         0         0         0         0         0         0
@Sumon_Late_stream_L2C         0         0         0         0         0         0         0         0         0         0         0         0
@Sumon_Late_CS_L2C         0         0         0         0         0         0         0         0         0         0         0         0
@Sumon_Late_CPLX_L2C         0         0         0         0         0         0         0         0         0         0         0         0
DRAM PAGES: 1048576
Allocated PAGES: 10479
