
*** ChampSim Multicore Out-of-Order Simulator ***

Warmup Instructions: 10000000
Simulation Instructions: 50000000
Number of CPUs: 1
LLC sets: 2048
LLC ways: 16
Off-chip DRAM Size: 4096 MB Channels: 1 Width: 64-bit Data Rate: 6400 MT/s
CPU 0 runs traces/SPEC2017/623.xalancbmk_s-202B.champsimtrace.xz
.xz
CPU 0 Bimodal branch predictor
BTB has LRU replacement policy
ITLB has LRU replacement policy
DTLB has LRU replacement policy
STLB has LRU replacement policy
L1I has LRU replacement policy
IP Table Entries: 256
L1D has LRU replacement policy
IP_Table L2 entries: 256
L2C has LRU replacement policy
LLC has LRU replacement policy
Heartbeat CPU 0 instructions: 10000001 cycles: 2829976 heartbeat IPC: 3.5336 cumulative IPC: 3.5336 (Simulation time: 0 hr 22 min 20 sec) 

Warmup complete CPU 0 instructions: 10000001 cycles: 2829976 (Simulation time: 0 hr 22 min 20 sec) 

Heartbeat CPU 0 instructions: 20000002 cycles: 19834603 heartbeat IPC: 0.588075 cumulative IPC: 0.588075 (Simulation time: 0 hr 39 min 46 sec) 
Heartbeat CPU 0 instructions: 30000000 cycles: 36805855 heartbeat IPC: 0.589232 cumulative IPC: 0.588653 (Simulation time: 0 hr 57 min 10 sec) 
Heartbeat CPU 0 instructions: 40000002 cycles: 53792659 heartbeat IPC: 0.588692 cumulative IPC: 0.588666 (Simulation time: 1 hr 14 min 44 sec) 
Heartbeat CPU 0 instructions: 50000002 cycles: 70671302 heartbeat IPC: 0.592465 cumulative IPC: 0.589611 (Simulation time: 1 hr 32 min 22 sec) 
Heartbeat CPU 0 instructions: 60000002 cycles: 87613111 heartbeat IPC: 0.590256 cumulative IPC: 0.58974 (Simulation time: 1 hr 49 min 24 sec) 
Finished CPU 0 instructions: 50000001 cycles: 84783135 cumulative IPC: 0.58974 (Simulation time: 1 hr 49 min 24 sec) 

ChampSim completed all CPUs

Region of Interest Statistics

CPU 0 cumulative IPC: 0.58974 instructions: 50000001 cycles: 84783135
ITLB TOTAL     ACCESS:    7300091  HIT:    7300091  MISS:          0  HIT %:        100  MISS %:          0   MPKI: 0
ITLB LOAD TRANSLATION ACCESS:    7300091  HIT:    7300091  MISS:          0  HIT %:        100  MISS %:          0   MPKI: 0
ITLB PREFETCH  REQUESTED:          0  ISSUED:          0  USEFUL:          0  USELESS:          0
ITLB USEFUL LOAD PREFETCHES:          0 PREFETCH ISSUED TO LOWER LEVEL:          0  ACCURACY: -nan
ITLB TIMELY PREFETCHES:          0 LATE PREFETCHES: 0 DROPPED PREFETCHES: 0
ITLB PREFETCHES SAME FILL-ORIGIN LEVEL: 0 DIFFERENT FILL-ORIGIN LEVEL: 0
ITLB AVERAGE MISS LATENCY: -nan cycles
ITLB RQ	ACCESS:    8664070	FORWARD:          0	MERGED:    1363979	TO_CACHE:    7300091

DTLB TOTAL     ACCESS:    8329327  HIT:    8307306  MISS:      22021  HIT %:    99.7356  MISS %:   0.264379   MPKI: 0.44042
DTLB LOAD TRANSLATION ACCESS:    8329327  HIT:    8307306  MISS:      22021  HIT %:    99.7356  MISS %:   0.264379   MPKI: 0.44042
DTLB PREFETCH  REQUESTED:          0  ISSUED:          0  USEFUL:          0  USELESS:          0
DTLB USEFUL LOAD PREFETCHES:          0 PREFETCH ISSUED TO LOWER LEVEL:          0  ACCURACY: -nan
DTLB TIMELY PREFETCHES:          0 LATE PREFETCHES: 0 DROPPED PREFETCHES: 0
DTLB PREFETCHES SAME FILL-ORIGIN LEVEL: 0 DIFFERENT FILL-ORIGIN LEVEL: 0
DTLB AVERAGE MISS LATENCY: 10.8969 cycles
DTLB RQ	ACCESS:    9355091	FORWARD:          0	MERGED:    1025597	TO_CACHE:    8329494

STLB TOTAL     ACCESS:     671715  HIT:     671458  MISS:        257  HIT %:    99.9617  MISS %:  0.0382603   MPKI: 0.00514
STLB LOAD TRANSLATION ACCESS:      22021  HIT:      21764  MISS:        257  HIT %:    98.8329  MISS %:    1.16707   MPKI: 0.00514
STLB TRANSLATION FROM L1D PREFETCHER ACCESS:     649694  HIT:     649694  MISS:          0  HIT %:        100  MISS %:          0   MPKI: 0
STLB PREFETCH  REQUESTED:          0  ISSUED:          0  USEFUL:          0  USELESS:          0
STLB USEFUL LOAD PREFETCHES:          0 PREFETCH ISSUED TO LOWER LEVEL:          0  ACCURACY: -nan
STLB TIMELY PREFETCHES:          0 LATE PREFETCHES: 0 DROPPED PREFETCHES: 0
STLB PREFETCHES SAME FILL-ORIGIN LEVEL: 0 DIFFERENT FILL-ORIGIN LEVEL: 0
STLB AVERAGE MISS LATENCY: 162.529 cycles
STLB RQ	ACCESS:    1488937	FORWARD:          0	MERGED:     817222	TO_CACHE:     671715

STLB Hit, L1D data hit: 0
STLB Hit, L2C data hit: 0
STLB Hit, LLC data hit: 0
STLB Hit, LLC data miss: 0
STLB STLB hints to L2: 0
L1D TOTAL     ACCESS:   10775740  HIT:    9412833  MISS:    1362907  HIT %:    87.3521  MISS %:    12.6479   MPKI: 27.2581
L1D LOAD      ACCESS:    8447987  HIT:    8377556  MISS:      70431  HIT %:    99.1663  MISS %:   0.833702   MPKI: 1.40862
L1D RFO       ACCESS:     885861  HIT:     885861  MISS:          0  HIT %:        100  MISS %:          0   MPKI: 0
L1D PREFETCH  ACCESS:    1441892  HIT:     149416  MISS:    1292476  HIT %:    10.3625  MISS %:    89.6375   MPKI: 25.8495
L1D PREFETCH  REQUESTED:    2933832  ISSUED:    2933832  USEFUL:    1180678  USELESS:     111802
L1D USEFUL LOAD PREFETCHES:    1180678 PREFETCH ISSUED TO LOWER LEVEL:    1292482  ACCURACY: 91.3497
L1D TIMELY PREFETCHES:    1180678 LATE PREFETCHES: 20742 DROPPED PREFETCHES: 0
L1D PREFETCHES SAME FILL-ORIGIN LEVEL: 1292482 DIFFERENT FILL-ORIGIN LEVEL: 0
L1D AVERAGE MISS LATENCY: 63.5995 cycles
L1D RQ	ACCESS:   14945450	FORWARD:          0	MERGED:    6476221	TO_CACHE:    8469228
L1D WQ	ACCESS:     885863	FORWARD:          1	MERGED:          0	TO_CACHE:     885863
L1D PQ	ACCESS:    1466916	FORWARD:          0	MERGED:          0	TO_CACHE:    1466916

L1D UNIQUE REGIONS ACCESSED: 0
L1D REGIONS CONFLICTS: 0
L1D Cross Page Prefetch Requests: 0
L1D Same Page Prefetch Requests: 1773896
L1D ROI Sum of L1D PQ occupancy: 19449896
L1D PREFETCHES PUSHED FROM L2C: 0
L1I TOTAL     ACCESS:    8664070  HIT:    8664070  MISS:          0  HIT %:        100  MISS %:          0   MPKI: 0
L1I LOAD      ACCESS:    8664070  HIT:    8664070  MISS:          0  HIT %:        100  MISS %:          0   MPKI: 0
L1I PREFETCH  REQUESTED:          0  ISSUED:          0  USEFUL:          0  USELESS:          0
L1I USEFUL LOAD PREFETCHES:          0 PREFETCH ISSUED TO LOWER LEVEL:          0  ACCURACY: -nan
L1I TIMELY PREFETCHES:          0 LATE PREFETCHES: 0 DROPPED PREFETCHES: 0
L1I PREFETCHES SAME FILL-ORIGIN LEVEL: 0 DIFFERENT FILL-ORIGIN LEVEL: 0
L1I AVERAGE MISS LATENCY: -nan cycles
L1I RQ	ACCESS:   15861092	FORWARD:          0	MERGED:    7197022	TO_CACHE:    8664070

BTB TOTAL     ACCESS:    8732392  HIT:    8732375  MISS:         17  HIT %:    99.9998  MISS %: 0.000194677   MPKI: 0.00034
BTB BRANCH_DIRECT_JUMP	ACCESS:         40  HIT:         39  MISS:          1
BTB BRANCH_INDIRECT	ACCESS:          0  HIT:          0  MISS:          0
BTB BRANCH_CONDITIONAL	ACCESS:    7846776  HIT:    7846767  MISS:          9
BTB BRANCH_DIRECT_CALL	ACCESS:     221414  HIT:     221412  MISS:          2
BTB BRANCH_INDIRECT_CALL	ACCESS:     221374  HIT:     221373  MISS:          1
BTB BRANCH_RETURN	ACCESS:     442788  HIT:     442784  MISS:          4
BTB BRANCH_OTHER ACCESS:          0  HIT:          0  MISS:          0

L2C TOTAL     ACCESS:    3154370  HIT:    1827740  MISS:    1326630  HIT %:    57.9431  MISS %:    42.0569   MPKI: 26.5326
L2C LOAD      ACCESS:      70431  HIT:       3550  MISS:      66881  HIT %:    5.04039  MISS %:    94.9596   MPKI: 1.33762
L2C DATA LOAD MPKI: 1.33762
L2C INSTRUCTION LOAD MPKI: 0
L2C PREFETCH  ACCESS:    3083642  HIT:    1823960  MISS:    1259682  HIT %:    59.1495  MISS %:    40.8505   MPKI: 25.1936
L2C DATA PREFETCH MPKI: 25.1936
L2C INSTRUCTION PREFETCH MPKI: 0
L2C WRITEBACK ACCESS:         40  HIT:         40  MISS:          0  HIT %:        100  MISS %:          0   MPKI: 0
L2C LOAD TRANSLATION ACCESS:        257  HIT:        190  MISS:         67  HIT %:      73.93  MISS %:      26.07   MPKI: 0.00134
L2C PREFETCH  REQUESTED:    2300647  ISSUED:    2300642  USEFUL:       1693  USELESS:    1257826
L2C USEFUL LOAD PREFETCHES:       1693 PREFETCH ISSUED TO LOWER LEVEL:    1259683  ACCURACY: 0.134399
L2C TIMELY PREFETCHES:       1693 LATE PREFETCHES: 1 DROPPED PREFETCHES: 0
L2C PREFETCHES SAME FILL-ORIGIN LEVEL: 706018 DIFFERENT FILL-ORIGIN LEVEL: 0
L2C AVERAGE MISS LATENCY: 107.931 cycles
L2C RQ	ACCESS:      70688	FORWARD:          0	MERGED:          0	TO_CACHE:      70688
L2C WQ	ACCESS:         40	FORWARD:          0	MERGED:          0	TO_CACHE:         40
L2C PQ	ACCESS:    3593120	FORWARD:          0	MERGED:     501477	TO_CACHE:    3091643

L2C Instructions Evicting Data 0
L2C Translations Evicting Data 67
L2C Data Evicting Data 1326496
L2C Instructions Evicting Instructions 0
L2C Translations Evicting Instructions 0
L2C Data Evicting Instructions 0
L2C Instructions Evicting Translations 0
L2C Translations Evicting Translations 0
L2C Data Evicting Translations 67
L2C Dense regions hint from L2: 0
PSCL5 TOTAL     ACCESS:        257  HIT:        257  MISS:          0  HIT %:        100  MISS %:          0   MPKI: 0
PSCL5 LOAD TRANSLATION ACCESS:        257  HIT:        257  MISS:          0  HIT %:        100  MISS %:          0   MPKI: 0
PSCL5 PREFETCH  REQUESTED:          0  ISSUED:          0  USEFUL:          0  USELESS:          0
PSCL5 USEFUL LOAD PREFETCHES:          0 PREFETCH ISSUED TO LOWER LEVEL:          0  ACCURACY: -nan
PSCL5 TIMELY PREFETCHES:          0 LATE PREFETCHES: 0 DROPPED PREFETCHES: 0
PSCL5 PREFETCHES SAME FILL-ORIGIN LEVEL: 0 DIFFERENT FILL-ORIGIN LEVEL: 0

PSCL4 TOTAL     ACCESS:        257  HIT:        257  MISS:          0  HIT %:        100  MISS %:          0   MPKI: 0
PSCL4 LOAD TRANSLATION ACCESS:        257  HIT:        257  MISS:          0  HIT %:        100  MISS %:          0   MPKI: 0
PSCL4 PREFETCH  REQUESTED:          0  ISSUED:          0  USEFUL:          0  USELESS:          0
PSCL4 USEFUL LOAD PREFETCHES:          0 PREFETCH ISSUED TO LOWER LEVEL:          0  ACCURACY: -nan
PSCL4 TIMELY PREFETCHES:          0 LATE PREFETCHES: 0 DROPPED PREFETCHES: 0
PSCL4 PREFETCHES SAME FILL-ORIGIN LEVEL: 0 DIFFERENT FILL-ORIGIN LEVEL: 0

PSCL3 TOTAL     ACCESS:        257  HIT:        257  MISS:          0  HIT %:        100  MISS %:          0   MPKI: 0
PSCL3 LOAD TRANSLATION ACCESS:        257  HIT:        257  MISS:          0  HIT %:        100  MISS %:          0   MPKI: 0
PSCL3 PREFETCH  REQUESTED:          0  ISSUED:          0  USEFUL:          0  USELESS:          0
PSCL3 USEFUL LOAD PREFETCHES:          0 PREFETCH ISSUED TO LOWER LEVEL:          0  ACCURACY: -nan
PSCL3 TIMELY PREFETCHES:          0 LATE PREFETCHES: 0 DROPPED PREFETCHES: 0
PSCL3 PREFETCHES SAME FILL-ORIGIN LEVEL: 0 DIFFERENT FILL-ORIGIN LEVEL: 0

PSCL2 TOTAL     ACCESS:        257  HIT:        257  MISS:          0  HIT %:        100  MISS %:          0   MPKI: 0
PSCL2 LOAD TRANSLATION ACCESS:        257  HIT:        257  MISS:          0  HIT %:        100  MISS %:          0   MPKI: 0
PSCL2 PREFETCH  REQUESTED:          0  ISSUED:          0  USEFUL:          0  USELESS:          0
PSCL2 USEFUL LOAD PREFETCHES:          0 PREFETCH ISSUED TO LOWER LEVEL:          0  ACCURACY: -nan
PSCL2 TIMELY PREFETCHES:          0 LATE PREFETCHES: 0 DROPPED PREFETCHES: 0
PSCL2 PREFETCHES SAME FILL-ORIGIN LEVEL: 0 DIFFERENT FILL-ORIGIN LEVEL: 0

LLC TOTAL     ACCESS:    1326664  HIT:     232053  MISS:    1094611  HIT %:    17.4915  MISS %:    82.5085   MPKI: 21.8922
LLC LOAD      ACCESS:      66880  HIT:      12334  MISS:      54546  HIT %:     18.442  MISS %:     81.558   MPKI: 1.09092
LLC PREFETCH  ACCESS:    1259683  HIT:     219677  MISS:    1040006  HIT %:    17.4391  MISS %:    82.5609   MPKI: 20.8001
LLC WRITEBACK ACCESS:         34  HIT:         34  MISS:          0  HIT %:        100  MISS %:          0   MPKI: 0
LLC LOAD TRANSLATION ACCESS:         67  HIT:          8  MISS:         59  HIT %:    11.9403  MISS %:    88.0597   MPKI: 0.00118
LLC PREFETCH  REQUESTED:          0  ISSUED:          0  USEFUL:        870  USELESS:    1039144
LLC USEFUL LOAD PREFETCHES:        870 PREFETCH ISSUED TO LOWER LEVEL:    1040006  ACCURACY: 0.0836534
LLC TIMELY PREFETCHES:        870 LATE PREFETCHES: 0 DROPPED PREFETCHES: 0
LLC PREFETCHES SAME FILL-ORIGIN LEVEL: 0 DIFFERENT FILL-ORIGIN LEVEL: 0
LLC AVERAGE MISS LATENCY: 94.4454 cycles
LLC RQ	ACCESS:      66947	FORWARD:          0	MERGED:          0	TO_CACHE:      66947
LLC WQ	ACCESS:         34	FORWARD:          0	MERGED:          0	TO_CACHE:         34
LLC PQ	ACCESS:    1259683	FORWARD:          0	MERGED:          0	TO_CACHE:    1259683

LLC Dense regions hint to LLC: 0

RAW hits: 0
Loads Generated: 14945450
Loads sent to L1D: 14945450
Stores Generated: 885863
Stores sent to L1D: 885863
Major fault: 0 Minor fault: 1315
Allocated PAGES: 1315

stream: 
stream:times selected: 2873983
stream:pref_filled: 175570
stream:pref_useful: 50671
stream:pref_late: 20502
stream:misses: 87662
stream:misses_by_poll: 0

CS: 
CS:times selected: 2566121
CS:pref_filled: 1335759
CS:pref_useful: 1328119
CS:pref_late: 391
CS:misses: 24000
CS:misses_by_poll: 7571

CPLX: 
CPLX:times selected: 307729
CPLX:pref_filled: 38103
CPLX:pref_useful: 36399
CPLX:pref_late: 112
CPLX:misses: 4882
CPLX:misses_by_poll: 37

NL_L1: 
NL:times selected: 61
NL:pref_filled: 14
NL:pref_useful: 9
NL:pref_late: 1
NL:misses: 4
NL:misses_by_poll: 0

total selections: 5747894
total_filled: 1292476
total_useful: 1180678
total_late: 21008
total_polluted: 7608
total_misses_after_warmup: 91675
conflicts: 4
Degree Incremented Times: 69523
Degree Decremented Times: 36060

L1 IP Table Write Accesses: 8234420
L1 IP Table Read Accesses: 8234416
L1 RST Write Accesses: 2354020
L1 RST Read Accesses: 4708040
L1 CSPT Write Accesses: 2354020
L1 CSPT Read Accesses: 2914947
L1 RR Filter Tag Write Accesses: 1466916
L1 RR Filter Tag Read Accesses: 188100603
L1 IP Table Tag Write Accesses: 8469231
L1 IP Table Tag Read Accesses: 8469231
L1 RST Tag Write Accesses: 0
L1 RST Tag Read Accesses: 21216700
L1 RR Filter Write Accesses: 0
L1 RR Filter Read Accesses: 8077954
test: 287427
L2 IP Table Read Accesses: 2342198
L2 IP Table Write Accesses: 2271784
L2 IP Table Tag Read Accesses: 1171107
L2 IP Table Tag Write Accesses: 1171107

DRAM Statistics
 CHANNEL 0
 RQ ROW_BUFFER_HIT:    1043048  ROW_BUFFER_MISS:      51563
 DBUS_CONGESTED:          0
 WQ ROW_BUFFER_HIT:          0  ROW_BUFFER_MISS:         20  FULL:          0

 AVG_CONGESTED_CYCLE: -
 All warmup complete: 2
Channel 0 Bank busy for read cycles: 0
Channel 0 Bank busy for write cycles: 0
Channel 0
Rank 0
0banks busy for read cycles: 65759425
0banks busy for write cycles: 20
1banks busy for read cycles: 7094801
1banks busy for write cycles: 3000
2banks busy for read cycles: 2406719
2banks busy for write cycles: 0
3banks busy for read cycles: 1790890
3banks busy for write cycles: 0
4banks busy for read cycles: 2365450
4banks busy for write cycles: 0
5banks busy for read cycles: 2191733
5banks busy for write cycles: 0
6banks busy for read cycles: 1252503
6banks busy for write cycles: 0
7banks busy for read cycles: 677807
7banks busy for write cycles: 0
8banks busy for read cycles: 1240788
8banks busy for write cycles: 0

CPU 0 Branch Prediction Accuracy: 95.2006% MPKI: 13.2833 Average ROB Occupancy at Mispredict: 41.3346
Branch types
NOT_BRANCH: 36161176 72.3224%
BRANCH_DIRECT_JUMP: 40 8e-05%
BRANCH_INDIRECT: 0 0%
BRANCH_CONDITIONAL: 12952872 25.9057%
BRANCH_DIRECT_CALL: 221414 0.442828%
BRANCH_INDIRECT_CALL: 221374 0.442748%
BRANCH_RETURN: 442788 0.885576%
BRANCH_OTHER: 0 0%

@sumon_overall_L1D   1180678     20742    111802   1292476   2933832   2933832
@Sumon_Early_by_class_L1D     44187   1111942     24540         1
@Sumon_Late_by_class_L1D     16552       391        47         1

@Sumon_Early_by_cycle_L1D     24588     39335     93922     97684    104906    788287      3211     26949       890       906         0         0
@Sumon_Late_by_cycle_L1D     11350      5608        34         0         0         0         0         0         0         0         0         0
@Sumon_Early_stream_L1D     23795     14690      5600        10        11        31        30         0        13         7         0         0
@Sumon_Early_CS_L1D       683     23433     85076     94121    102072    777114       910     26944       864       725         0         0
@Sumon_Early_CPLX_L1D       104      1210      3245      3553      2823     11142      2271         5        13       174         0         0
@Sumon_Late_stream_L1D     10915      5604        33         0         0         0         0         0         0         0         0         0
@Sumon_Late_CS_L1D       391         0         0         0         0         0         0         0         0         0         0         0
@Sumon_Late_CPLX_L1D        42         4         1         0         0         0         0         0         0         0         0         0
@sumon_overall_L2C      1693         1   1257826   1259682   2300642   2300647
@Sumon_Early_by_class_L2C       206      1449        36         0
@Sumon_Late_by_class_L2C         0         0         0         0

@Sumon_Early_by_cycle_L2C         2         2       175        57        24       550         1         0         6         3       237       636
@Sumon_Late_by_cycle_L2C         1         0         0         0         0         0         0         0         0         0         0         0
@Sumon_Early_stream_L2C         0         0         0         0         0         0         0         0         0         0        53       153
@Sumon_Early_CS_L2C         0         2       175        57        24       550         1         0         6         3       184       447
@Sumon_Early_CPLX_L2C         0         0         0         0         0         0         0         0         0         0         0        36
@Sumon_Late_stream_L2C         0         0         0         0         0         0         0         0         0         0         0         0
@Sumon_Late_CS_L2C         0         0         0         0         0         0         0         0         0         0         0         0
@Sumon_Late_CPLX_L2C         0         0         0         0         0         0         0         0         0         0         0         0
DRAM PAGES: 1048576
Allocated PAGES: 1315
