Initialize SIGNATURE TABLE
ST_SET: 1
ST_WAY: 256
ST_TAG_BIT: 16
ST_TAG_MASK: ffff

Initialize PATTERN TABLE
PT_SET: 512
PT_WAY: 4
SIG_DELTA_BIT: 7
C_SIG_BIT: 4
C_DELTA_BIT: 4

Initialize PREFETCH FILTER
FILTER_SET: 1024

*** ChampSim Multicore Out-of-Order Simulator ***

Warmup Instructions: 50000000
Simulation Instructions: 50000000
Number of CPUs: 1
LLC sets: 2048
LLC ways: 16
Off-chip DRAM Size: 4096 MB Channels: 1 Width: 64-bit Data Rate: 6400 MT/s
CPU 0 runs ../../biswa/SPEC2017Traces/603.bwaves_s-1740B.champsimtrace.xz
.xz
CPU 0 Bimodal branch predictor
BTB has LRU replacement policy
ITLB has LRU replacement policy
DTLB has LRU replacement policy
STLB has LRU replacement policy
L1I has LRU replacement policy
L1D has LRU replacement policy
ST_WAYS: 256
PT_SETS: 512
Initialize DRRIP state for L2C
epoch: 1000
next table: 2127
cur table: 10528
epoch: 1000
next table: 2069
cur table: 2127
epoch: 1000
next table: 2071
cur table: 2069
epoch: 1000
next table: 2063
cur table: 2071
epoch: 1000
next table: 2073
cur table: 2063
epoch: 1000
next table: 2070
cur table: 2073
epoch: 1000
next table: 2067
cur table: 2070
epoch: 1000
next table: 2064
cur table: 2067
epoch: 1000
next table: 2065
cur table: 2064
epoch: 1000
next table: 2066
cur table: 2065
epoch: 1000
next table: 2065
cur table: 2066
epoch: 1000
next table: 2054
cur table: 2065
epoch: 1000
next table: 2062
cur table: 2054
epoch: 1000
next table: 2058
cur table: 2062
epoch: 1000
next table: 2061
cur table: 2058
epoch: 1000
next table: 2061
cur table: 2061
epoch: 1000
next table: 2066
cur table: 2061
epoch: 1000
next table: 2066
cur table: 2066
epoch: 1000
next table: 2066
cur table: 2066
epoch: 1000
next table: 2066
cur table: 2066
epoch: 1000
next table: 2062
cur table: 2066
epoch: 1000
next table: 2063
cur table: 2062
epoch: 1000
next table: 2071
cur table: 2063
epoch: 1000
next table: 2065
cur table: 2071
epoch: 1000
next table: 2069
cur table: 2065
epoch: 1000
next table: 1794
cur table: 20269
epoch: 1000
next table: 2054
cur table: 2069
epoch: 1000
next table: 1583
cur table: 1794
epoch: 1000
next table: 2071
cur table: 2054
epoch: 1000
next table: 1568
cur table: 1583
epoch: 1000
next table: 2061
cur table: 2071
epoch: 1000
next table: 1578
cur table: 1568
epoch: 1000
next table: 2067
cur table: 2061
epoch: 1000
next table: 1580
cur table: 1578
epoch: 1000
next table: 2064
cur table: 2067
epoch: 1000
next table: 1580
cur table: 1580
epoch: 1000
next table: 2061
cur table: 2064
epoch: 1000
next table: 1576
cur table: 1580
epoch: 1000
next table: 2070
cur table: 2061
epoch: 1000
next table: 1573
cur table: 1576
epoch: 1000
next table: 2064
cur table: 2070
epoch: 1000
next table: 1560
cur table: 1573
epoch: 1000
next table: 2062
cur table: 2064
epoch: 1000
next table: 1577
cur table: 1560
epoch: 1000
next table: 2063
cur table: 2062
epoch: 1000
next table: 1578
cur table: 1577
epoch: 1000
next table: 2063
cur table: 2063
epoch: 1000
next table: 1583
cur table: 1578
epoch: 1000
next table: 2065
cur table: 2063
epoch: 1000
next table: 1583
cur table: 1583
epoch: 1000
next table: 2060
cur table: 2065
epoch: 1000
next table: 1584
cur table: 1583
epoch: 1000
next table: 2063
cur table: 2060
epoch: 1000
next table: 1575
cur table: 1584
epoch: 1000
next table: 2064
cur table: 2063
epoch: 1000
next table: 1556
cur table: 1575
epoch: 1000
next table: 2063
cur table: 2064
epoch: 1000
next table: 1581
cur table: 1556
epoch: 1000
next table: 2060
cur table: 2063
epoch: 1000
next table: 1587
cur table: 1581
epoch: 1000
next table: 2067
cur table: 2060
epoch: 1000
next table: 1581
cur table: 1587
epoch: 1000
next table: 2061
cur table: 2067
epoch: 1000
next table: 1560
cur table: 1581
epoch: 1000
next table: 2069
cur table: 2061
epoch: 1000
next table: 1551
cur table: 1560
epoch: 1000
next table: 2061
cur table: 2069
epoch: 1000
next table: 1570
cur table: 1551
epoch: 1000
next table: 2069
cur table: 2061
epoch: 1000
next table: 1587
cur table: 1570
epoch: 1000
next table: 2063
cur table: 2069
epoch: 1000
next table: 1563
cur table: 1587
epoch: 1000
next table: 2059
cur table: 2063
epoch: 1000
next table: 1569
cur table: 1563
epoch: 1000
next table: 2064
cur table: 2059
epoch: 1000
next table: 1566
cur table: 1569
epoch: 1000
next table: 2061
cur table: 2064
epoch: 1000
next table: 1589
cur table: 1566
epoch: 1000
next table: 2062
cur table: 2061
epoch: 1000
next table: 1568
cur table: 1589
epoch: 1000
next table: 2065
cur table: 2062
epoch: 1000
next table: 1579
cur table: 1568
epoch: 1000
next table: 2069
cur table: 2065
epoch: 1000
next table: 1603
cur table: 1579
epoch: 1000
next table: 2065
cur table: 2069
epoch: 1000
next table: 1577
cur table: 1603
epoch: 1000
next table: 2067
cur table: 2065
epoch: 1000
next table: 1572
cur table: 1577
epoch: 1000
next table: 2062
cur table: 2067
epoch: 1000
next table: 1578
cur table: 1572
epoch: 1000
next table: 2061
cur table: 2062
epoch: 1000
next table: 1599
cur table: 1578
epoch: 1000
next table: 2069
cur table: 2061
epoch: 1000
next table: 1577
cur table: 1599
epoch: 1000
next table: 2063
cur table: 2069
epoch: 1000
next table: 1594
cur table: 1577
epoch: 1000
next table: 2068
cur table: 2063
epoch: 1000
next table: 1603
cur table: 1594
epoch: 1000
next table: 2058
cur table: 2068
epoch: 1000
next table: 1583
cur table: 1603
epoch: 1000
next table: 2071
cur table: 2058
epoch: 1000
next table: 1569
cur table: 1583
epoch: 1000
next table: 2060
cur table: 2071
epoch: 1000
next table: 1571
cur table: 1569
epoch: 1000
next table: 2069
cur table: 2060
epoch: 1000
next table: 1576
cur table: 1571
epoch: 1000
next table: 2061
cur table: 2069
epoch: 1000
next table: 1572
cur table: 1576
epoch: 1000
next table: 2068
cur table: 2061
epoch: 1000
next table: 1593
cur table: 1572
epoch: 1000
next table: 2058
cur table: 2068
epoch: 1000
next table: 1541
cur table: 1593
epoch: 1000
next table: 2067
cur table: 2058
epoch: 1000
next table: 1566
cur table: 1541
epoch: 1000
next table: 2059
cur table: 2067
epoch: 1000
next table: 1588
cur table: 1566
epoch: 1000
next table: 2064
cur table: 2059
epoch: 1000
next table: 1580
cur table: 1588
epoch: 1000
next table: 2069
cur table: 2064
epoch: 1000
next table: 1592
cur table: 1580
epoch: 1000
next table: 2060
cur table: 2069
epoch: 1000
next table: 1562
cur table: 1592
epoch: 1000
next table: 2061
cur table: 2060
epoch: 1000
next table: 1575
cur table: 1562
epoch: 1000
next table: 2069
cur table: 2061
epoch: 1000
next table: 1571
cur table: 1575
epoch: 1000
next table: 2061
cur table: 2069
epoch: 1000
next table: 1578
cur table: 1571
epoch: 1000
next table: 2064
cur table: 2061
epoch: 1000
next table: 1581
cur table: 1578
epoch: 1000
next table: 2061
cur table: 2064
epoch: 1000
next table: 1572
cur table: 1581
epoch: 1000
next table: 2064
cur table: 2061
epoch: 1000
next table: 1583
cur table: 1572
epoch: 1000
next table: 2063
cur table: 2064
epoch: 1000
next table: 1551
cur table: 1583
epoch: 1000
next table: 2060
cur table: 2063
epoch: 1000
next table: 1559
cur table: 1551
epoch: 1000
next table: 2065
cur table: 2060
epoch: 1000
next table: 1549
cur table: 1559
epoch: 1000
next table: 2066
cur table: 2065
epoch: 1000
next table: 1580
cur table: 1549
epoch: 1000
next table: 2062
cur table: 2066
epoch: 1000
next table: 1560
cur table: 1580
epoch: 1000
next table: 2068
cur table: 2062
epoch: 1000
next table: 1584
cur table: 1560
epoch: 1000
next table: 2062
cur table: 2068
epoch: 1000
next table: 1562
cur table: 1584
epoch: 1000
next table: 2068
cur table: 2062
epoch: 1000
next table: 1576
cur table: 1562
epoch: 1000
next table: 2059
cur table: 2068
epoch: 1000
next table: 1614
cur table: 1576
epoch: 1000
next table: 2065
cur table: 2059
epoch: 1000
next table: 1617
cur table: 1614
epoch: 1000
next table: 2060
cur table: 2065
epoch: 1000
next table: 1628
cur table: 1617
epoch: 1000
next table: 2063
cur table: 2060
epoch: 1000
next table: 2065
cur table: 2063
epoch: 1000
next table: 1655
cur table: 1628
epoch: 1000
next table: 2071
cur table: 2065
epoch: 1000
next table: 1655
cur table: 1655
epoch: 1000
next table: 2061
cur table: 2071
epoch: 1000
next table: 1613
cur table: 1655
epoch: 1000
next table: 2063
cur table: 2061
epoch: 1000
next table: 1625
cur table: 1613
epoch: 1000
next table: 2063
cur table: 2063
epoch: 1000
next table: 1632
cur table: 1625
epoch: 1000
next table: 2063
cur table: 2063
epoch: 1000
next table: 1653
cur table: 1632
epoch: 1000
next table: 2062
cur table: 2063
epoch: 1000
next table: 1649
cur table: 1653
epoch: 1000
next table: 2062
cur table: 2062
epoch: 1000
next table: 1666
cur table: 1649
epoch: 1000
next table: 2060
cur table: 2062
epoch: 1000
next table: 2067
cur table: 2060
epoch: 1000
next table: 1648
cur table: 1666
epoch: 1000
next table: 2056
cur table: 2067
epoch: 1000
next table: 1644
cur table: 1648
epoch: 1000
next table: 2067
cur table: 2056
epoch: 1000
next table: 1663
cur table: 1644
epoch: 1000
next table: 2066
cur table: 2067
epoch: 1000
next table: 1642
cur table: 1663
epoch: 1000
next table: 2063
cur table: 2066
epoch: 1000
next table: 1670
cur table: 1642
epoch: 1000
next table: 2061
cur table: 2063
epoch: 1000
next table: 1655
cur table: 1670
epoch: 1000
next table: 2066
cur table: 2061
epoch: 1000
next table: 1626
cur table: 1655
epoch: 1000
next table: 2062
cur table: 2066
epoch: 1000
next table: 1637
cur table: 1626
epoch: 1000
next table: 2069
cur table: 2062
epoch: 1000
next table: 2061
cur table: 2069
epoch: 1000
next table: 1690
cur table: 1637
epoch: 1000
next table: 2067
cur table: 2061
epoch: 1000
next table: 1609
cur table: 1690
epoch: 1000
next table: 2060
cur table: 2067
epoch: 1000
next table: 1653
cur table: 1609
epoch: 1000
next table: 2066
cur table: 2060
epoch: 1000
next table: 1636
cur table: 1653
epoch: 1000
next table: 2059
cur table: 2066
epoch: 1000
next table: 1659
cur table: 1636
epoch: 1000
next table: 2066
cur table: 2059
epoch: 1000
next table: 1666
cur table: 1659
epoch: 1000
next table: 2062
cur table: 2066
epoch: 1000
next table: 1640
cur table: 1666
epoch: 1000
next table: 2065
cur table: 2062
epoch: 1000
next table: 2066
cur table: 2065
epoch: 1000
next table: 1658
cur table: 1640
epoch: 1000
next table: 2068
cur table: 2066
epoch: 1000
next table: 1654
cur table: 1658
epoch: 1000
next table: 2061
cur table: 2068
epoch: 1000
next table: 1710
cur table: 1654
epoch: 1000
next table: 2067
cur table: 2061
epoch: 1000
next table: 1648
cur table: 1710
epoch: 1000
next table: 2063
cur table: 2067
epoch: 1000
next table: 1665
cur table: 1648
epoch: 1000
next table: 2060
cur table: 2063
epoch: 1000
next table: 1641
cur table: 1665
epoch: 1000
next table: 2068
cur table: 2060
epoch: 1000
next table: 1688
cur table: 1641
epoch: 1000
next table: 2067
cur table: 2068
epoch: 1000
next table: 1688
cur table: 1688
epoch: 1000
next table: 2060
cur table: 2067
epoch: 1000
next table: 2071
cur table: 2060
epoch: 1000
next table: 1684
cur table: 1688
epoch: 1000
next table: 2060
cur table: 2071
epoch: 1000
next table: 1668
cur table: 1684
epoch: 1000
next table: 2069
cur table: 2060
epoch: 1000
next table: 1661
cur table: 1668
epoch: 1000
next table: 2063
cur table: 2069
epoch: 1000
next table: 1665
cur table: 1661
epoch: 1000
next table: 2063
cur table: 2063
epoch: 1000
next table: 1639
cur table: 1665
epoch: 1000
next table: 2062
cur table: 2063
epoch: 1000
next table: 1636
cur table: 1639
epoch: 1000
next table: 2068
cur table: 2062
epoch: 1000
next table: 1661
cur table: 1636
epoch: 1000
next table: 2055
cur table: 2068
epoch: 1000
next table: 1652
cur table: 1661
epoch: 1000
next table: 2068
cur table: 2055
epoch: 1000
next table: 2069
cur table: 2068
epoch: 1000
next table: 1650
cur table: 1652
epoch: 1000
next table: 2068
cur table: 2069
epoch: 1000
next table: 1673
cur table: 1650
epoch: 1000
next table: 2061
cur table: 2068
epoch: 1000
next table: 1675
cur table: 1673
epoch: 1000
next table: 2060
cur table: 2061
epoch: 1000
next table: 1670
cur table: 1675
epoch: 1000
next table: 2063
cur table: 2060
epoch: 1000
next table: 1642
cur table: 1670
epoch: 1000
next table: 2068
cur table: 2063
epoch: 1000
next table: 1647
cur table: 1642
epoch: 1000
next table: 2060
cur table: 2068
epoch: 1000
next table: 1649
cur table: 1647
epoch: 1000
next table: 2067
cur table: 2060
epoch: 1000
next table: 2061
cur table: 2067
epoch: 1000
next table: 1625
cur table: 1649
epoch: 1000
next table: 2071
cur table: 2061
epoch: 1000
next table: 1656
cur table: 1625
epoch: 1000
next table: 2058
cur table: 2071
epoch: 1000
next table: 1664
cur table: 1656
epoch: 1000
next table: 2070
cur table: 2058
epoch: 1000
next table: 1637
cur table: 1664
epoch: 1000
next table: 2061
cur table: 2070
epoch: 1000
next table: 1645
cur table: 1637
epoch: 1000
next table: 2065
cur table: 2061
epoch: 1000
next table: 1678
cur table: 1645
epoch: 1000
next table: 2059
cur table: 2065
epoch: 1000
next table: 1653
cur table: 1678
epoch: 1000
next table: 2062
cur table: 2059
epoch: 1000
next table: 1652
cur table: 1653
epoch: 1000
next table: 2065
cur table: 2062
epoch: 1000
next table: 2064
cur table: 2065
epoch: 1000
next table: 1649
cur table: 1652
epoch: 1000
next table: 2060
cur table: 2064
epoch: 1000
next table: 1672
cur table: 1649
epoch: 1000
next table: 2066
cur table: 2060
epoch: 1000
next table: 1662
cur table: 1672
epoch: 1000
next table: 2053
cur table: 2066
epoch: 1000
next table: 1660
cur table: 1662
epoch: 1000
next table: 2063
cur table: 2053
epoch: 1000
next table: 1656
cur table: 1660
epoch: 1000
next table: 2051
cur table: 2063
epoch: 1000
next table: 1659
cur table: 1656
epoch: 1000
next table: 2072
cur table: 2051
epoch: 1000
next table: 1663
cur table: 1659
epoch: 1000
next table: 2060
cur table: 2072
epoch: 1000
next table: 2070
cur table: 2060
epoch: 1000
next table: 1636
cur table: 1663
epoch: 1000
next table: 2064
cur table: 2070
epoch: 1000
next table: 1655
cur table: 1636
epoch: 1000
next table: 2057
cur table: 2064
epoch: 1000
next table: 1649
cur table: 1655
epoch: 1000
next table: 2062
cur table: 2057
epoch: 1000
next table: 1666
cur table: 1649
epoch: 1000
next table: 2070
cur table: 2062
epoch: 1000
next table: 1652
cur table: 1666
epoch: 1000
next table: 2060
cur table: 2070
epoch: 1000
next table: 1648
cur table: 1652
epoch: 1000
next table: 2072
cur table: 2060
epoch: 1000
next table: 2056
cur table: 2072
epoch: 1000
next table: 1704
cur table: 1648
epoch: 1000
next table: 2063
cur table: 2056
epoch: 1000
next table: 1631
cur table: 1704
epoch: 1000
next table: 2058
cur table: 2063
epoch: 1000
next table: 1652
cur table: 1631
epoch: 1000
next table: 2062
cur table: 2058
epoch: 1000
next table: 1640
cur table: 1652
epoch: 1000
next table: 2060
cur table: 2062
epoch: 1000
next table: 1648
cur table: 1640
epoch: 1000
next table: 2069
cur table: 2060
epoch: 1000
next table: 1642
cur table: 1648
epoch: 1000
next table: 2059
cur table: 2069
epoch: 1000
next table: 1657
cur table: 1642
epoch: 1000
next table: 2070
cur table: 2059
epoch: 1000
next table: 1647
cur table: 1657
epoch: 1000
next table: 2061
cur table: 2070
epoch: 1000
next table: 2065
cur table: 2061
epoch: 1000
next table: 1671
cur table: 1647
epoch: 1000
next table: 2062
cur table: 2065
epoch: 1000
next table: 1667
cur table: 1671
epoch: 1000
next table: 2064
cur table: 2062
epoch: 1000
next table: 1631
cur table: 1667
epoch: 1000
next table: 2066
cur table: 2064
epoch: 1000
next table: 1689
cur table: 1631
epoch: 1000
next table: 2065
cur table: 2066
epoch: 1000
next table: 1638
cur table: 1689
Heartbeat CPU 0 instructions: 10000000 cycles: 3313633 heartbeat IPC: 3.01784 cumulative IPC: 3.01784 (Simulation time: 0 hr 3 min 5 sec) 
epoch: 1000
next table: 2063
cur table: 2065
epoch: 1000
next table: 1672
cur table: 1638
epoch: 1000
next table: 2069
cur table: 2063
epoch: 1000
next table: 1631
cur table: 1672
epoch: 1000
next table: 2060
cur table: 2069
epoch: 1000
next table: 1684
cur table: 1631
epoch: 1000
next table: 2068
cur table: 2060
epoch: 1000
next table: 2060
cur table: 2068
epoch: 1000
next table: 1633
cur table: 1684
epoch: 1000
next table: 2064
cur table: 2060
epoch: 1000
next table: 1673
cur table: 1633
epoch: 1000
next table: 2064
cur table: 2064
epoch: 1000
next table: 1640
cur table: 1673
epoch: 1000
next table: 2067
cur table: 2064
epoch: 1000
next table: 1652
cur table: 1640
epoch: 1000
next table: 2059
cur table: 2067
epoch: 1000
next table: 1646
cur table: 1652
epoch: 1000
next table: 2064
cur table: 2059
epoch: 1000
next table: 1663
cur table: 1646
epoch: 1000
next table: 2068
cur table: 2064
epoch: 1000
next table: 2068
cur table: 2068
epoch: 1000
next table: 1642
cur table: 1663
epoch: 1000
next table: 2054
cur table: 2068
epoch: 1000
next table: 1662
cur table: 1642
epoch: 1000
next table: 2068
cur table: 2054
epoch: 1000
next table: 1613
cur table: 1662
epoch: 1000
next table: 2062
cur table: 2068
epoch: 1000
next table: 1644
cur table: 1613
epoch: 1000
next table: 2065
cur table: 2062
epoch: 1000
next table: 1677
cur table: 1644
epoch: 1000
next table: 2061
cur table: 2065
epoch: 1000
next table: 1625
cur table: 1677
epoch: 1000
next table: 2068
cur table: 2061
epoch: 1000
next table: 1637
cur table: 1625
epoch: 1000
next table: 2062
cur table: 2068
epoch: 1000
next table: 1638
cur table: 1637
epoch: 1000
next table: 2058
cur table: 2062
epoch: 1000
next table: 2064
cur table: 2058
epoch: 1000
next table: 1680
cur table: 1638
epoch: 1000
next table: 2063
cur table: 2064
epoch: 1000
next table: 1617
cur table: 1680
epoch: 1000
next table: 2063
cur table: 2063
epoch: 1000
next table: 1694
cur table: 1617
epoch: 1000
next table: 2055
cur table: 2063
epoch: 1000
next table: 1670
cur table: 1694
epoch: 1000
next table: 2062
cur table: 2055
epoch: 1000
next table: 1643
cur table: 1670
epoch: 1000
next table: 2068
cur table: 2062
epoch: 1000
next table: 1659
cur table: 1643
epoch: 1000
next table: 2062
cur table: 2068
epoch: 1000
next table: 1627
cur table: 1659
epoch: 1000
next table: 2067
cur table: 2062
epoch: 1000
next table: 1671
cur table: 1627
epoch: 1000
next table: 2060
cur table: 2067
epoch: 1000
next table: 2070
cur table: 2060
epoch: 1000
next table: 1694
cur table: 1671
epoch: 1000
next table: 2060
cur table: 2070
epoch: 1000
next table: 1657
cur table: 1694
epoch: 1000
next table: 2057
cur table: 2060
epoch: 1000
next table: 1629
cur table: 1657
epoch: 1000
next table: 2056
cur table: 2057
epoch: 1000
next table: 1660
cur table: 1629
epoch: 1000
next table: 2067
cur table: 2056
epoch: 1000
next table: 1666
cur table: 1660
epoch: 1000
next table: 2058
cur table: 2067
epoch: 1000
next table: 1665
cur table: 1666
epoch: 1000
next table: 2064
cur table: 2058
epoch: 1000
next table: 1682
cur table: 1665
epoch: 1000
next table: 2063
cur table: 2064
epoch: 1000
next table: 2064
cur table: 2063
epoch: 1000
next table: 1660
cur table: 1682
epoch: 1000
next table: 2067
cur table: 2064
epoch: 1000
next table: 1680
cur table: 1660
epoch: 1000
next table: 2064
cur table: 2067
epoch: 1000
next table: 1629
cur table: 1680
epoch: 1000
next table: 2057
cur table: 2064
epoch: 1000
next table: 1701
cur table: 1629
epoch: 1000
next table: 2064
cur table: 2057
epoch: 1000
next table: 1611
cur table: 1701
epoch: 1000
next table: 2063
cur table: 2064
epoch: 1000
next table: 1664
cur table: 1611
epoch: 1000
next table: 2064
cur table: 2063
epoch: 1000
next table: 1649
cur table: 1664
epoch: 1000
next table: 2057
cur table: 2064
epoch: 1000
next table: 2068
cur table: 2057
epoch: 1000
next table: 1667
cur table: 1649
epoch: 1000
next table: 2059
cur table: 2068
epoch: 1000
next table: 1644
cur table: 1667
epoch: 1000
next table: 2062
cur table: 2059
epoch: 1000
next table: 1665
cur table: 1644
epoch: 1000
next table: 2059
cur table: 2062
epoch: 1000
next table: 1664
cur table: 1665
epoch: 1000
next table: 2072
cur table: 2059
epoch: 1000
next table: 1645
cur table: 1664
epoch: 1000
next table: 2055
cur table: 2072
epoch: 1000
next table: 1658
cur table: 1645
epoch: 1000
next table: 2070
cur table: 2055
epoch: 1000
next table: 2058
cur table: 2070
epoch: 1000
next table: 1674
cur table: 1658
epoch: 1000
next table: 2067
cur table: 2058
epoch: 1000
next table: 1619
cur table: 1674
epoch: 1000
next table: 2065
cur table: 2067
epoch: 1000
next table: 1637
cur table: 1619
epoch: 1000
next table: 2066
cur table: 2065
epoch: 1000
next table: 1673
cur table: 1637
epoch: 1000
next table: 2060
cur table: 2066
epoch: 1000
next table: 1668
cur table: 1673
epoch: 1000
next table: 2063
cur table: 2060
epoch: 1000
next table: 1643
cur table: 1668
epoch: 1000
next table: 2065
cur table: 2063
epoch: 1000
next table: 1671
cur table: 1643
epoch: 1000
next table: 2062
cur table: 2065
epoch: 1000
next table: 1637
cur table: 1671
epoch: 1000
next table: 2066
cur table: 2062
epoch: 1000
next table: 2062
cur table: 2066
epoch: 1000
next table: 1655
cur table: 1637
epoch: 1000
next table: 2068
cur table: 2062
epoch: 1000
next table: 1636
cur table: 1655
epoch: 1000
next table: 2069
cur table: 2068
epoch: 1000
next table: 1604
cur table: 1636
epoch: 1000
next table: 2060
cur table: 2069
epoch: 1000
next table: 1671
cur table: 1604
epoch: 1000
next table: 2070
cur table: 2060
epoch: 1000
next table: 1649
cur table: 1671
epoch: 1000
next table: 2060
cur table: 2070
epoch: 1000
next table: 1622
cur table: 1649
epoch: 1000
next table: 2066
cur table: 2060
epoch: 1000
next table: 1656
cur table: 1622
epoch: 1000
next table: 2067
cur table: 2066
epoch: 1000
next table: 2060
cur table: 2067
epoch: 1000
next table: 1650
cur table: 1656
epoch: 1000
next table: 2066
cur table: 2060
epoch: 1000
next table: 1643
cur table: 1650
epoch: 1000
next table: 2066
cur table: 2066
epoch: 1000
next table: 1673
cur table: 1643
epoch: 1000
next table: 2064
cur table: 2066
epoch: 1000
next table: 1670
cur table: 1673
epoch: 1000
next table: 2062
cur table: 2064
epoch: 1000
next table: 1634
cur table: 1670
epoch: 1000
next table: 2058
cur table: 2062
epoch: 1000
next table: 1637
cur table: 1634
epoch: 1000
next table: 2074
cur table: 2058
epoch: 1000
next table: 1671
cur table: 1637
epoch: 1000
next table: 2059
cur table: 2074
epoch: 1000
next table: 2065
cur table: 2059
epoch: 1000
next table: 1667
cur table: 1671
epoch: 1000
next table: 2067
cur table: 2065
epoch: 1000
next table: 1672
cur table: 1667
epoch: 1000
next table: 2064
cur table: 2067
epoch: 1000
next table: 1625
cur table: 1672
epoch: 1000
next table: 2066
cur table: 2064
epoch: 1000
next table: 1703
cur table: 1625
epoch: 1000
next table: 2064
cur table: 2066
epoch: 1000
next table: 1667
cur table: 1703
epoch: 1000
next table: 2060
cur table: 2064
epoch: 1000
next table: 1682
cur table: 1667
epoch: 1000
next table: 2068
cur table: 2060
epoch: 1000
next table: 1634
cur table: 1682
epoch: 1000
next table: 2052
cur table: 2068
epoch: 1000
next table: 2065
cur table: 2052
epoch: 1000
next table: 1675
cur table: 1634
epoch: 1000
next table: 2061
cur table: 2065
epoch: 1000
next table: 1660
cur table: 1675
epoch: 1000
next table: 2067
cur table: 2061
epoch: 1000
next table: 1666
cur table: 1660
epoch: 1000
next table: 2065
cur table: 2067
epoch: 1000
next table: 1648
cur table: 1666
epoch: 1000
next table: 2066
cur table: 2065
epoch: 1000
next table: 1680
cur table: 1648
epoch: 1000
next table: 2063
cur table: 2066
epoch: 1000
next table: 1641
cur table: 1680
epoch: 1000
next table: 2066
cur table: 2063
epoch: 1000
next table: 1662
cur table: 1641
epoch: 1000
next table: 2061
cur table: 2066
epoch: 1000
next table: 2055
cur table: 2061
epoch: 1000
next table: 1636
cur table: 1662
epoch: 1000
next table: 2067
cur table: 2055
epoch: 1000
next table: 1668
cur table: 1636
epoch: 1000
next table: 2066
cur table: 2067
epoch: 1000
next table: 1643
cur table: 1668
epoch: 1000
next table: 2065
cur table: 2066
epoch: 1000
next table: 1647
cur table: 1643
epoch: 1000
next table: 2063
cur table: 2065
epoch: 1000
next table: 1670
cur table: 1647
epoch: 1000
next table: 2067
cur table: 2063
epoch: 1000
next table: 1629
cur table: 1670
epoch: 1000
next table: 2056
cur table: 2067
epoch: 1000
next table: 2063
cur table: 2056
epoch: 1000
next table: 1657
cur table: 1629
epoch: 1000
next table: 2067
cur table: 2063
epoch: 1000
next table: 1637
cur table: 1657
epoch: 1000
next table: 2061
cur table: 2067
epoch: 1000
next table: 1643
cur table: 1637
epoch: 1000
next table: 2065
cur table: 2061
epoch: 1000
next table: 1666
cur table: 1643
epoch: 1000
next table: 2058
cur table: 2065
epoch: 1000
next table: 1665
cur table: 1666
epoch: 1000
next table: 2067
cur table: 2058
epoch: 1000
next table: 1644
cur table: 1665
epoch: 1000
next table: 2060
cur table: 2067
epoch: 1000
next table: 1660
cur table: 1644
epoch: 1000
next table: 2065
cur table: 2060
epoch: 1000
next table: 2062
cur table: 2065
epoch: 1000
next table: 1651
cur table: 1660
epoch: 1000
next table: 2066
cur table: 2062
epoch: 1000
next table: 1660
cur table: 1651
epoch: 1000
next table: 2058
cur table: 2066
epoch: 1000
next table: 1673
cur table: 1660
epoch: 1000
next table: 2065
cur table: 2058
epoch: 1000
next table: 1664
cur table: 1673
epoch: 1000
next table: 2058
cur table: 2065
epoch: 1000
next table: 1677
cur table: 1664
epoch: 1000
next table: 2069
cur table: 2058
epoch: 1000
next table: 1630
cur table: 1677
epoch: 1000
next table: 2059
cur table: 2069
epoch: 1000
next table: 2063
cur table: 2059
epoch: 1000
next table: 1656
cur table: 1630
epoch: 1000
next table: 2054
cur table: 2063
epoch: 1000
next table: 1643
cur table: 1656
epoch: 1000
next table: 2067
cur table: 2054
epoch: 1000
next table: 1668
cur table: 1643
epoch: 1000
next table: 2060
cur table: 2067
epoch: 1000
next table: 1648
cur table: 1668
epoch: 1000
next table: 2066
cur table: 2060
epoch: 1000
next table: 1672
cur table: 1648
epoch: 1000
next table: 2065
cur table: 2066
epoch: 1000
next table: 1653
cur table: 1672
epoch: 1000
next table: 2059
cur table: 2065
epoch: 1000
next table: 1634
cur table: 1653
epoch: 1000
next table: 2061
cur table: 2059
epoch: 1000
next table: 1658
cur table: 1634
epoch: 1000
next table: 2072
cur table: 2061
epoch: 1000
next table: 2060
cur table: 2072
epoch: 1000
next table: 1651
cur table: 1658
epoch: 1000
next table: 2071
cur table: 2060
epoch: 1000
next table: 1664
cur table: 1651
epoch: 1000
next table: 2058
cur table: 2071
epoch: 1000
next table: 1620
cur table: 1664
epoch: 1000
next table: 2063
cur table: 2058
epoch: 1000
next table: 1677
cur table: 1620
epoch: 1000
next table: 2067
cur table: 2063
epoch: 1000
next table: 1639
cur table: 1677
epoch: 1000
next table: 2064
cur table: 2067
epoch: 1000
next table: 1681
cur table: 1639
epoch: 1000
next table: 2064
cur table: 2064
epoch: 1000
next table: 1647
cur table: 1681
epoch: 1000
next table: 2061
cur table: 2064
epoch: 1000
next table: 2060
cur table: 2061
epoch: 1000
next table: 1657
cur table: 1647
epoch: 1000
next table: 2061
cur table: 2060
epoch: 1000
next table: 1638
cur table: 1657
epoch: 1000
next table: 2065
cur table: 2061
epoch: 1000
next table: 1680
cur table: 1638
epoch: 1000
next table: 2061
cur table: 2065
epoch: 1000
next table: 1644
cur table: 1680
epoch: 1000
next table: 2062
cur table: 2061
epoch: 1000
next table: 1655
cur table: 1644
epoch: 1000
next table: 2056
cur table: 2062
epoch: 1000
next table: 1636
cur table: 1655
epoch: 1000
next table: 2069
cur table: 2056
epoch: 1000
next table: 1650
cur table: 1636
epoch: 1000
next table: 2061
cur table: 2069
epoch: 1000
next table: 1648
cur table: 1650
epoch: 1000
next table: 2062
cur table: 2061
epoch: 1000
next table: 2062
cur table: 2062
epoch: 1000
next table: 1627
cur table: 1648
epoch: 1000
next table: 2066
cur table: 2062
epoch: 1000
next table: 1649
cur table: 1627
epoch: 1000
next table: 2067
cur table: 2066
epoch: 1000
next table: 1647
cur table: 1649
epoch: 1000
next table: 2064
cur table: 2067
epoch: 1000
next table: 1649
cur table: 1647
epoch: 1000
next table: 2058
cur table: 2064
epoch: 1000
next table: 1644
cur table: 1649
epoch: 1000
next table: 2066
cur table: 2058
epoch: 1000
next table: 1648
cur table: 1644
epoch: 1000
next table: 2062
cur table: 2066
epoch: 1000
next table: 1660
cur table: 1648
epoch: 1000
next table: 2056
cur table: 2062
epoch: 1000
next table: 1655
cur table: 1660
epoch: 1000
next table: 2071
cur table: 2056
epoch: 1000
next table: 2060
cur table: 2071
epoch: 1000
next table: 1682
cur table: 1655
epoch: 1000
next table: 2065
cur table: 2060
epoch: 1000
next table: 1640
cur table: 1682
epoch: 1000
next table: 2062
cur table: 2065
epoch: 1000
next table: 1662
cur table: 1640
epoch: 1000
next table: 2061
cur table: 2062
epoch: 1000
next table: 1660
cur table: 1662
epoch: 1000
next table: 2066
cur table: 2061
epoch: 1000
next table: 1654
cur table: 1660
epoch: 1000
next table: 2061
cur table: 2066
epoch: 1000
next table: 1699
cur table: 1654
epoch: 1000
next table: 2063
cur table: 2061
epoch: 1000
next table: 2067
cur table: 2063
epoch: 1000
next table: 1644
cur table: 1699
epoch: 1000
next table: 2060
cur table: 2067
epoch: 1000
next table: 1677
cur table: 1644
epoch: 1000
next table: 2063
cur table: 2060
epoch: 1000
next table: 1645
cur table: 1677
epoch: 1000
next table: 2056
cur table: 2063
epoch: 1000
next table: 1655
cur table: 1645
epoch: 1000
next table: 2069
cur table: 2056
epoch: 1000
next table: 1637
cur table: 1655
epoch: 1000
next table: 2060
cur table: 2069
epoch: 1000
next table: 1633
cur table: 1637
epoch: 1000
next table: 2065
cur table: 2060
epoch: 1000
next table: 1660
cur table: 1633
epoch: 1000
next table: 2061
cur table: 2065
epoch: 1000
next table: 2070
cur table: 2061
epoch: 1000
next table: 1650
cur table: 1660
epoch: 1000
next table: 2058
cur table: 2070
epoch: 1000
next table: 1636
cur table: 1650
epoch: 1000
next table: 2064
cur table: 2058
epoch: 1000
next table: 1663
cur table: 1636
epoch: 1000
next table: 2060
cur table: 2064
epoch: 1000
next table: 1638
cur table: 1663
epoch: 1000
next table: 2064
cur table: 2060
epoch: 1000
next table: 1660
cur table: 1638
epoch: 1000
next table: 2070
cur table: 2064
epoch: 1000
next table: 1653
cur table: 1660
epoch: 1000
next table: 2066
cur table: 2070
epoch: 1000
next table: 1655
cur table: 1653
epoch: 1000
next table: 2057
cur table: 2066
epoch: 1000
next table: 1654
cur table: 1655
epoch: 1000
next table: 2071
cur table: 2057
epoch: 1000
next table: 2064
cur table: 2071
epoch: 1000
next table: 1652
cur table: 1654
epoch: 1000
next table: 2065
cur table: 2064
epoch: 1000
next table: 1645
cur table: 1652
epoch: 1000
next table: 2054
cur table: 2065
epoch: 1000
next table: 1642
cur table: 1645
epoch: 1000
next table: 2061
cur table: 2054
epoch: 1000
next table: 1634
cur table: 1642
epoch: 1000
next table: 2066
cur table: 2061
epoch: 1000
next table: 1658
cur table: 1634
epoch: 1000
next table: 2061
cur table: 2066
epoch: 1000
next table: 1655
cur table: 1658
epoch: 1000
next table: 2063
cur table: 2061
epoch: 1000
next table: 1659
cur table: 1655
epoch: 1000
next table: 2064
cur table: 2063
epoch: 1000
next table: 1646
cur table: 1659
epoch: 1000
next table: 2060
cur table: 2064
epoch: 1000
next table: 2062
cur table: 2060
epoch: 1000
next table: 1650
cur table: 1646
epoch: 1000
next table: 2062
cur table: 2062
epoch: 1000
next table: 1633
cur table: 1650
epoch: 1000
next table: 2059
cur table: 2062
epoch: 1000
next table: 1659
cur table: 1633
epoch: 1000
next table: 2059
cur table: 2059
epoch: 1000
next table: 1697
cur table: 1659
epoch: 1000
next table: 2050
cur table: 2059
epoch: 1000
next table: 1628
cur table: 1697
epoch: 1000
next table: 2055
cur table: 2050
epoch: 1000
next table: 1637
cur table: 1628
epoch: 1000
next table: 2061
cur table: 2055
epoch: 1000
next table: 1662
cur table: 1637
epoch: 1000
next table: 2048
cur table: 2061
Heartbeat CPU 0 instructions: 20000002 cycles: 6626743 heartbeat IPC: 3.01831 cumulative IPC: 3.01807 (Simulation time: 0 hr 6 min 5 sec) 
epoch: 1000
next table: 2070
cur table: 2048
epoch: 1000
next table: 1639
cur table: 1662
epoch: 1000
next table: 2064
cur table: 2070
epoch: 1000
next table: 1656
cur table: 1639
epoch: 1000
next table: 2066
cur table: 2064
epoch: 1000
next table: 1672
cur table: 1656
epoch: 1000
next table: 2063
cur table: 2066
epoch: 1000
next table: 1640
cur table: 1672
epoch: 1000
next table: 2059
cur table: 2063
epoch: 1000
next table: 1639
cur table: 1640
epoch: 1000
next table: 2062
cur table: 2059
epoch: 1000
next table: 1630
cur table: 1639
epoch: 1000
next table: 2067
cur table: 2062
epoch: 1000
next table: 1649
cur table: 1630
epoch: 1000
next table: 2066
cur table: 2067
epoch: 1000
next table: 2069
cur table: 2066
epoch: 1000
next table: 1647
cur table: 1649
epoch: 1000
next table: 2053
cur table: 2069
epoch: 1000
next table: 1666
cur table: 1647
epoch: 1000
next table: 2060
cur table: 2053
epoch: 1000
next table: 1646
cur table: 1666
epoch: 1000
next table: 2070
cur table: 2060
epoch: 1000
next table: 1674
cur table: 1646
epoch: 1000
next table: 2064
cur table: 2070
epoch: 1000
next table: 1681
cur table: 1674
epoch: 1000
next table: 2065
cur table: 2064
epoch: 1000
next table: 1655
cur table: 1681
epoch: 1000
next table: 2067
cur table: 2065
epoch: 1000
next table: 1672
cur table: 1655
epoch: 1000
next table: 2066
cur table: 2067
epoch: 1000
next table: 1664
cur table: 1672
epoch: 1000
next table: 2061
cur table: 2066
epoch: 1000
next table: 2063
cur table: 2061
epoch: 1000
next table: 1672
cur table: 1664
epoch: 1000
next table: 2062
cur table: 2063
epoch: 1000
next table: 1664
cur table: 1672
epoch: 1000
next table: 2067
cur table: 2062
epoch: 1000
next table: 1669
cur table: 1664
epoch: 1000
next table: 2063
cur table: 2067
epoch: 1000
next table: 1653
cur table: 1669
epoch: 1000
next table: 2062
cur table: 2063
epoch: 1000
next table: 1669
cur table: 1653
epoch: 1000
next table: 2068
cur table: 2062
epoch: 1000
next table: 1614
cur table: 1669
epoch: 1000
next table: 2064
cur table: 2068
epoch: 1000
next table: 1633
cur table: 1614
epoch: 1000
next table: 2067
cur table: 2064
epoch: 1000
next table: 1648
cur table: 1633
epoch: 1000
next table: 2062
cur table: 2067
epoch: 1000
next table: 2060
cur table: 2062
epoch: 1000
next table: 1656
cur table: 1648
epoch: 1000
next table: 2071
cur table: 2060
epoch: 1000
next table: 1664
cur table: 1656
epoch: 1000
next table: 2056
cur table: 2071
epoch: 1000
next table: 1664
cur table: 1664
epoch: 1000
next table: 2072
cur table: 2056
epoch: 1000
next table: 1637
cur table: 1664
epoch: 1000
next table: 2060
cur table: 2072
epoch: 1000
next table: 1679
cur table: 1637
epoch: 1000
next table: 2057
cur table: 2060
epoch: 1000
next table: 1645
cur table: 1679
epoch: 1000
next table: 2059
cur table: 2057
epoch: 1000
next table: 1667
cur table: 1645
epoch: 1000
next table: 2066
cur table: 2059
epoch: 1000
next table: 2058
cur table: 2066
epoch: 1000
next table: 1621
cur table: 1667
epoch: 1000
next table: 2071
cur table: 2058
epoch: 1000
next table: 1685
cur table: 1621
epoch: 1000
next table: 2061
cur table: 2071
epoch: 1000
next table: 1637
cur table: 1685
epoch: 1000
next table: 2069
cur table: 2061
epoch: 1000
next table: 1674
cur table: 1637
epoch: 1000
next table: 2064
cur table: 2069
epoch: 1000
next table: 1648
cur table: 1674
epoch: 1000
next table: 2063
cur table: 2064
epoch: 1000
next table: 1673
cur table: 1648
epoch: 1000
next table: 2060
cur table: 2063
epoch: 1000
next table: 1655
cur table: 1673
epoch: 1000
next table: 2063
cur table: 2060
epoch: 1000
next table: 1660
cur table: 1655
epoch: 1000
next table: 2068
cur table: 2063
epoch: 1000
next table: 2064
cur table: 2068
epoch: 1000
next table: 1675
cur table: 1660
epoch: 1000
next table: 2061
cur table: 2064
epoch: 1000
next table: 1643
cur table: 1675
epoch: 1000
next table: 2072
cur table: 2061
epoch: 1000
next table: 1655
cur table: 1643
epoch: 1000
next table: 2054
cur table: 2072
epoch: 1000
next table: 1667
cur table: 1655
epoch: 1000
next table: 2064
cur table: 2054
epoch: 1000
next table: 1639
cur table: 1667
epoch: 1000
next table: 2061
cur table: 2064
epoch: 1000
next table: 1661
cur table: 1639
epoch: 1000
next table: 2058
cur table: 2061
epoch: 1000
next table: 1644
cur table: 1661
epoch: 1000
next table: 2060
cur table: 2058
epoch: 1000
next table: 2060
cur table: 2060
epoch: 1000
next table: 1647
cur table: 1644
epoch: 1000
next table: 2065
cur table: 2060
epoch: 1000
next table: 1632
cur table: 1647
epoch: 1000
next table: 2068
cur table: 2065
epoch: 1000
next table: 1658
cur table: 1632
epoch: 1000
next table: 2062
cur table: 2068
epoch: 1000
next table: 1646
cur table: 1658
epoch: 1000
next table: 2069
cur table: 2062
epoch: 1000
next table: 1643
cur table: 1646
epoch: 1000
next table: 2056
cur table: 2069
epoch: 1000
next table: 1681
cur table: 1643
epoch: 1000
next table: 2067
cur table: 2056
epoch: 1000
next table: 1657
cur table: 1681
epoch: 1000
next table: 2062
cur table: 2067
epoch: 1000
next table: 1668
cur table: 1657
epoch: 1000
next table: 2065
cur table: 2062
epoch: 1000
next table: 2061
cur table: 2065
epoch: 1000
next table: 1630
cur table: 1668
epoch: 1000
next table: 2068
cur table: 2061
epoch: 1000
next table: 1671
cur table: 1630
epoch: 1000
next table: 2059
cur table: 2068
epoch: 1000
next table: 1642
cur table: 1671
epoch: 1000
next table: 2068
cur table: 2059
epoch: 1000
next table: 1682
cur table: 1642
epoch: 1000
next table: 2065
cur table: 2068
epoch: 1000
next table: 1637
cur table: 1682
epoch: 1000
next table: 2067
cur table: 2065
epoch: 1000
next table: 1665
cur table: 1637
epoch: 1000
next table: 2062
cur table: 2067
epoch: 1000
next table: 1676
cur table: 1665
epoch: 1000
next table: 2064
cur table: 2062
epoch: 1000
next table: 2060
cur table: 2064
epoch: 1000
next table: 1694
cur table: 1676
epoch: 1000
next table: 2064
cur table: 2060
epoch: 1000
next table: 1641
cur table: 1694
epoch: 1000
next table: 2063
cur table: 2064
epoch: 1000
next table: 1677
cur table: 1641
epoch: 1000
next table: 2058
cur table: 2063
epoch: 1000
next table: 1654
cur table: 1677
epoch: 1000
next table: 2062
cur table: 2058
epoch: 1000
next table: 1651
cur table: 1654
epoch: 1000
next table: 2062
cur table: 2062
epoch: 1000
next table: 1629
cur table: 1651
epoch: 1000
next table: 2049
cur table: 2062
epoch: 1000
next table: 2063
cur table: 2049
epoch: 1000
next table: 1646
cur table: 1629
epoch: 1000
next table: 2058
cur table: 2063
epoch: 1000
next table: 1626
cur table: 1646
epoch: 1000
next table: 2066
cur table: 2058
epoch: 1000
next table: 1668
cur table: 1626
epoch: 1000
next table: 2061
cur table: 2066
epoch: 1000
next table: 1650
cur table: 1668
epoch: 1000
next table: 2064
cur table: 2061
epoch: 1000
next table: 1679
cur table: 1650
epoch: 1000
next table: 2061
cur table: 2064
epoch: 1000
next table: 1655
cur table: 1679
epoch: 1000
next table: 2069
cur table: 2061
epoch: 1000
next table: 1672
cur table: 1655
epoch: 1000
next table: 2056
cur table: 2069
epoch: 1000
next table: 1655
cur table: 1672
epoch: 1000
next table: 2073
cur table: 2056
epoch: 1000
next table: 2061
cur table: 2073
epoch: 1000
next table: 1640
cur table: 1655
epoch: 1000
next table: 2067
cur table: 2061
epoch: 1000
next table: 1646
cur table: 1640
epoch: 1000
next table: 2062
cur table: 2067
epoch: 1000
next table: 1643
cur table: 1646
epoch: 1000
next table: 2061
cur table: 2062
epoch: 1000
next table: 1646
cur table: 1643
epoch: 1000
next table: 2056
cur table: 2061
epoch: 1000
next table: 1665
cur table: 1646
epoch: 1000
next table: 2063
cur table: 2056
epoch: 1000
next table: 1661
cur table: 1665
epoch: 1000
next table: 2064
cur table: 2063
epoch: 1000
next table: 2059
cur table: 2064
epoch: 1000
next table: 1666
cur table: 1661
epoch: 1000
next table: 2062
cur table: 2059
epoch: 1000
next table: 1645
cur table: 1666
epoch: 1000
next table: 2064
cur table: 2062
epoch: 1000
next table: 1671
cur table: 1645
epoch: 1000
next table: 2062
cur table: 2064
epoch: 1000
next table: 1625
cur table: 1671
epoch: 1000
next table: 2062
cur table: 2062
epoch: 1000
next table: 1648
cur table: 1625
epoch: 1000
next table: 2065
cur table: 2062
epoch: 1000
next table: 1668
cur table: 1648
epoch: 1000
next table: 2062
cur table: 2065
epoch: 1000
next table: 1695
cur table: 1668
epoch: 1000
next table: 2056
cur table: 2062
epoch: 1000
next table: 1649
cur table: 1695
epoch: 1000
next table: 2060
cur table: 2056
epoch: 1000
next table: 2068
cur table: 2060
epoch: 1000
next table: 1656
cur table: 1649
epoch: 1000
next table: 2066
cur table: 2068
epoch: 1000
next table: 1635
cur table: 1656
epoch: 1000
next table: 2063
cur table: 2066
epoch: 1000
next table: 1648
cur table: 1635
epoch: 1000
next table: 2069
cur table: 2063
epoch: 1000
next table: 1667
cur table: 1648
epoch: 1000
next table: 2060
cur table: 2069
epoch: 1000
next table: 1614
cur table: 1667
epoch: 1000
next table: 2067
cur table: 2060
epoch: 1000
next table: 1669
cur table: 1614
epoch: 1000
next table: 2064
cur table: 2067
epoch: 1000
next table: 1652
cur table: 1669
epoch: 1000
next table: 2070
cur table: 2064
epoch: 1000
next table: 1665
cur table: 1652
epoch: 1000
next table: 2054
cur table: 2070
epoch: 1000
next table: 2061
cur table: 2054
epoch: 1000
next table: 1641
cur table: 1665
epoch: 1000
next table: 2061
cur table: 2061
epoch: 1000
next table: 1643
cur table: 1641
epoch: 1000
next table: 2062
cur table: 2061
epoch: 1000
next table: 1662
cur table: 1643
epoch: 1000
next table: 2061
cur table: 2062
epoch: 1000
next table: 1655
cur table: 1662
epoch: 1000
next table: 2065
cur table: 2061
epoch: 1000
next table: 1625
cur table: 1655
epoch: 1000
next table: 2061
cur table: 2065
epoch: 1000
next table: 1651
cur table: 1625
epoch: 1000
next table: 2069
cur table: 2061
epoch: 1000
next table: 1657
cur table: 1651
epoch: 1000
next table: 2059
cur table: 2069
epoch: 1000
next table: 2070
cur table: 2059
epoch: 1000
next table: 1659
cur table: 1657
epoch: 1000
next table: 2055
cur table: 2070
epoch: 1000
next table: 1658
cur table: 1659
epoch: 1000
next table: 2069
cur table: 2055
epoch: 1000
next table: 1658
cur table: 1658
epoch: 1000
next table: 2058
cur table: 2069
epoch: 1000
next table: 1643
cur table: 1658
epoch: 1000
next table: 2065
cur table: 2058
epoch: 1000
next table: 1668
cur table: 1643
epoch: 1000
next table: 2067
cur table: 2065
epoch: 1000
next table: 1658
cur table: 1668
epoch: 1000
next table: 2064
cur table: 2067
epoch: 1000
next table: 1647
cur table: 1658
epoch: 1000
next table: 2063
cur table: 2064
epoch: 1000
next table: 1652
cur table: 1647
epoch: 1000
next table: 2065
cur table: 2063
epoch: 1000
next table: 2056
cur table: 2065
epoch: 1000
next table: 1645
cur table: 1652
epoch: 1000
next table: 2075
cur table: 2056
epoch: 1000
next table: 1659
cur table: 1645
epoch: 1000
next table: 2059
cur table: 2075
epoch: 1000
next table: 1649
cur table: 1659
epoch: 1000
next table: 2059
cur table: 2059
epoch: 1000
next table: 1659
cur table: 1649
epoch: 1000
next table: 2062
cur table: 2059
epoch: 1000
next table: 1651
cur table: 1659
epoch: 1000
next table: 2057
cur table: 2062
epoch: 1000
next table: 1625
cur table: 1651
epoch: 1000
next table: 2042
cur table: 2057
epoch: 1000
next table: 2069
cur table: 2042
epoch: 1000
next table: 1653
cur table: 1625
epoch: 1000
next table: 2060
cur table: 2069
epoch: 1000
next table: 1663
cur table: 1653
epoch: 1000
next table: 2072
cur table: 2060
epoch: 1000
next table: 1675
cur table: 1663
epoch: 1000
next table: 2053
cur table: 2072
epoch: 1000
next table: 1643
cur table: 1675
epoch: 1000
next table: 2067
cur table: 2053
epoch: 1000
next table: 1650
cur table: 1643
epoch: 1000
next table: 2062
cur table: 2067
epoch: 1000
next table: 1647
cur table: 1650
epoch: 1000
next table: 2063
cur table: 2062
epoch: 1000
next table: 1674
cur table: 1647
epoch: 1000
next table: 2066
cur table: 2063
epoch: 1000
next table: 1680
cur table: 1674
epoch: 1000
next table: 2065
cur table: 2066
epoch: 1000
next table: 2061
cur table: 2065
epoch: 1000
next table: 1657
cur table: 1680
epoch: 1000
next table: 2064
cur table: 2061
epoch: 1000
next table: 1656
cur table: 1657
epoch: 1000
next table: 2055
cur table: 2064
epoch: 1000
next table: 1652
cur table: 1656
epoch: 1000
next table: 2061
cur table: 2055
epoch: 1000
next table: 1670
cur table: 1652
epoch: 1000
next table: 2060
cur table: 2061
epoch: 1000
next table: 1646
cur table: 1670
epoch: 1000
next table: 2068
cur table: 2060
epoch: 1000
next table: 1662
cur table: 1646
epoch: 1000
next table: 2061
cur table: 2068
epoch: 1000
next table: 1663
cur table: 1662
epoch: 1000
next table: 2064
cur table: 2061
epoch: 1000
next table: 2062
cur table: 2064
epoch: 1000
next table: 1672
cur table: 1663
epoch: 1000
next table: 2065
cur table: 2062
epoch: 1000
next table: 1649
cur table: 1672
epoch: 1000
next table: 2059
cur table: 2065
epoch: 1000
next table: 1640
cur table: 1649
epoch: 1000
next table: 2068
cur table: 2059
epoch: 1000
next table: 1643
cur table: 1640
epoch: 1000
next table: 2058
cur table: 2068
epoch: 1000
next table: 1622
cur table: 1643
epoch: 1000
next table: 2068
cur table: 2058
epoch: 1000
next table: 1636
cur table: 1622
epoch: 1000
next table: 2059
cur table: 2068
epoch: 1000
next table: 1659
cur table: 1636
epoch: 1000
next table: 2063
cur table: 2059
epoch: 1000
next table: 2060
cur table: 2063
epoch: 1000
next table: 1659
cur table: 1659
epoch: 1000
next table: 2063
cur table: 2060
epoch: 1000
next table: 1669
cur table: 1659
epoch: 1000
next table: 2060
cur table: 2063
epoch: 1000
next table: 1677
cur table: 1669
epoch: 1000
next table: 2064
cur table: 2060
epoch: 1000
next table: 1639
cur table: 1677
epoch: 1000
next table: 2063
cur table: 2064
epoch: 1000
next table: 1681
cur table: 1639
epoch: 1000
next table: 2061
cur table: 2063
epoch: 1000
next table: 1645
cur table: 1681
epoch: 1000
next table: 2062
cur table: 2061
epoch: 1000
next table: 2067
cur table: 2062
epoch: 1000
next table: 1657
cur table: 1645
epoch: 1000
next table: 2054
cur table: 2067
epoch: 1000
next table: 1651
cur table: 1657
epoch: 1000
next table: 2063
cur table: 2054
epoch: 1000
next table: 1626
cur table: 1651
epoch: 1000
next table: 2060
cur table: 2063
epoch: 1000
next table: 1655
cur table: 1626
epoch: 1000
next table: 2063
cur table: 2060
epoch: 1000
next table: 1673
cur table: 1655
epoch: 1000
next table: 2067
cur table: 2063
epoch: 1000
next table: 1633
cur table: 1673
epoch: 1000
next table: 2059
cur table: 2067
epoch: 1000
next table: 1668
cur table: 1633
epoch: 1000
next table: 2052
cur table: 2059
epoch: 1000
next table: 2066
cur table: 2052
epoch: 1000
next table: 1659
cur table: 1668
epoch: 1000
next table: 2065
cur table: 2066
epoch: 1000
next table: 1663
cur table: 1659
epoch: 1000
next table: 2059
cur table: 2065
epoch: 1000
next table: 1638
cur table: 1663
epoch: 1000
next table: 2063
cur table: 2059
epoch: 1000
next table: 1657
cur table: 1638
epoch: 1000
next table: 2057
cur table: 2063
epoch: 1000
next table: 1659
cur table: 1657
epoch: 1000
next table: 2060
cur table: 2057
epoch: 1000
next table: 1636
cur table: 1659
epoch: 1000
next table: 2051
cur table: 2060
epoch: 1000
next table: 1686
cur table: 1636
epoch: 1000
next table: 2061
cur table: 2051
epoch: 1000
next table: 1656
cur table: 1686
epoch: 1000
next table: 2056
cur table: 2061
epoch: 1000
next table: 2058
cur table: 2056
epoch: 1000
next table: 1679
cur table: 1656
epoch: 1000
next table: 2072
cur table: 2058
epoch: 1000
next table: 1687
cur table: 1679
epoch: 1000
next table: 2056
cur table: 2072
epoch: 1000
next table: 1652
cur table: 1687
epoch: 1000
next table: 2069
cur table: 2056
epoch: 1000
next table: 1688
cur table: 1652
epoch: 1000
next table: 2056
cur table: 2069
epoch: 1000
next table: 1621
cur table: 1688
epoch: 1000
next table: 2066
cur table: 2056
epoch: 1000
next table: 1673
cur table: 1621
epoch: 1000
next table: 2062
cur table: 2066
epoch: 1000
next table: 1652
cur table: 1673
epoch: 1000
next table: 2063
cur table: 2062
epoch: 1000
next table: 2061
cur table: 2063
epoch: 1000
next table: 1659
cur table: 1652
Heartbeat CPU 0 instructions: 30000003 cycles: 9940327 heartbeat IPC: 3.01788 cumulative IPC: 3.01801 (Simulation time: 0 hr 9 min 5 sec) 
epoch: 1000
next table: 2064
cur table: 2061
epoch: 1000
next table: 1631
cur table: 1659
epoch: 1000
next table: 2058
cur table: 2064
epoch: 1000
next table: 1672
cur table: 1631
epoch: 1000
next table: 2067
cur table: 2058
epoch: 1000
next table: 1676
cur table: 1672
epoch: 1000
next table: 2058
cur table: 2067
epoch: 1000
next table: 1638
cur table: 1676
epoch: 1000
next table: 2064
cur table: 2058
epoch: 1000
next table: 1641
cur table: 1638
epoch: 1000
next table: 2064
cur table: 2064
epoch: 1000
next table: 1630
cur table: 1641
epoch: 1000
next table: 2066
cur table: 2064
epoch: 1000
next table: 2055
cur table: 2066
epoch: 1000
next table: 1654
cur table: 1630
epoch: 1000
next table: 2070
cur table: 2055
epoch: 1000
next table: 1650
cur table: 1654
epoch: 1000
next table: 2059
cur table: 2070
epoch: 1000
next table: 1665
cur table: 1650
epoch: 1000
next table: 2065
cur table: 2059
epoch: 1000
next table: 1654
cur table: 1665
epoch: 1000
next table: 2069
cur table: 2065
epoch: 1000
next table: 1659
cur table: 1654
epoch: 1000
next table: 2061
cur table: 2069
epoch: 1000
next table: 1646
cur table: 1659
epoch: 1000
next table: 2064
cur table: 2061
epoch: 1000
next table: 1666
cur table: 1646
epoch: 1000
next table: 2068
cur table: 2064
epoch: 1000
next table: 1657
cur table: 1666
epoch: 1000
next table: 2062
cur table: 2068
epoch: 1000
next table: 2068
cur table: 2062
epoch: 1000
next table: 1652
cur table: 1657
epoch: 1000
next table: 2061
cur table: 2068
epoch: 1000
next table: 1620
cur table: 1652
epoch: 1000
next table: 2053
cur table: 2061
epoch: 1000
next table: 1636
cur table: 1620
epoch: 1000
next table: 2064
cur table: 2053
epoch: 1000
next table: 1652
cur table: 1636
epoch: 1000
next table: 2054
cur table: 2064
epoch: 1000
next table: 1661
cur table: 1652
epoch: 1000
next table: 2064
cur table: 2054
epoch: 1000
next table: 1647
cur table: 1661
epoch: 1000
next table: 2063
cur table: 2064
epoch: 1000
next table: 1652
cur table: 1647
epoch: 1000
next table: 2059
cur table: 2063
epoch: 1000
next table: 2068
cur table: 2059
epoch: 1000
next table: 1664
cur table: 1652
epoch: 1000
next table: 2062
cur table: 2068
epoch: 1000
next table: 1677
cur table: 1664
epoch: 1000
next table: 2060
cur table: 2062
epoch: 1000
next table: 1648
cur table: 1677
epoch: 1000
next table: 2063
cur table: 2060
epoch: 1000
next table: 1644
cur table: 1648
epoch: 1000
next table: 2061
cur table: 2063
epoch: 1000
next table: 1666
cur table: 1644
epoch: 1000
next table: 2063
cur table: 2061
epoch: 1000
next table: 1663
cur table: 1666
epoch: 1000
next table: 2057
cur table: 2063
epoch: 1000
next table: 1687
cur table: 1663
epoch: 1000
next table: 2065
cur table: 2057
epoch: 1000
next table: 1630
cur table: 1687
epoch: 1000
next table: 2068
cur table: 2065
epoch: 1000
next table: 2062
cur table: 2068
epoch: 1000
next table: 1653
cur table: 1630
epoch: 1000
next table: 2069
cur table: 2062
epoch: 1000
next table: 1653
cur table: 1653
epoch: 1000
next table: 2062
cur table: 2069
epoch: 1000
next table: 1669
cur table: 1653
epoch: 1000
next table: 2062
cur table: 2062
epoch: 1000
next table: 1680
cur table: 1669
epoch: 1000
next table: 2055
cur table: 2062
epoch: 1000
next table: 1670
cur table: 1680
epoch: 1000
next table: 2060
cur table: 2055
epoch: 1000
next table: 1641
cur table: 1670
epoch: 1000
next table: 2068
cur table: 2060
epoch: 1000
next table: 2061
cur table: 2068
epoch: 1000
next table: 1661
cur table: 1641
epoch: 1000
next table: 2066
cur table: 2061
epoch: 1000
next table: 1678
cur table: 1661
epoch: 1000
next table: 2070
cur table: 2066
epoch: 1000
next table: 1638
cur table: 1678
epoch: 1000
next table: 2057
cur table: 2070
epoch: 1000
next table: 1671
cur table: 1638
epoch: 1000
next table: 2064
cur table: 2057
epoch: 1000
next table: 1656
cur table: 1671
epoch: 1000
next table: 2060
cur table: 2064
epoch: 1000
next table: 1616
cur table: 1656
epoch: 1000
next table: 2066
cur table: 2060
epoch: 1000
next table: 1652
cur table: 1616
epoch: 1000
next table: 2066
cur table: 2066
epoch: 1000
next table: 1642
cur table: 1652
epoch: 1000
next table: 2064
cur table: 2066
epoch: 1000
next table: 2064
cur table: 2064
epoch: 1000
next table: 1670
cur table: 1642
epoch: 1000
next table: 2069
cur table: 2064
epoch: 1000
next table: 1641
cur table: 1670
epoch: 1000
next table: 2060
cur table: 2069
epoch: 1000
next table: 1648
cur table: 1641
epoch: 1000
next table: 2062
cur table: 2060
epoch: 1000
next table: 1664
cur table: 1648
epoch: 1000
next table: 2059
cur table: 2062
epoch: 1000
next table: 1646
cur table: 1664
epoch: 1000
next table: 2065
cur table: 2059
epoch: 1000
next table: 1676
cur table: 1646
epoch: 1000
next table: 2064
cur table: 2065
epoch: 1000
next table: 1662
cur table: 1676
epoch: 1000
next table: 2064
cur table: 2064
epoch: 1000
next table: 2067
cur table: 2064
epoch: 1000
next table: 1622
cur table: 1662
epoch: 1000
next table: 2061
cur table: 2067
epoch: 1000
next table: 1637
cur table: 1622
epoch: 1000
next table: 2061
cur table: 2061
epoch: 1000
next table: 1666
cur table: 1637
epoch: 1000
next table: 2065
cur table: 2061
epoch: 1000
next table: 1660
cur table: 1666
epoch: 1000
next table: 2063
cur table: 2065
epoch: 1000
next table: 1657
cur table: 1660
epoch: 1000
next table: 2067
cur table: 2063
epoch: 1000
next table: 1656
cur table: 1657
epoch: 1000
next table: 2059
cur table: 2067
epoch: 1000
next table: 1663
cur table: 1656
epoch: 1000
next table: 2062
cur table: 2059
epoch: 1000
next table: 1656
cur table: 1663
epoch: 1000
next table: 2061
cur table: 2062
epoch: 1000
next table: 2070
cur table: 2061
epoch: 1000
next table: 1666
cur table: 1656
epoch: 1000
next table: 2055
cur table: 2070
epoch: 1000
next table: 1638
cur table: 1666
epoch: 1000
next table: 2070
cur table: 2055
epoch: 1000
next table: 1657
cur table: 1638
epoch: 1000
next table: 2066
cur table: 2070
epoch: 1000
next table: 1646
cur table: 1657
epoch: 1000
next table: 2058
cur table: 2066
epoch: 1000
next table: 1666
cur table: 1646
epoch: 1000
next table: 2058
cur table: 2058
epoch: 1000
next table: 1663
cur table: 1666
epoch: 1000
next table: 2062
cur table: 2058
epoch: 1000
next table: 1647
cur table: 1663
epoch: 1000
next table: 2061
cur table: 2062
epoch: 1000
next table: 2071
cur table: 2061
epoch: 1000
next table: 1628
cur table: 1647
epoch: 1000
next table: 2057
cur table: 2071
epoch: 1000
next table: 1691
cur table: 1628
epoch: 1000
next table: 2067
cur table: 2057
epoch: 1000
next table: 1641
cur table: 1691
epoch: 1000
next table: 2056
cur table: 2067
epoch: 1000
next table: 1669
cur table: 1641
epoch: 1000
next table: 2066
cur table: 2056
epoch: 1000
next table: 1643
cur table: 1669
epoch: 1000
next table: 2064
cur table: 2066
epoch: 1000
next table: 1673
cur table: 1643
epoch: 1000
next table: 2067
cur table: 2064
epoch: 1000
next table: 1673
cur table: 1673
epoch: 1000
next table: 2060
cur table: 2067
epoch: 1000
next table: 2066
cur table: 2060
epoch: 1000
next table: 1647
cur table: 1673
epoch: 1000
next table: 2064
cur table: 2066
epoch: 1000
next table: 1653
cur table: 1647
epoch: 1000
next table: 2065
cur table: 2064
epoch: 1000
next table: 1659
cur table: 1653
epoch: 1000
next table: 2060
cur table: 2065
epoch: 1000
next table: 1648
cur table: 1659
epoch: 1000
next table: 2065
cur table: 2060
epoch: 1000
next table: 1644
cur table: 1648
epoch: 1000
next table: 2067
cur table: 2065
epoch: 1000
next table: 1618
cur table: 1644
epoch: 1000
next table: 2067
cur table: 2067
epoch: 1000
next table: 1644
cur table: 1618
epoch: 1000
next table: 2064
cur table: 2067
epoch: 1000
next table: 1645
cur table: 1644
epoch: 1000
next table: 2065
cur table: 2064
epoch: 1000
next table: 2057
cur table: 2065
epoch: 1000
next table: 1655
cur table: 1645
epoch: 1000
next table: 2070
cur table: 2057
epoch: 1000
next table: 1649
cur table: 1655
epoch: 1000
next table: 2058
cur table: 2070
epoch: 1000
next table: 1667
cur table: 1649
epoch: 1000
next table: 2061
cur table: 2058
epoch: 1000
next table: 1669
cur table: 1667
epoch: 1000
next table: 2061
cur table: 2061
epoch: 1000
next table: 1648
cur table: 1669
epoch: 1000
next table: 2061
cur table: 2061
epoch: 1000
next table: 1620
cur table: 1648
epoch: 1000
next table: 2065
cur table: 2061
epoch: 1000
next table: 1662
cur table: 1620
epoch: 1000
next table: 2067
cur table: 2065
epoch: 1000
next table: 2059
cur table: 2067
epoch: 1000
next table: 1655
cur table: 1662
epoch: 1000
next table: 2064
cur table: 2059
epoch: 1000
next table: 1649
cur table: 1655
epoch: 1000
next table: 2054
cur table: 2064
epoch: 1000
next table: 1669
cur table: 1649
epoch: 1000
next table: 2073
cur table: 2054
epoch: 1000
next table: 1656
cur table: 1669
epoch: 1000
next table: 2051
cur table: 2073
epoch: 1000
next table: 1649
cur table: 1656
epoch: 1000
next table: 2065
cur table: 2051
epoch: 1000
next table: 1649
cur table: 1649
epoch: 1000
next table: 2055
cur table: 2065
epoch: 1000
next table: 1628
cur table: 1649
epoch: 1000
next table: 2061
cur table: 2055
epoch: 1000
next table: 2065
cur table: 2061
epoch: 1000
next table: 1643
cur table: 1628
epoch: 1000
next table: 2062
cur table: 2065
epoch: 1000
next table: 1648
cur table: 1643
epoch: 1000
next table: 2064
cur table: 2062
epoch: 1000
next table: 1616
cur table: 1648
epoch: 1000
next table: 2056
cur table: 2064
epoch: 1000
next table: 1643
cur table: 1616
epoch: 1000
next table: 2063
cur table: 2056
epoch: 1000
next table: 1672
cur table: 1643
epoch: 1000
next table: 2061
cur table: 2063
epoch: 1000
next table: 1627
cur table: 1672
epoch: 1000
next table: 2065
cur table: 2061
epoch: 1000
next table: 1681
cur table: 1627
epoch: 1000
next table: 2066
cur table: 2065
epoch: 1000
next table: 2059
cur table: 2066
epoch: 1000
next table: 1669
cur table: 1681
epoch: 1000
next table: 2068
cur table: 2059
epoch: 1000
next table: 1665
cur table: 1669
epoch: 1000
next table: 2061
cur table: 2068
epoch: 1000
next table: 1673
cur table: 1665
epoch: 1000
next table: 2055
cur table: 2061
epoch: 1000
next table: 1647
cur table: 1673
epoch: 1000
next table: 2063
cur table: 2055
epoch: 1000
next table: 1667
cur table: 1647
epoch: 1000
next table: 2058
cur table: 2063
epoch: 1000
next table: 1635
cur table: 1667
epoch: 1000
next table: 2066
cur table: 2058
epoch: 1000
next table: 1676
cur table: 1635
epoch: 1000
next table: 2064
cur table: 2066
epoch: 1000
next table: 2056
cur table: 2064
epoch: 1000
next table: 1697
cur table: 1676
epoch: 1000
next table: 2061
cur table: 2056
epoch: 1000
next table: 1663
cur table: 1697
epoch: 1000
next table: 2064
cur table: 2061
epoch: 1000
next table: 1659
cur table: 1663
epoch: 1000
next table: 2063
cur table: 2064
epoch: 1000
next table: 1651
cur table: 1659
epoch: 1000
next table: 2063
cur table: 2063
epoch: 1000
next table: 1657
cur table: 1651
epoch: 1000
next table: 2057
cur table: 2063
epoch: 1000
next table: 1652
cur table: 1657
epoch: 1000
next table: 2054
cur table: 2057
epoch: 1000
next table: 1651
cur table: 1652
epoch: 1000
next table: 2064
cur table: 2054
epoch: 1000
next table: 2056
cur table: 2064
epoch: 1000
next table: 1651
cur table: 1651
epoch: 1000
next table: 2065
cur table: 2056
epoch: 1000
next table: 1644
cur table: 1651
epoch: 1000
next table: 2064
cur table: 2065
epoch: 1000
next table: 1645
cur table: 1644
epoch: 1000
next table: 2060
cur table: 2064
epoch: 1000
next table: 1657
cur table: 1645
epoch: 1000
next table: 2067
cur table: 2060
epoch: 1000
next table: 1648
cur table: 1657
epoch: 1000
next table: 2057
cur table: 2067
epoch: 1000
next table: 1649
cur table: 1648
epoch: 1000
next table: 2067
cur table: 2057
epoch: 1000
next table: 1648
cur table: 1649
epoch: 1000
next table: 2064
cur table: 2067
epoch: 1000
next table: 2060
cur table: 2064
epoch: 1000
next table: 1632
cur table: 1648
epoch: 1000
next table: 2058
cur table: 2060
epoch: 1000
next table: 1638
cur table: 1632
epoch: 1000
next table: 2062
cur table: 2058
epoch: 1000
next table: 1665
cur table: 1638
epoch: 1000
next table: 2062
cur table: 2062
epoch: 1000
next table: 1666
cur table: 1665
epoch: 1000
next table: 2064
cur table: 2062
epoch: 1000
next table: 1693
cur table: 1666
epoch: 1000
next table: 2056
cur table: 2064
epoch: 1000
next table: 1638
cur table: 1693
epoch: 1000
next table: 2064
cur table: 2056
epoch: 1000
next table: 1641
cur table: 1638
epoch: 1000
next table: 2056
cur table: 2064
epoch: 1000
next table: 2062
cur table: 2056
epoch: 1000
next table: 1663
cur table: 1641
epoch: 1000
next table: 2060
cur table: 2062
epoch: 1000
next table: 1650
cur table: 1663
epoch: 1000
next table: 2063
cur table: 2060
epoch: 1000
next table: 1623
cur table: 1650
epoch: 1000
next table: 2064
cur table: 2063
epoch: 1000
next table: 1656
cur table: 1623
epoch: 1000
next table: 2064
cur table: 2064
epoch: 1000
next table: 1671
cur table: 1656
epoch: 1000
next table: 2057
cur table: 2064
epoch: 1000
next table: 1660
cur table: 1671
epoch: 1000
next table: 2068
cur table: 2057
epoch: 1000
next table: 1656
cur table: 1660
epoch: 1000
next table: 2058
cur table: 2068
epoch: 1000
next table: 1670
cur table: 1656
epoch: 1000
next table: 2069
cur table: 2058
epoch: 1000
next table: 2058
cur table: 2069
epoch: 1000
next table: 1657
cur table: 1670
epoch: 1000
next table: 2068
cur table: 2058
epoch: 1000
next table: 1651
cur table: 1657
epoch: 1000
next table: 2060
cur table: 2068
epoch: 1000
next table: 1646
cur table: 1651
epoch: 1000
next table: 2067
cur table: 2060
epoch: 1000
next table: 1646
cur table: 1646
epoch: 1000
next table: 2057
cur table: 2067
epoch: 1000
next table: 1680
cur table: 1646
epoch: 1000
next table: 2068
cur table: 2057
epoch: 1000
next table: 1661
cur table: 1680
epoch: 1000
next table: 2062
cur table: 2068
epoch: 1000
next table: 1668
cur table: 1661
epoch: 1000
next table: 2064
cur table: 2062
epoch: 1000
next table: 2069
cur table: 2064
epoch: 1000
next table: 1686
cur table: 1668
epoch: 1000
next table: 2063
cur table: 2069
epoch: 1000
next table: 1667
cur table: 1686
epoch: 1000
next table: 2061
cur table: 2063
epoch: 1000
next table: 1619
cur table: 1667
epoch: 1000
next table: 2069
cur table: 2061
epoch: 1000
next table: 1647
cur table: 1619
epoch: 1000
next table: 2061
cur table: 2069
epoch: 1000
next table: 1646
cur table: 1647
epoch: 1000
next table: 2064
cur table: 2061
epoch: 1000
next table: 1666
cur table: 1646
epoch: 1000
next table: 2064
cur table: 2064
epoch: 1000
next table: 1632
cur table: 1666
epoch: 1000
next table: 2063
cur table: 2064
epoch: 1000
next table: 2065
cur table: 2063
epoch: 1000
next table: 1641
cur table: 1632
epoch: 1000
next table: 2067
cur table: 2065
epoch: 1000
next table: 1679
cur table: 1641
epoch: 1000
next table: 2065
cur table: 2067
epoch: 1000
next table: 1633
cur table: 1679
epoch: 1000
next table: 2060
cur table: 2065
epoch: 1000
next table: 1666
cur table: 1633
epoch: 1000
next table: 2060
cur table: 2060
epoch: 1000
next table: 1657
cur table: 1666
epoch: 1000
next table: 2064
cur table: 2060
epoch: 1000
next table: 1650
cur table: 1657
epoch: 1000
next table: 2062
cur table: 2064
epoch: 1000
next table: 1644
cur table: 1650
epoch: 1000
next table: 2066
cur table: 2062
epoch: 1000
next table: 2063
cur table: 2066
epoch: 1000
next table: 1667
cur table: 1644
epoch: 1000
next table: 2056
cur table: 2063
epoch: 1000
next table: 1661
cur table: 1667
epoch: 1000
next table: 2067
cur table: 2056
epoch: 1000
next table: 1637
cur table: 1661
epoch: 1000
next table: 2064
cur table: 2067
epoch: 1000
next table: 1647
cur table: 1637
epoch: 1000
next table: 2066
cur table: 2064
epoch: 1000
next table: 1657
cur table: 1647
epoch: 1000
next table: 2069
cur table: 2066
epoch: 1000
next table: 1676
cur table: 1657
epoch: 1000
next table: 2059
cur table: 2069
epoch: 1000
next table: 1640
cur table: 1676
epoch: 1000
next table: 2064
cur table: 2059
epoch: 1000
next table: 1660
cur table: 1640
epoch: 1000
next table: 2062
cur table: 2064
epoch: 1000
next table: 2064
cur table: 2062
epoch: 1000
next table: 1635
cur table: 1660
epoch: 1000
next table: 2062
cur table: 2064
epoch: 1000
next table: 1661
cur table: 1635
Heartbeat CPU 0 instructions: 40000001 cycles: 13253932 heartbeat IPC: 3.01786 cumulative IPC: 3.01797 (Simulation time: 0 hr 11 min 57 sec) 
epoch: 1000
next table: 2062
cur table: 2062
epoch: 1000
next table: 1633
cur table: 1661
epoch: 1000
next table: 2066
cur table: 2062
epoch: 1000
next table: 1654
cur table: 1633
epoch: 1000
next table: 2061
cur table: 2066
epoch: 1000
next table: 1667
cur table: 1654
epoch: 1000
next table: 2059
cur table: 2061
epoch: 1000
next table: 1647
cur table: 1667
epoch: 1000
next table: 2072
cur table: 2059
epoch: 1000
next table: 1667
cur table: 1647
epoch: 1000
next table: 2051
cur table: 2072
epoch: 1000
next table: 2063
cur table: 2051
epoch: 1000
next table: 1657
cur table: 1667
epoch: 1000
next table: 2061
cur table: 2063
epoch: 1000
next table: 1674
cur table: 1657
epoch: 1000
next table: 2066
cur table: 2061
epoch: 1000
next table: 1643
cur table: 1674
epoch: 1000
next table: 2057
cur table: 2066
epoch: 1000
next table: 1670
cur table: 1643
epoch: 1000
next table: 2063
cur table: 2057
epoch: 1000
next table: 1656
cur table: 1670
epoch: 1000
next table: 2062
cur table: 2063
epoch: 1000
next table: 1673
cur table: 1656
epoch: 1000
next table: 2067
cur table: 2062
epoch: 1000
next table: 1654
cur table: 1673
epoch: 1000
next table: 2054
cur table: 2067
epoch: 1000
next table: 2056
cur table: 2054
epoch: 1000
next table: 1659
cur table: 1654
epoch: 1000
next table: 2050
cur table: 2056
epoch: 1000
next table: 1693
cur table: 1659
epoch: 1000
next table: 2065
cur table: 2050
epoch: 1000
next table: 1680
cur table: 1693
epoch: 1000
next table: 2057
cur table: 2065
epoch: 1000
next table: 1640
cur table: 1680
epoch: 1000
next table: 2062
cur table: 2057
epoch: 1000
next table: 1660
cur table: 1640
epoch: 1000
next table: 2065
cur table: 2062
epoch: 1000
next table: 1649
cur table: 1660
epoch: 1000
next table: 2065
cur table: 2065
epoch: 1000
next table: 1659
cur table: 1649
epoch: 1000
next table: 2058
cur table: 2065
epoch: 1000
next table: 2066
cur table: 2058
epoch: 1000
next table: 1666
cur table: 1659
epoch: 1000
next table: 2069
cur table: 2066
epoch: 1000
next table: 1654
cur table: 1666
epoch: 1000
next table: 2063
cur table: 2069
epoch: 1000
next table: 1648
cur table: 1654
epoch: 1000
next table: 2063
cur table: 2063
epoch: 1000
next table: 1648
cur table: 1648
epoch: 1000
next table: 2064
cur table: 2063
epoch: 1000
next table: 1654
cur table: 1648
epoch: 1000
next table: 2058
cur table: 2064
epoch: 1000
next table: 1656
cur table: 1654
epoch: 1000
next table: 2069
cur table: 2058
epoch: 1000
next table: 1649
cur table: 1656
epoch: 1000
next table: 2062
cur table: 2069
epoch: 1000
next table: 2064
cur table: 2062
epoch: 1000
next table: 1650
cur table: 1649
epoch: 1000
next table: 2060
cur table: 2064
epoch: 1000
next table: 1661
cur table: 1650
epoch: 1000
next table: 2070
cur table: 2060
epoch: 1000
next table: 1676
cur table: 1661
epoch: 1000
next table: 2061
cur table: 2070
epoch: 1000
next table: 1643
cur table: 1676
epoch: 1000
next table: 2071
cur table: 2061
epoch: 1000
next table: 1666
cur table: 1643
epoch: 1000
next table: 2057
cur table: 2071
epoch: 1000
next table: 1651
cur table: 1666
epoch: 1000
next table: 2064
cur table: 2057
epoch: 1000
next table: 1658
cur table: 1651
epoch: 1000
next table: 2061
cur table: 2064
epoch: 1000
next table: 2067
cur table: 2061
epoch: 1000
next table: 1628
cur table: 1658
epoch: 1000
next table: 2059
cur table: 2067
epoch: 1000
next table: 1675
cur table: 1628
epoch: 1000
next table: 2059
cur table: 2059
epoch: 1000
next table: 1647
cur table: 1675
epoch: 1000
next table: 2061
cur table: 2059
epoch: 1000
next table: 1651
cur table: 1647
epoch: 1000
next table: 2063
cur table: 2061
epoch: 1000
next table: 1654
cur table: 1651
epoch: 1000
next table: 2057
cur table: 2063
epoch: 1000
next table: 1645
cur table: 1654
epoch: 1000
next table: 2063
cur table: 2057
epoch: 1000
next table: 1652
cur table: 1645
epoch: 1000
next table: 2064
cur table: 2063
epoch: 1000
next table: 2064
cur table: 2064
epoch: 1000
next table: 1654
cur table: 1652
epoch: 1000
next table: 2061
cur table: 2064
epoch: 1000
next table: 1658
cur table: 1654
epoch: 1000
next table: 2064
cur table: 2061
epoch: 1000
next table: 1656
cur table: 1658
epoch: 1000
next table: 2064
cur table: 2064
epoch: 1000
next table: 1657
cur table: 1656
epoch: 1000
next table: 2070
cur table: 2064
epoch: 1000
next table: 1634
cur table: 1657
epoch: 1000
next table: 2062
cur table: 2070
epoch: 1000
next table: 1665
cur table: 1634
epoch: 1000
next table: 2066
cur table: 2062
epoch: 1000
next table: 1661
cur table: 1665
epoch: 1000
next table: 2055
cur table: 2066
epoch: 1000
next table: 2071
cur table: 2055
epoch: 1000
next table: 1674
cur table: 1661
epoch: 1000
next table: 2061
cur table: 2071
epoch: 1000
next table: 1670
cur table: 1674
epoch: 1000
next table: 2061
cur table: 2061
epoch: 1000
next table: 1637
cur table: 1670
epoch: 1000
next table: 2057
cur table: 2061
epoch: 1000
next table: 1662
cur table: 1637
epoch: 1000
next table: 2062
cur table: 2057
epoch: 1000
next table: 1676
cur table: 1662
epoch: 1000
next table: 2058
cur table: 2062
epoch: 1000
next table: 1653
cur table: 1676
epoch: 1000
next table: 2065
cur table: 2058
epoch: 1000
next table: 1632
cur table: 1653
epoch: 1000
next table: 2058
cur table: 2065
epoch: 1000
next table: 2064
cur table: 2058
epoch: 1000
next table: 1652
cur table: 1632
epoch: 1000
next table: 2059
cur table: 2064
epoch: 1000
next table: 1629
cur table: 1652
epoch: 1000
next table: 2066
cur table: 2059
epoch: 1000
next table: 1657
cur table: 1629
epoch: 1000
next table: 2058
cur table: 2066
epoch: 1000
next table: 1676
cur table: 1657
epoch: 1000
next table: 2066
cur table: 2058
epoch: 1000
next table: 1645
cur table: 1676
epoch: 1000
next table: 2053
cur table: 2066
epoch: 1000
next table: 1649
cur table: 1645
epoch: 1000
next table: 2064
cur table: 2053
epoch: 1000
next table: 1613
cur table: 1649
epoch: 1000
next table: 2058
cur table: 2064
epoch: 1000
next table: 2066
cur table: 2058
epoch: 1000
next table: 1649
cur table: 1613
epoch: 1000
next table: 2061
cur table: 2066
epoch: 1000
next table: 1656
cur table: 1649
epoch: 1000
next table: 2068
cur table: 2061
epoch: 1000
next table: 1660
cur table: 1656
epoch: 1000
next table: 2059
cur table: 2068
epoch: 1000
next table: 1669
cur table: 1660
epoch: 1000
next table: 2063
cur table: 2059
epoch: 1000
next table: 1679
cur table: 1669
epoch: 1000
next table: 2060
cur table: 2063
epoch: 1000
next table: 1631
cur table: 1679
epoch: 1000
next table: 2071
cur table: 2060
epoch: 1000
next table: 1641
cur table: 1631
epoch: 1000
next table: 2060
cur table: 2071
epoch: 1000
next table: 1649
cur table: 1641
epoch: 1000
next table: 2062
cur table: 2060
epoch: 1000
next table: 2067
cur table: 2062
epoch: 1000
next table: 1676
cur table: 1649
epoch: 1000
next table: 2064
cur table: 2067
epoch: 1000
next table: 1599
cur table: 1676
epoch: 1000
next table: 2054
cur table: 2064
epoch: 1000
next table: 1633
cur table: 1599
epoch: 1000
next table: 2064
cur table: 2054
epoch: 1000
next table: 1657
cur table: 1633
epoch: 1000
next table: 2057
cur table: 2064
epoch: 1000
next table: 1643
cur table: 1657
epoch: 1000
next table: 2069
cur table: 2057
epoch: 1000
next table: 1662
cur table: 1643
epoch: 1000
next table: 2063
cur table: 2069
epoch: 1000
next table: 1638
cur table: 1662
epoch: 1000
next table: 2055
cur table: 2063
epoch: 1000
next table: 2070
cur table: 2055
epoch: 1000
next table: 1661
cur table: 1638
epoch: 1000
next table: 2066
cur table: 2070
epoch: 1000
next table: 1671
cur table: 1661
epoch: 1000
next table: 2067
cur table: 2066
epoch: 1000
next table: 1680
cur table: 1671
epoch: 1000
next table: 2063
cur table: 2067
epoch: 1000
next table: 1618
cur table: 1680
epoch: 1000
next table: 2065
cur table: 2063
epoch: 1000
next table: 1686
cur table: 1618
epoch: 1000
next table: 2062
cur table: 2065
epoch: 1000
next table: 1647
cur table: 1686
epoch: 1000
next table: 2052
cur table: 2062
epoch: 1000
next table: 1640
cur table: 1647
epoch: 1000
next table: 2074
cur table: 2052
epoch: 1000
next table: 1631
cur table: 1640
epoch: 1000
next table: 2057
cur table: 2074
epoch: 1000
next table: 2061
cur table: 2057
epoch: 1000
next table: 1660
cur table: 1631
epoch: 1000
next table: 2060
cur table: 2061
epoch: 1000
next table: 1650
cur table: 1660
epoch: 1000
next table: 2067
cur table: 2060
epoch: 1000
next table: 1650
cur table: 1650
epoch: 1000
next table: 2061
cur table: 2067
epoch: 1000
next table: 1659
cur table: 1650
epoch: 1000
next table: 2068
cur table: 2061
epoch: 1000
next table: 1681
cur table: 1659
epoch: 1000
next table: 2064
cur table: 2068
epoch: 1000
next table: 1638
cur table: 1681
epoch: 1000
next table: 2068
cur table: 2064
epoch: 1000
next table: 1659
cur table: 1638
epoch: 1000
next table: 2057
cur table: 2068
epoch: 1000
next table: 2066
cur table: 2057
epoch: 1000
next table: 1663
cur table: 1659
epoch: 1000
next table: 2063
cur table: 2066
epoch: 1000
next table: 1648
cur table: 1663
epoch: 1000
next table: 2067
cur table: 2063
epoch: 1000
next table: 1665
cur table: 1648
epoch: 1000
next table: 2058
cur table: 2067
epoch: 1000
next table: 1674
cur table: 1665
epoch: 1000
next table: 2065
cur table: 2058
epoch: 1000
next table: 1673
cur table: 1674
epoch: 1000
next table: 2062
cur table: 2065
epoch: 1000
next table: 1664
cur table: 1673
epoch: 1000
next table: 2065
cur table: 2062
epoch: 1000
next table: 1652
cur table: 1664
epoch: 1000
next table: 2061
cur table: 2065
epoch: 1000
next table: 2069
cur table: 2061
epoch: 1000
next table: 1640
cur table: 1652
epoch: 1000
next table: 2057
cur table: 2069
epoch: 1000
next table: 1631
cur table: 1640
epoch: 1000
next table: 2063
cur table: 2057
epoch: 1000
next table: 1658
cur table: 1631
epoch: 1000
next table: 2064
cur table: 2063
epoch: 1000
next table: 1631
cur table: 1658
epoch: 1000
next table: 2064
cur table: 2064
epoch: 1000
next table: 1658
cur table: 1631
epoch: 1000
next table: 2059
cur table: 2064
epoch: 1000
next table: 1639
cur table: 1658
epoch: 1000
next table: 2064
cur table: 2059
epoch: 1000
next table: 1637
cur table: 1639
epoch: 1000
next table: 2062
cur table: 2064
epoch: 1000
next table: 1660
cur table: 1637
epoch: 1000
next table: 2062
cur table: 2062
epoch: 1000
next table: 2062
cur table: 2062
epoch: 1000
next table: 1627
cur table: 1660
epoch: 1000
next table: 2062
cur table: 2062
epoch: 1000
next table: 1664
cur table: 1627
epoch: 1000
next table: 2059
cur table: 2062
epoch: 1000
next table: 1646
cur table: 1664
epoch: 1000
next table: 2066
cur table: 2059
epoch: 1000
next table: 1645
cur table: 1646
epoch: 1000
next table: 2063
cur table: 2066
epoch: 1000
next table: 1675
cur table: 1645
epoch: 1000
next table: 2063
cur table: 2063
epoch: 1000
next table: 1660
cur table: 1675
epoch: 1000
next table: 2063
cur table: 2063
epoch: 1000
next table: 1649
cur table: 1660
epoch: 1000
next table: 2059
cur table: 2063
epoch: 1000
next table: 2065
cur table: 2059
epoch: 1000
next table: 1652
cur table: 1649
epoch: 1000
next table: 2060
cur table: 2065
epoch: 1000
next table: 1660
cur table: 1652
epoch: 1000
next table: 2065
cur table: 2060
epoch: 1000
next table: 1688
cur table: 1660
epoch: 1000
next table: 2071
cur table: 2065
epoch: 1000
next table: 1656
cur table: 1688
epoch: 1000
next table: 2058
cur table: 2071
epoch: 1000
next table: 1673
cur table: 1656
epoch: 1000
next table: 2061
cur table: 2058
epoch: 1000
next table: 1670
cur table: 1673
epoch: 1000
next table: 2057
cur table: 2061
epoch: 1000
next table: 1663
cur table: 1670
epoch: 1000
next table: 2062
cur table: 2057
epoch: 1000
next table: 1647
cur table: 1663
epoch: 1000
next table: 2066
cur table: 2062
epoch: 1000
next table: 2063
cur table: 2066
epoch: 1000
next table: 1661
cur table: 1647
epoch: 1000
next table: 2062
cur table: 2063
epoch: 1000
next table: 1639
cur table: 1661
epoch: 1000
next table: 2066
cur table: 2062
epoch: 1000
next table: 1666
cur table: 1639
epoch: 1000
next table: 2061
cur table: 2066
epoch: 1000
next table: 1638
cur table: 1666
epoch: 1000
next table: 2068
cur table: 2061
epoch: 1000
next table: 1640
cur table: 1638
epoch: 1000
next table: 2059
cur table: 2068
epoch: 1000
next table: 1675
cur table: 1640
epoch: 1000
next table: 2063
cur table: 2059
epoch: 1000
next table: 1663
cur table: 1675
epoch: 1000
next table: 2056
cur table: 2063
epoch: 1000
next table: 2062
cur table: 2056
epoch: 1000
next table: 1644
cur table: 1663
epoch: 1000
next table: 2063
cur table: 2062
epoch: 1000
next table: 1662
cur table: 1644
epoch: 1000
next table: 2058
cur table: 2063
epoch: 1000
next table: 1644
cur table: 1662
epoch: 1000
next table: 2056
cur table: 2058
epoch: 1000
next table: 1648
cur table: 1644
epoch: 1000
next table: 2063
cur table: 2056
epoch: 1000
next table: 1635
cur table: 1648
epoch: 1000
next table: 2064
cur table: 2063
epoch: 1000
next table: 1642
cur table: 1635
epoch: 1000
next table: 2064
cur table: 2064
epoch: 1000
next table: 2064
cur table: 2064
epoch: 1000
next table: 1654
cur table: 1642
epoch: 1000
next table: 2069
cur table: 2064
epoch: 1000
next table: 1654
cur table: 1654
epoch: 1000
next table: 2061
cur table: 2069
epoch: 1000
next table: 1640
cur table: 1654
epoch: 1000
next table: 2058
cur table: 2061
epoch: 1000
next table: 1650
cur table: 1640
epoch: 1000
next table: 2063
cur table: 2058
epoch: 1000
next table: 1656
cur table: 1650
epoch: 1000
next table: 2065
cur table: 2063
epoch: 1000
next table: 1634
cur table: 1656
epoch: 1000
next table: 2063
cur table: 2065
epoch: 1000
next table: 1686
cur table: 1634
epoch: 1000
next table: 2067
cur table: 2063
epoch: 1000
next table: 1617
cur table: 1686
epoch: 1000
next table: 2058
cur table: 2067
epoch: 1000
next table: 2063
cur table: 2058
epoch: 1000
next table: 1669
cur table: 1617
epoch: 1000
next table: 2060
cur table: 2063
epoch: 1000
next table: 1637
cur table: 1669
epoch: 1000
next table: 2066
cur table: 2060
epoch: 1000
next table: 1670
cur table: 1637
epoch: 1000
next table: 2056
cur table: 2066
epoch: 1000
next table: 1634
cur table: 1670
epoch: 1000
next table: 2069
cur table: 2056
epoch: 1000
next table: 1669
cur table: 1634
epoch: 1000
next table: 2061
cur table: 2069
epoch: 1000
next table: 1636
cur table: 1669
epoch: 1000
next table: 2061
cur table: 2061
epoch: 1000
next table: 1658
cur table: 1636
epoch: 1000
next table: 2067
cur table: 2061
epoch: 1000
next table: 2065
cur table: 2067
epoch: 1000
next table: 1658
cur table: 1658
epoch: 1000
next table: 2064
cur table: 2065
epoch: 1000
next table: 1642
cur table: 1658
epoch: 1000
next table: 2065
cur table: 2064
epoch: 1000
next table: 1641
cur table: 1642
epoch: 1000
next table: 2061
cur table: 2065
epoch: 1000
next table: 1678
cur table: 1641
epoch: 1000
next table: 2067
cur table: 2061
epoch: 1000
next table: 1633
cur table: 1678
epoch: 1000
next table: 2055
cur table: 2067
epoch: 1000
next table: 1686
cur table: 1633
epoch: 1000
next table: 2063
cur table: 2055
epoch: 1000
next table: 1649
cur table: 1686
epoch: 1000
next table: 2066
cur table: 2063
epoch: 1000
next table: 1644
cur table: 1649
epoch: 1000
next table: 2060
cur table: 2066
epoch: 1000
next table: 2071
cur table: 2060
epoch: 1000
next table: 1660
cur table: 1644
epoch: 1000
next table: 2061
cur table: 2071
epoch: 1000
next table: 1655
cur table: 1660
epoch: 1000
next table: 2056
cur table: 2061
epoch: 1000
next table: 1619
cur table: 1655
epoch: 1000
next table: 2063
cur table: 2056
epoch: 1000
next table: 1638
cur table: 1619
epoch: 1000
[...]
epoch: 1000
next table: 2067
cur table: 2064
epoch: 1000
next table: 1561
cur table: 1529
epoch: 1000
next table: 2065
cur table: 2067
epoch: 1000
next table: 2061
cur table: 2065
epoch: 1000
next table: 1548
cur table: 1561
epoch: 1000
next table: 2066
cur table: 2061
epoch: 1000
next table: 1567
cur table: 1548
epoch: 1000
next table: 2065
cur table: 2066
epoch: 1000
next table: 1521
cur table: 1567
epoch: 1000
next table: 2064
cur table: 2065
epoch: 1000
next table: 1570
cur table: 1521
epoch: 1000
next table: 2058
cur table: 2064
epoch: 1000
next table: 1496
cur table: 1570
epoch: 1000
next table: 2068
cur table: 2058
epoch: 1000
next table: 2064
cur table: 2068
epoch: 1000
next table: 1555
cur table: 1496
epoch: 1000
next table: 2067
cur table: 2064
epoch: 1000
next table: 1535
cur table: 1555
epoch: 1000
next table: 2064
cur table: 2067
epoch: 1000
next table: 1554
cur table: 1535
epoch: 1000
next table: 2067
cur table: 2064
epoch: 1000
next table: 1565
cur table: 1554
epoch: 1000
next table: 2052
cur table: 2067
epoch: 1000
next table: 1564
cur table: 1565
epoch: 1000
next table: 2075
cur table: 2052
epoch: 1000
next table: 2058
cur table: 2075
epoch: 1000
next table: 1554
cur table: 1564
epoch: 1000
next table: 2072
cur table: 2058
epoch: 1000
next table: 1556
cur table: 1554
epoch: 1000
next table: 2066
cur table: 2072
epoch: 1000
next table: 1569
cur table: 1556
epoch: 1000
next table: 2064
cur table: 2066
epoch: 1000
next table: 1569
cur table: 1569
epoch: 1000
next table: 2068
cur table: 2064
epoch: 1000
next table: 1545
cur table: 1569
epoch: 1000
next table: 2063
cur table: 2068
epoch: 1000
next table: 1542
cur table: 1545
epoch: 1000
next table: 2065
cur table: 2063
epoch: 1000
next table: 2065
cur table: 2065
epoch: 1000
next table: 1542
cur table: 1542
epoch: 1000
next table: 2060
cur table: 2065
epoch: 1000
next table: 1557
cur table: 1542
epoch: 1000
next table: 2070
cur table: 2060
epoch: 1000
next table: 1527
cur table: 1557
epoch: 1000
next table: 2067
cur table: 2070
epoch: 1000
next table: 1568
cur table: 1527
epoch: 1000
next table: 2056
cur table: 2067
epoch: 1000
next table: 1561
cur table: 1568
epoch: 1000
next table: 2064
cur table: 2056
epoch: 1000
next table: 2065
cur table: 2064
epoch: 1000
next table: 1567
cur table: 1561
epoch: 1000
next table: 2067
cur table: 2065
epoch: 1000
next table: 1564
cur table: 1567
Heartbeat CPU 0 instructions: 100000002 cycles: 73062237 heartbeat IPC: 0.885027 cumulative IPC: 0.885044 (Simulation time: 0 hr 25 min 49 sec) 
Finished CPU 0 instructions: 50000003 cycles: 56494372 cumulative IPC: 0.885044 (Simulation time: 0 hr 25 min 49 sec) 

ChampSim completed all CPUs

Region of Interest Statistics

CPU 0 cumulative IPC: 0.885044 instructions: 50000003 cycles: 56494372
ITLB TOTAL     ACCESS:    6356499  HIT:    6356499  MISS:          0  HIT %:        100  MISS %:          0   MPKI: 0
ITLB LOAD TRANSLATION ACCESS:    6356499  HIT:    6356499  MISS:          0  HIT %:        100  MISS %:          0   MPKI: 0
ITLB PREFETCH  REQUESTED:          0  ISSUED:          0  USEFUL:          0  USELESS:          0
ITLB USEFUL LOAD PREFETCHES:          0 PREFETCH ISSUED TO LOWER LEVEL:          0  ACCURACY: -nan
ITLB TIMELY PREFETCHES:          0 LATE PREFETCHES: 0 DROPPED PREFETCHES: 0
ITLB PREFETCHES SAME FILL-ORIGIN LEVEL: 0 DIFFERENT FILL-ORIGIN LEVEL: 0
ITLB AVERAGE MISS LATENCY: -nan cycles
ITLB RQ	ACCESS:    8463074	FORWARD:          0	MERGED:    2106576	TO_CACHE:    6356498

Revised Interactions: positive negative neutral
ITLB_interactions 0 0 0 -nan -nan -nan
DTLB TOTAL     ACCESS:   16346516  HIT:   16248001  MISS:      98515  HIT %:    99.3973  MISS %:   0.602667   MPKI: 1.9703
DTLB LOAD TRANSLATION ACCESS:   16346516  HIT:   16248001  MISS:      98515  HIT %:    99.3973  MISS %:   0.602667   MPKI: 1.9703
DTLB PREFETCH  REQUESTED:          0  ISSUED:          0  USEFUL:          0  USELESS:          0
DTLB USEFUL LOAD PREFETCHES:          0 PREFETCH ISSUED TO LOWER LEVEL:          0  ACCURACY: -nan
DTLB TIMELY PREFETCHES:          0 LATE PREFETCHES: 0 DROPPED PREFETCHES: 0
DTLB PREFETCHES SAME FILL-ORIGIN LEVEL: 0 DIFFERENT FILL-ORIGIN LEVEL: 0
DTLB AVERAGE MISS LATENCY: 83.9461 cycles
DTLB RQ	ACCESS:   19017240	FORWARD:          0	MERGED:    2656200	TO_CACHE:   16361040

Revised Interactions: positive negative neutral
DTLB_interactions 0 0 0 -nan -nan -nan
STLB TOTAL     ACCESS:      98515  HIT:      83670  MISS:      14845  HIT %:    84.9312  MISS %:    15.0688   MPKI: 0.2969
STLB LOAD TRANSLATION ACCESS:      98515  HIT:      83670  MISS:      14845  HIT %:    84.9312  MISS %:    15.0688   MPKI: 0.2969
STLB PREFETCH  REQUESTED:          0  ISSUED:          0  USEFUL:          0  USELESS:          0
STLB USEFUL LOAD PREFETCHES:          0 PREFETCH ISSUED TO LOWER LEVEL:          0  ACCURACY: -nan
STLB TIMELY PREFETCHES:          0 LATE PREFETCHES: 0 DROPPED PREFETCHES: 0
STLB PREFETCHES SAME FILL-ORIGIN LEVEL: 0 DIFFERENT FILL-ORIGIN LEVEL: 0
STLB AVERAGE MISS LATENCY: 471.181 cycles
STLB RQ	ACCESS:      98515	FORWARD:          0	MERGED:          0	TO_CACHE:      98515

Revised Interactions: positive negative neutral
STLB_interactions 0 0 0 -nan -nan -nan
STLB Hit, L1D data hit: 0
STLB Hit, L2C data hit: 0
STLB Hit, LLC data hit: 0
STLB Hit, LLC data miss: 0
STLB STLB hints to L2: 0
L1D TOTAL     ACCESS:   18868193  HIT:   17868591  MISS:     999602  HIT %:    94.7022  MISS %:    5.29782   MPKI: 19.992
L1D LOAD      ACCESS:   16059430  HIT:   15084190  MISS:     975240  HIT %:    93.9273  MISS %:    6.07269   MPKI: 19.5048
L1D RFO       ACCESS:    2808763  HIT:    2784401  MISS:      24362  HIT %:    99.1326  MISS %:   0.867357   MPKI: 0.48724
L1D PREFETCH  REQUESTED:          0  ISSUED:          0  USEFUL:          0  USELESS:          0
L1D USEFUL LOAD PREFETCHES:          0 PREFETCH ISSUED TO LOWER LEVEL:          0  ACCURACY: -nan
L1D TIMELY PREFETCHES:          0 LATE PREFETCHES: 0 DROPPED PREFETCHES: 0
L1D PREFETCHES SAME FILL-ORIGIN LEVEL: 0 DIFFERENT FILL-ORIGIN LEVEL: 0
L1D AVERAGE MISS LATENCY: 52.4674 cycles
L1D RQ	ACCESS:   21232508	FORWARD:          0	MERGED:    4964677	TO_CACHE:   16200547
L1D WQ	ACCESS:    2816717	FORWARD:      67284	MERGED:         24	TO_CACHE:    2816693

Revised Interactions: positive negative neutral
L1D_interactions 0 0 0 -nan -nan -nan
L1D UNIQUE REGIONS ACCESSED: 0
L1D REGIONS CONFLICTS: 0
L1D Cross Page Prefetch Requests: 0
L1D Same Page Prefetch Requests: 0
L1D ROI Sum of L1D PQ occupancy: 0
L1D PREFETCHES PUSHED FROM L2C: 0
L1I TOTAL     ACCESS:    8463072  HIT:    8463072  MISS:          0  HIT %:        100  MISS %:          0   MPKI: 0
L1I LOAD      ACCESS:    8463072  HIT:    8463072  MISS:          0  HIT %:        100  MISS %:          0   MPKI: 0
L1I PREFETCH  REQUESTED:          0  ISSUED:          0  USEFUL:          0  USELESS:          0
L1I USEFUL LOAD PREFETCHES:          0 PREFETCH ISSUED TO LOWER LEVEL:          0  ACCURACY: -nan
L1I TIMELY PREFETCHES:          0 LATE PREFETCHES: 0 DROPPED PREFETCHES: 0
L1I PREFETCHES SAME FILL-ORIGIN LEVEL: 0 DIFFERENT FILL-ORIGIN LEVEL: 0
L1I AVERAGE MISS LATENCY: -nan cycles
L1I RQ	ACCESS:   11737635	FORWARD:          0	MERGED:    3274561	TO_CACHE:    8463074

Revised Interactions: positive negative neutral
L1I_interactions 0 0 0 -nan -nan -nan
BTB TOTAL     ACCESS:    1208722  HIT:    1208717  MISS:          5  HIT %:    99.9996  MISS %: 0.00041366   MPKI: 0.0001
BTB BRANCH_DIRECT_JUMP	ACCESS:          0  HIT:          0  MISS:          0
BTB BRANCH_INDIRECT	ACCESS:          0  HIT:          0  MISS:          0
BTB BRANCH_CONDITIONAL	ACCESS:    1208722  HIT:    1208717  MISS:          5
BTB BRANCH_DIRECT_CALL	ACCESS:          0  HIT:          0  MISS:          0
BTB BRANCH_INDIRECT_CALL	ACCESS:          0  HIT:          0  MISS:          0
BTB BRANCH_RETURN	ACCESS:          0  HIT:          0  MISS:          0
BTB BRANCH_OTHER ACCESS:          0  HIT:          0  MISS:          0

L2C TOTAL     ACCESS:    1618987  HIT:     664862  MISS:     954125  HIT %:    41.0665  MISS %:    58.9335   MPKI: 19.0825
L2C LOAD      ACCESS:     975240  HIT:     455311  MISS:     519929  HIT %:    46.6871  MISS %:    53.3129   MPKI: 10.3986
L2C DATA LOAD MPKI: 10.3986
L2C INSTRUCTION LOAD MPKI: 0
L2C RFO       ACCESS:      24362  HIT:          0  MISS:      24362  HIT %:          0  MISS %:        100   MPKI: 0.48724
L2C PREFETCH  ACCESS:     579805  HIT:     172575  MISS:     407230  HIT %:    29.7643  MISS %:    70.2357   MPKI: 8.1446
L2C DATA PREFETCH MPKI: 8.1446
L2C INSTRUCTION PREFETCH MPKI: 0
L2C WRITEBACK ACCESS:      24733  HIT:      24108  MISS:        625  HIT %:     97.473  MISS %:    2.52699   MPKI: 0.0125
L2C LOAD TRANSLATION ACCESS:      14847  HIT:      12868  MISS:       1979  HIT %:    86.6707  MISS %:    13.3293   MPKI: 0.03958
L2C PREFETCH  REQUESTED:    3739598  ISSUED:    2736292  USEFUL:     407089  USELESS:        140
L2C USEFUL LOAD PREFETCHES:     407089 PREFETCH ISSUED TO LOWER LEVEL:    2508728  ACCURACY: 16.2269
L2C TIMELY PREFETCHES:     407089 LATE PREFETCHES: 105487 DROPPED PREFETCHES: 0
L2C PREFETCHES SAME FILL-ORIGIN LEVEL: 512718 DIFFERENT FILL-ORIGIN LEVEL: 1996010
L2C AVERAGE MISS LATENCY: 57.4939 cycles
L2C RQ	ACCESS:    1014449	FORWARD:          0	MERGED:          0	TO_CACHE:    1014449
L2C WQ	ACCESS:      24733	FORWARD:          0	MERGED:          0	TO_CACHE:      24733
L2C PQ	ACCESS:    2736292	FORWARD:          0	MERGED:      25009	TO_CACHE:    2711283

Revised Interactions: positive negative neutral
L2C_interactions 406201 83 399 99.8815 0.020409 0.0981108
L2C Instructions Evicting Data 0
L2C Translations Evicting Data 1978
L2C Data Evicting Data 949552
L2C Instructions Evicting Instructions 0
L2C Translations Evicting Instructions 0
L2C Data Evicting Instructions 0
L2C Instructions Evicting Translations 0
L2C Translations Evicting Translations 1
L2C Data Evicting Translations 1969
L2C Dense regions hint from L2: 0
PSCL5 TOTAL     ACCESS:      14845  HIT:      14845  MISS:          0  HIT %:        100  MISS %:          0   MPKI: 0
PSCL5 LOAD TRANSLATION ACCESS:      14845  HIT:      14845  MISS:          0  HIT %:        100  MISS %:          0   MPKI: 0
PSCL5 PREFETCH  REQUESTED:          0  ISSUED:          0  USEFUL:          0  USELESS:          0
PSCL5 USEFUL LOAD PREFETCHES:          0 PREFETCH ISSUED TO LOWER LEVEL:          0  ACCURACY: -nan
PSCL5 TIMELY PREFETCHES:          0 LATE PREFETCHES: 0 DROPPED PREFETCHES: 0
PSCL5 PREFETCHES SAME FILL-ORIGIN LEVEL: 0 DIFFERENT FILL-ORIGIN LEVEL: 0

Revised Interactions: positive negative neutral
PSCL5_interactions 0 0 0 -nan -nan -nan
PSCL4 TOTAL     ACCESS:      14845  HIT:      14845  MISS:          0  HIT %:        100  MISS %:          0   MPKI: 0
PSCL4 LOAD TRANSLATION ACCESS:      14845  HIT:      14845  MISS:          0  HIT %:        100  MISS %:          0   MPKI: 0
PSCL4 PREFETCH  REQUESTED:          0  ISSUED:          0  USEFUL:          0  USELESS:          0
PSCL4 USEFUL LOAD PREFETCHES:          0 PREFETCH ISSUED TO LOWER LEVEL:          0  ACCURACY: -nan
PSCL4 TIMELY PREFETCHES:          0 LATE PREFETCHES: 0 DROPPED PREFETCHES: 0
PSCL4 PREFETCHES SAME FILL-ORIGIN LEVEL: 0 DIFFERENT FILL-ORIGIN LEVEL: 0

Revised Interactions: positive negative neutral
PSCL4_interactions 0 0 0 -nan -nan -nan
PSCL3 TOTAL     ACCESS:      14845  HIT:      14845  MISS:          0  HIT %:        100  MISS %:          0   MPKI: 0
PSCL3 LOAD TRANSLATION ACCESS:      14845  HIT:      14845  MISS:          0  HIT %:        100  MISS %:          0   MPKI: 0
PSCL3 PREFETCH  REQUESTED:          0  ISSUED:          0  USEFUL:          0  USELESS:          0
PSCL3 USEFUL LOAD PREFETCHES:          0 PREFETCH ISSUED TO LOWER LEVEL:          0  ACCURACY: -nan
PSCL3 TIMELY PREFETCHES:          0 LATE PREFETCHES: 0 DROPPED PREFETCHES: 0
PSCL3 PREFETCHES SAME FILL-ORIGIN LEVEL: 0 DIFFERENT FILL-ORIGIN LEVEL: 0

Revised Interactions: positive negative neutral
PSCL3_interactions 0 0 0 -nan -nan -nan
PSCL2 TOTAL     ACCESS:      14845  HIT:      14815  MISS:         30  HIT %:    99.7979  MISS %:   0.202088   MPKI: 0.0006
PSCL2 LOAD TRANSLATION ACCESS:      14845  HIT:      14815  MISS:         30  HIT %:    99.7979  MISS %:   0.202088   MPKI: 0.0006
PSCL2 PREFETCH  REQUESTED:          0  ISSUED:          0  USEFUL:          0  USELESS:          0
PSCL2 USEFUL LOAD PREFETCHES:          0 PREFETCH ISSUED TO LOWER LEVEL:          0  ACCURACY: -nan
PSCL2 TIMELY PREFETCHES:          0 LATE PREFETCHES: 0 DROPPED PREFETCHES: 0
PSCL2 PREFETCHES SAME FILL-ORIGIN LEVEL: 0 DIFFERENT FILL-ORIGIN LEVEL: 0

Revised Interactions: positive negative neutral
PSCL2_interactions 0 0 0 -nan -nan -nan
LLC TOTAL     ACCESS:    2641853  HIT:    1664856  MISS:     976997  HIT %:    63.0185  MISS %:    36.9815   MPKI: 19.5399
LLC LOAD      ACCESS:     414442  HIT:     287294  MISS:     127148  HIT %:    69.3207  MISS %:    30.6793   MPKI: 2.54296
LLC RFO       ACCESS:      24362  HIT:          0  MISS:      24362  HIT %:          0  MISS %:        100   MPKI: 0.48724
LLC PREFETCH  ACCESS:    2176672  HIT:    1377504  MISS:     799168  HIT %:    63.2849  MISS %:    36.7151   MPKI: 15.9834
LLC WRITEBACK ACCESS:      24398  HIT:         34  MISS:      24364  HIT %:   0.139356  MISS %:    99.8606   MPKI: 0.48728
LLC LOAD TRANSLATION ACCESS:       1979  HIT:         24  MISS:       1955  HIT %:    1.21273  MISS %:    98.7873   MPKI: 0.0391
LLC PREFETCH  REQUESTED:          0  ISSUED:          0  USEFUL:     286726  USELESS:     511553
LLC USEFUL LOAD PREFETCHES:     286726 PREFETCH ISSUED TO LOWER LEVEL:     806563  ACCURACY: 35.5491
LLC TIMELY PREFETCHES:     286726 LATE PREFETCHES: 7390 DROPPED PREFETCHES: 0
LLC PREFETCHES SAME FILL-ORIGIN LEVEL: 762047 DIFFERENT FILL-ORIGIN LEVEL: 0
LLC AVERAGE MISS LATENCY: 183.458 cycles
LLC RQ	ACCESS:     440783	FORWARD:          0	MERGED:          0	TO_CACHE:     440783
LLC WQ	ACCESS:      24398	FORWARD:          0	MERGED:          0	TO_CACHE:      24398
LLC PQ	ACCESS:    2508728	FORWARD:          0	MERGED:       3960	TO_CACHE:    2504768

Revised Interactions: positive negative neutral
LLC_interactions 286237 511746 269 35.858 64.1083 0.0336986
LLC Dense regions hint to LLC: 0

RAW hits: 257518
Loads Generated: 21490026
Loads sent to L1D: 21232508
Stores Generated: 2816714
Stores sent to L1D: 2816717
Major fault: 0 Minor fault: 28540
Allocated PAGES: 28540
 All Calls: 1950504
 Critical Calls: 1950504
------------------
Depth Distribution
------------------
depth 0: 0
depth 1: 1474410
depth 2: 1293178
depth 3: 1183673
depth 4: 830175
depth 5: 24030
depth 6: 3
depth 7: 2
depth 8: 1
depth 9: 1
depth 10: 0
depth 11: 0
depth 12: 0
depth 13: 0
depth 14: 0
depth 15: 0
depth 16: 0
depth 17: 0
depth 18: 0
depth 19: 0
depth 20: 0
depth 21: 0
depth 22: 0
depth 23: 0
depth 24: 0
depth 25: 0
depth 26: 0
depth 27: 0
depth 28: 0
depth 29: 0
Total: 4805473
-----------------------------
-----------------------------
	Captured at Filter
-----------------------------
depth 0: 0
depth 1: 13263
depth 2: 12128
depth 3: 11895
depth 4: 8645
depth 5: 361
depth 6: 0
depth 7: 0
depth 8: 0
depth 9: 0
depth 10: 0
depth 11: 0
depth 12: 0
depth 13: 0
depth 14: 0
depth 15: 0
depth 16: 0
depth 17: 0
depth 18: 0
depth 19: 0
depth 20: 0
depth 21: 0
depth 22: 0
depth 23: 0
depth 24: 0
depth 25: 0
depth 26: 0
depth 27: 0
depth 28: 0
depth 29: 0
-----------------------------
-----------------------------
		Lost at Page
-----------------------------
depth 0: 0
depth 1: 30724
depth 2: 60949
depth 3: 91301
depth 4: 87988
depth 5: 4806
depth 6: 0
depth 7: 0
depth 8: 0
depth 9: 0
depth 10: 0
depth 11: 0
depth 12: 0
depth 13: 0
depth 14: 0
depth 15: 0
depth 16: 0
depth 17: 0
depth 18: 0
depth 19: 0
depth 20: 0
depth 21: 0
depth 22: 0
depth 23: 0
depth 24: 0
depth 25: 0
depth 26: 0
depth 27: 0
depth 28: 0
depth 29: 0
-----------------------------
-----------------------------
	Lost due to PQ Size
-----------------------------
2195394
-----------------------------
ST read accesses: 960800
ST write accesses: 14440
PT read accesses: 24464604
PT write accesses: 1441090
FILTER read accesses: 5694469
FILTER write accesses: 2083583
GHR read accesses: 565197
GHR write accesses: 154705
GHR counter read accesses: 21526064
GHR counter write accesses: 2246314
ST tag read accesses: 382828942
ST tag write accesses: 11624364

DRAM Statistics
 CHANNEL 0
 RQ ROW_BUFFER_HIT:     682002  ROW_BUFFER_MISS:     270633
 DBUS_CONGESTED:        253
 WQ ROW_BUFFER_HIT:        698  ROW_BUFFER_MISS:      23628  FULL:          0

 AVG_CONGESTED_CYCLE: 2
 All warmup complete: 2
Channel 0 Bank busy for read cycles: 0
Channel 0 Bank busy for write cycles: 0
Channel 0
Rank 0
0banks busy for read cycles: 26538838
0banks busy for write cycles: 14691
1banks busy for read cycles: 8490894
1banks busy for write cycles: 1554360
2banks busy for read cycles: 5505395
2banks busy for write cycles: 655148
3banks busy for read cycles: 5016656
3banks busy for write cycles: 257600
4banks busy for read cycles: 3889742
4banks busy for write cycles: 59270
5banks busy for read cycles: 2849459
5banks busy for write cycles: 12795
6banks busy for read cycles: 1234103
6banks busy for write cycles: 2250
7banks busy for read cycles: 364298
7banks busy for write cycles: 332
8banks busy for read cycles: 48542
8banks busy for write cycles: 0

CPU 0 Branch Prediction Accuracy: 81.2318% MPKI: 4.68478 Average ROB Occupancy at Mispredict: 66.2103
Branch types
NOT_BRANCH: 48751725 97.5034%
BRANCH_DIRECT_JUMP: 0 0%
BRANCH_INDIRECT: 0 0%
BRANCH_CONDITIONAL: 1248065 2.49613%
BRANCH_DIRECT_CALL: 0 0%
BRANCH_INDIRECT_CALL: 0 0%
BRANCH_RETURN: 0 0%
BRANCH_OTHER: 0 0%

@sumon_overall_L1D         0         0         0         0         0         0         0
@Sumon_Early_by_class_L1D         0         0         0         0
@Sumon_Late_by_class_L1D         0         0         0         0

@Sumon_Early_by_cycle_L1D         0         0         0         0         0         0         0         0         0         0         0         0
@Sumon_Late_by_cycle_L1D         0         0         0         0         0         0
@Sumon_Early_stream_L1D         0         0         0         0         0         0         0         0         0         0         0         0
@Sumon_Early_CS_L1D         0         0         0         0         0         0         0         0         0         0         0         0
@Sumon_Early_CPLX_L1D         0         0         0         0         0         0         0         0         0         0         0         0
@Sumon_Late_stream_L1D         0         0         0         0         0         0
@Sumon_Late_CS_L1D         0         0         0         0         0         0
@Sumon_Late_CPLX_L1D         0         0         0         0         0         0
@sumon_overall_L2C    407089    105487         0       140    407230   2736292   3739598
@Sumon_Early_by_class_L2C         0         0         0         0
@Sumon_Late_by_class_L2C         0         0         0         0

@Sumon_Early_by_cycle_L2C    100814     46128     50514     46432     40756     95976     26463         2         0         0         0         4
@Sumon_Late_by_cycle_L2C     56575     28749      5914      5618      8631         0
@Sumon_Early_stream_L2C         0         0         0         0         0         0         0         0         0         0         0         0
@Sumon_Early_CS_L2C         0         0         0         0         0         0         0         0         0         0         0         0
@Sumon_Early_CPLX_L2C         0         0         0         0         0         0         0         0         0         0         0         0
@Sumon_Late_stream_L2C         0         0         0         0         0         0
@Sumon_Late_CS_L2C         0         0         0         0         0         0
@Sumon_Late_CPLX_L2C         0         0         0         0         0         0
DRAM PAGES: 1048576
Allocated PAGES: 28540
