Initialize SIGNATURE TABLE
ST_SET: 1
ST_WAY: 256
ST_TAG_BIT: 16
ST_TAG_MASK: ffff

Initialize PATTERN TABLE
PT_SET: 512
PT_WAY: 4
SIG_DELTA_BIT: 7
C_SIG_BIT: 4
C_DELTA_BIT: 4

Initialize PREFETCH FILTER
FILTER_SET: 1024

*** ChampSim Multicore Out-of-Order Simulator ***

Warmup Instructions: 50000000
Simulation Instructions: 50000000
Number of CPUs: 1
LLC sets: 2048
LLC ways: 16
Off-chip DRAM Size: 4096 MB Channels: 1 Width: 64-bit Data Rate: 6400 MT/s
CPU 0 runs ../../biswa/SPEC2017Traces/654.roms_s-1070B.champsimtrace.xz
.xz
CPU 0 Bimodal branch predictor
BTB has LRU replacement policy
ITLB has LRU replacement policy
DTLB has LRU replacement policy
STLB has LRU replacement policy
L1I has LRU replacement policy
L1D has LRU replacement policy
ST_WAYS: 256
PT_SETS: 512
Initialize DRRIP state for L2C
epoch: 1000
next table: 2070
cur table: 10210
epoch: 1000
next table: 2036
cur table: 2070
epoch: 1000
next table: 2019
cur table: 2036
epoch: 1000
next table: 2021
cur table: 2019
epoch: 1000
next table: 2017
cur table: 2021
epoch: 1000
next table: 2017
cur table: 2017
epoch: 1000
next table: 2018
cur table: 2017
epoch: 1000
next table: 2015
cur table: 2018
epoch: 1000
next table: 2013
cur table: 2015
epoch: 1000
next table: 2015
cur table: 2013
epoch: 1000
next table: 2012
cur table: 2015
epoch: 1000
next table: 2017
cur table: 2012
epoch: 1000
next table: 2015
cur table: 2017
epoch: 1000
next table: 2014
cur table: 2015
epoch: 1000
next table: 2015
cur table: 2014
epoch: 1000
next table: 2012
cur table: 2015
epoch: 1000
next table: 2013
cur table: 2012
epoch: 1000
next table: 2016
cur table: 2013
epoch: 1000
next table: 2012
cur table: 2016
epoch: 1000
next table: 2015
cur table: 2012
epoch: 1000
next table: 2012
cur table: 2015
epoch: 1000
next table: 2015
cur table: 2012
epoch: 1000
next table: 2013
cur table: 2015
epoch: 1000
next table: 1802
cur table: 13968
epoch: 1000
next table: 2017
cur table: 2013
epoch: 1000
next table: 1616
cur table: 1802
epoch: 1000
next table: 2012
cur table: 2017
epoch: 1000
next table: 1523
cur table: 1616
epoch: 1000
next table: 2017
cur table: 2012
epoch: 1000
next table: 1453
cur table: 1523
epoch: 1000
next table: 2014
cur table: 2017
epoch: 1000
next table: 2016
cur table: 2014
epoch: 1000
next table: 1460
cur table: 1453
epoch: 1000
next table: 2016
cur table: 2016
epoch: 1000
next table: 1457
cur table: 1460
epoch: 1000
next table: 2012
cur table: 2016
epoch: 1000
next table: 1431
cur table: 1457
epoch: 1000
next table: 2014
cur table: 2012
epoch: 1000
next table: 1421
cur table: 1431
epoch: 1000
next table: 2014
cur table: 2014
epoch: 1000
next table: 1428
cur table: 1421
epoch: 1000
next table: 2014
cur table: 2014
epoch: 1000
next table: 1407
cur table: 1428
epoch: 1000
next table: 2017
cur table: 2014
epoch: 1000
next table: 1396
cur table: 1407
epoch: 1000
next table: 2004
cur table: 2017
epoch: 1000
next table: 1550
cur table: 1396
epoch: 1000
next table: 2011
cur table: 2004
epoch: 1000
next table: 1620
cur table: 1550
epoch: 1000
next table: 1617
cur table: 1620
epoch: 1000
next table: 2012
cur table: 2011
epoch: 1000
next table: 1625
cur table: 1617
epoch: 1000
next table: 2015
cur table: 2012
epoch: 1000
next table: 1618
cur table: 1625
epoch: 1000
next table: 2014
cur table: 2015
epoch: 1000
next table: 1605
cur table: 1618
epoch: 1000
next table: 2011
cur table: 2014
epoch: 1000
next table: 1618
cur table: 1605
epoch: 1000
next table: 2013
cur table: 2011
epoch: 1000
next table: 1603
cur table: 1618
epoch: 1000
next table: 2013
cur table: 2013
epoch: 1000
next table: 1620
cur table: 1603
epoch: 1000
next table: 2011
cur table: 2013
epoch: 1000
next table: 1613
cur table: 1620
epoch: 1000
next table: 2014
cur table: 2011
epoch: 1000
next table: 1610
cur table: 1613
epoch: 1000
next table: 2013
cur table: 2014
epoch: 1000
next table: 1609
cur table: 1610
epoch: 1000
next table: 2009
cur table: 2013
epoch: 1000
next table: 1614
cur table: 1609
epoch: 1000
next table: 2016
cur table: 2009
epoch: 1000
next table: 1621
cur table: 1614
epoch: 1000
next table: 2010
cur table: 2016
epoch: 1000
next table: 1604
cur table: 1621
epoch: 1000
next table: 2013
cur table: 2010
epoch: 1000
next table: 1626
cur table: 1604
epoch: 1000
next table: 2013
cur table: 2013
epoch: 1000
next table: 1638
cur table: 1626
epoch: 1000
next table: 2015
cur table: 2013
epoch: 1000
next table: 1644
cur table: 1638
epoch: 1000
next table: 2014
cur table: 2015
epoch: 1000
next table: 1625
cur table: 1644
epoch: 1000
next table: 2011
cur table: 2014
epoch: 1000
next table: 1631
cur table: 1625
epoch: 1000
next table: 2015
cur table: 2011
epoch: 1000
next table: 1594
cur table: 1631
epoch: 1000
next table: 2012
cur table: 2015
epoch: 1000
next table: 1614
cur table: 1594
epoch: 1000
next table: 1607
cur table: 1614
epoch: 1000
next table: 2009
cur table: 2012
epoch: 1000
next table: 1615
cur table: 1607
epoch: 1000
next table: 2014
cur table: 2009
epoch: 1000
next table: 1623
cur table: 1615
epoch: 1000
next table: 2012
cur table: 2014
epoch: 1000
next table: 1610
cur table: 1623
epoch: 1000
next table: 2014
cur table: 2012
epoch: 1000
next table: 1613
cur table: 1610
epoch: 1000
next table: 2014
cur table: 2014
epoch: 1000
next table: 1613
cur table: 1613
epoch: 1000
next table: 2013
cur table: 2014
epoch: 1000
next table: 1600
cur table: 1613
epoch: 1000
next table: 2013
cur table: 2013
epoch: 1000
next table: 1622
cur table: 1600
epoch: 1000
next table: 2009
cur table: 2013
epoch: 1000
next table: 1627
cur table: 1622
epoch: 1000
next table: 2013
cur table: 2009
epoch: 1000
next table: 1615
cur table: 1627
epoch: 1000
next table: 2012
cur table: 2013
epoch: 1000
next table: 1613
cur table: 1615
epoch: 1000
next table: 2015
cur table: 2012
epoch: 1000
next table: 1607
cur table: 1613
epoch: 1000
next table: 2011
cur table: 2015
epoch: 1000
next table: 1615
cur table: 1607
epoch: 1000
next table: 2013
cur table: 2011
epoch: 1000
next table: 1609
cur table: 1615
epoch: 1000
next table: 2009
cur table: 2013
epoch: 1000
next table: 1617
cur table: 1609
epoch: 1000
next table: 2016
cur table: 2009
epoch: 1000
next table: 1604
cur table: 1617
epoch: 1000
next table: 2011
cur table: 2016
epoch: 1000
next table: 1612
cur table: 1604
epoch: 1000
next table: 2012
cur table: 2011
epoch: 1000
next table: 1621
cur table: 1612
epoch: 1000
next table: 2014
cur table: 2012
epoch: 1000
next table: 1645
cur table: 1621
epoch: 1000
next table: 2012
cur table: 2014
epoch: 1000
next table: 1632
cur table: 1645
epoch: 1000
next table: 1623
cur table: 1632
epoch: 1000
next table: 2014
cur table: 2012
epoch: 1000
next table: 1617
cur table: 1623
epoch: 1000
next table: 2008
cur table: 2014
epoch: 1000
next table: 1615
cur table: 1617
epoch: 1000
next table: 2012
cur table: 2008
epoch: 1000
next table: 1628
cur table: 1615
epoch: 1000
next table: 2017
cur table: 2012
epoch: 1000
next table: 1601
cur table: 1628
epoch: 1000
next table: 2007
cur table: 2017
epoch: 1000
next table: 1613
cur table: 1601
epoch: 1000
next table: 2014
cur table: 2007
epoch: 1000
next table: 1608
cur table: 1613
epoch: 1000
next table: 2012
cur table: 2014
epoch: 1000
next table: 1614
cur table: 1608
epoch: 1000
next table: 2016
cur table: 2012
epoch: 1000
next table: 1613
cur table: 1614
epoch: 1000
next table: 2008
cur table: 2016
epoch: 1000
next table: 1611
cur table: 1613
epoch: 1000
next table: 2012
cur table: 2008
epoch: 1000
next table: 1609
cur table: 1611
epoch: 1000
next table: 2014
cur table: 2012
epoch: 1000
next table: 1606
cur table: 1609
epoch: 1000
next table: 2013
cur table: 2014
epoch: 1000
next table: 1611
cur table: 1606
epoch: 1000
next table: 2011
cur table: 2013
epoch: 1000
next table: 1615
cur table: 1611
epoch: 1000
next table: 2013
cur table: 2011
epoch: 1000
next table: 1621
cur table: 1615
epoch: 1000
next table: 2012
cur table: 2013
epoch: 1000
next table: 1613
cur table: 1621
epoch: 1000
next table: 2014
cur table: 2012
epoch: 1000
next table: 1612
cur table: 1613
epoch: 1000
next table: 2015
cur table: 2014
epoch: 1000
next table: 1613
cur table: 1612
epoch: 1000
next table: 2009
cur table: 2015
epoch: 1000
next table: 1613
cur table: 1613
epoch: 1000
next table: 2015
cur table: 2009
epoch: 1000
next table: 1712
cur table: 1613
epoch: 1000
next table: 2013
cur table: 2015
epoch: 1000
next table: 2181
cur table: 1712
epoch: 1000
next table: 2012
cur table: 2013
epoch: 1000
next table: 2009
cur table: 2012
epoch: 1000
next table: 2216
cur table: 2181
epoch: 1000
next table: 2014
cur table: 2009
epoch: 1000
next table: 2012
cur table: 2014
epoch: 1000
next table: 2172
cur table: 2216
epoch: 1000
next table: 2014
cur table: 2012
epoch: 1000
next table: 2014
cur table: 2014
epoch: 1000
next table: 2142
cur table: 2172
epoch: 1000
next table: 2015
cur table: 2014
epoch: 1000
next table: 2010
cur table: 2015
epoch: 1000
next table: 2158
cur table: 2142
epoch: 1000
next table: 2011
cur table: 2010
epoch: 1000
next table: 2139
cur table: 2158
epoch: 1000
next table: 2012
cur table: 2011
epoch: 1000
next table: 2010
cur table: 2012
epoch: 1000
next table: 2165
cur table: 2139
epoch: 1000
next table: 2013
cur table: 2010
epoch: 1000
next table: 2011
cur table: 2013
epoch: 1000
next table: 2182
cur table: 2165
epoch: 1000
next table: 2009
cur table: 2011
epoch: 1000
next table: 2013
cur table: 2009
epoch: 1000
next table: 2175
cur table: 2182
epoch: 1000
next table: 2013
cur table: 2013
epoch: 1000
next table: 2011
cur table: 2013
epoch: 1000
next table: 2196
cur table: 2175
epoch: 1000
next table: 2014
cur table: 2011
epoch: 1000
next table: 2008
cur table: 2014
epoch: 1000
next table: 2202
cur table: 2196
epoch: 1000
next table: 2016
cur table: 2008
epoch: 1000
next table: 2211
cur table: 2202
epoch: 1000
next table: 2012
cur table: 2016
epoch: 1000
next table: 2012
cur table: 2012
epoch: 1000
next table: 2233
cur table: 2211
epoch: 1000
next table: 2010
cur table: 2012
epoch: 1000
next table: 2016
cur table: 2010
epoch: 1000
next table: 2304
cur table: 2233
epoch: 1000
next table: 2010
cur table: 2016
epoch: 1000
next table: 2012
cur table: 2010
epoch: 1000
next table: 2200
cur table: 2304
epoch: 1000
next table: 2011
cur table: 2012
epoch: 1000
next table: 2013
cur table: 2011
epoch: 1000
next table: 2189
cur table: 2200
epoch: 1000
next table: 2010
cur table: 2013
epoch: 1000
next table: 2014
cur table: 2010
epoch: 1000
next table: 2189
cur table: 2189
epoch: 1000
next table: 2012
cur table: 2014
epoch: 1000
next table: 2013
cur table: 2012
epoch: 1000
next table: 2213
cur table: 2189
epoch: 1000
next table: 2012
cur table: 2013
epoch: 1000
next table: 2015
cur table: 2012
epoch: 1000
next table: 2218
cur table: 2213
epoch: 1000
next table: 2010
cur table: 2015
epoch: 1000
next table: 2014
cur table: 2010
epoch: 1000
next table: 2214
cur table: 2218
epoch: 1000
next table: 2014
cur table: 2014
epoch: 1000
next table: 2208
cur table: 2214
epoch: 1000
next table: 2013
cur table: 2014
epoch: 1000
next table: 2012
cur table: 2013
epoch: 1000
next table: 2201
cur table: 2208
epoch: 1000
next table: 2012
cur table: 2012
epoch: 1000
next table: 2013
cur table: 2012
epoch: 1000
next table: 2210
cur table: 2201
epoch: 1000
next table: 2011
cur table: 2013
epoch: 1000
next table: 2011
cur table: 2011
epoch: 1000
next table: 2218
cur table: 2210
epoch: 1000
next table: 2011
cur table: 2011
epoch: 1000
next table: 2013
cur table: 2011
epoch: 1000
next table: 2235
cur table: 2218
epoch: 1000
next table: 2013
cur table: 2013
epoch: 1000
next table: 2019
cur table: 2013
epoch: 1000
next table: 2297
cur table: 2235
epoch: 1000
next table: 2013
cur table: 2019
epoch: 1000
next table: 2009
cur table: 2013
epoch: 1000
next table: 2219
cur table: 2297
epoch: 1000
next table: 2014
cur table: 2009
epoch: 1000
next table: 2013
cur table: 2014
epoch: 1000
next table: 2218
cur table: 2219
epoch: 1000
next table: 2008
cur table: 2013
epoch: 1000
next table: 2017
cur table: 2008
epoch: 1000
next table: 2213
cur table: 2218
epoch: 1000
next table: 2008
cur table: 2017
epoch: 1000
next table: 2212
cur table: 2213
epoch: 1000
next table: 2012
cur table: 2008
epoch: 1000
next table: 2012
cur table: 2012
epoch: 1000
next table: 2236
cur table: 2212
epoch: 1000
next table: 2013
cur table: 2012
epoch: 1000
next table: 2012
cur table: 2013
epoch: 1000
next table: 2207
cur table: 2236
epoch: 1000
next table: 2014
cur table: 2012
epoch: 1000
next table: 2012
cur table: 2014
epoch: 1000
next table: 2214
cur table: 2207
epoch: 1000
next table: 2015
cur table: 2012
epoch: 1000
next table: 2009
cur table: 2015
epoch: 1000
next table: 2208
cur table: 2214
epoch: 1000
next table: 2012
cur table: 2009
epoch: 1000
next table: 2014
cur table: 2012
epoch: 1000
next table: 2220
cur table: 2208
epoch: 1000
next table: 2014
cur table: 2014
epoch: 1000
next table: 2011
cur table: 2014
epoch: 1000
next table: 2191
cur table: 2220
epoch: 1000
next table: 2013
cur table: 2011
epoch: 1000
next table: 2012
cur table: 2013
epoch: 1000
next table: 2254
cur table: 2191
epoch: 1000
next table: 2010
cur table: 2012
epoch: 1000
next table: 2014
cur table: 2010
epoch: 1000
next table: 2302
cur table: 2254
epoch: 1000
next table: 2012
cur table: 2014
epoch: 1000
next table: 2014
cur table: 2012
epoch: 1000
next table: 2220
cur table: 2302
epoch: 1000
next table: 2014
cur table: 2014
epoch: 1000
next table: 2216
cur table: 2220
epoch: 1000
next table: 2013
cur table: 2014
epoch: 1000
next table: 2007
cur table: 2013
epoch: 1000
next table: 2004
cur table: 2216
epoch: 1000
next table: 2014
cur table: 2007
epoch: 1000
next table: 1634
cur table: 2004
epoch: 1000
next table: 2012
cur table: 2014
epoch: 1000
next table: 1633
cur table: 1634
epoch: 1000
next table: 2014
cur table: 2012
epoch: 1000
next table: 1630
cur table: 1633
epoch: 1000
next table: 2015
cur table: 2014
epoch: 1000
next table: 1635
cur table: 1630
epoch: 1000
next table: 2013
cur table: 2015
epoch: 1000
next table: 1632
cur table: 1635
epoch: 1000
next table: 2014
cur table: 2013
epoch: 1000
next table: 1633
cur table: 1632
epoch: 1000
next table: 2015
cur table: 2014
epoch: 1000
next table: 1633
cur table: 1633
epoch: 1000
next table: 2011
cur table: 2015
epoch: 1000
next table: 1626
cur table: 1633
epoch: 1000
next table: 2015
cur table: 2011
epoch: 1000
next table: 1640
cur table: 1626
epoch: 1000
next table: 2012
cur table: 2015
epoch: 1000
next table: 1633
cur table: 1640
epoch: 1000
next table: 2016
cur table: 2012
epoch: 1000
next table: 1633
cur table: 1633
epoch: 1000
next table: 2012
cur table: 2016
epoch: 1000
next table: 1639
cur table: 1633
epoch: 1000
next table: 2015
cur table: 2012
epoch: 1000
next table: 1644
cur table: 1639
epoch: 1000
next table: 2014
cur table: 2015
epoch: 1000
next table: 1640
cur table: 1644
epoch: 1000
next table: 2014
cur table: 2014
epoch: 1000
next table: 1647
cur table: 1640
epoch: 1000
next table: 2014
cur table: 2014
epoch: 1000
next table: 1642
cur table: 1647
epoch: 1000
next table: 2014
cur table: 2014
epoch: 1000
next table: 1640
cur table: 1642
epoch: 1000
next table: 2011
cur table: 2014
epoch: 1000
next table: 1650
cur table: 1640
epoch: 1000
next table: 2014
cur table: 2011
epoch: 1000
next table: 1650
cur table: 1650
epoch: 1000
next table: 2012
cur table: 2014
epoch: 1000
next table: 1657
cur table: 1650
epoch: 1000
next table: 2016
cur table: 2012
epoch: 1000
next table: 1667
cur table: 1657
epoch: 1000
next table: 2012
cur table: 2016
epoch: 1000
next table: 1674
cur table: 1667
epoch: 1000
next table: 2015
cur table: 2012
epoch: 1000
next table: 1674
cur table: 1674
epoch: 1000
next table: 2014
cur table: 2015
epoch: 1000
next table: 1696
cur table: 1674
epoch: 1000
next table: 2014
cur table: 2014
epoch: 1000
next table: 1686
cur table: 1696
epoch: 1000
next table: 2014
cur table: 2014
epoch: 1000
next table: 2015
cur table: 2014
epoch: 1000
next table: 1740
cur table: 1686
epoch: 1000
next table: 2010
cur table: 2015
epoch: 1000
next table: 1824
cur table: 1740
epoch: 1000
next table: 2014
cur table: 2010
epoch: 1000
next table: 1839
cur table: 1824
epoch: 1000
next table: 2012
cur table: 2014
epoch: 1000
next table: 2017
cur table: 2012
epoch: 1000
next table: 1844
cur table: 1839
epoch: 1000
next table: 2011
cur table: 2017
epoch: 1000
next table: 1834
cur table: 1844
epoch: 1000
next table: 2015
cur table: 2011
epoch: 1000
next table: 1845
cur table: 1834
epoch: 1000
next table: 2014
cur table: 2015
epoch: 1000
next table: 2014
cur table: 2014
epoch: 1000
next table: 1845
cur table: 1845
epoch: 1000
next table: 2014
cur table: 2014
epoch: 1000
next table: 1847
cur table: 1845
epoch: 1000
next table: 2013
cur table: 2014
epoch: 1000
next table: 1842
cur table: 1847
epoch: 1000
next table: 2012
cur table: 2013
epoch: 1000
next table: 2013
cur table: 2012
epoch: 1000
next table: 1840
cur table: 1842
epoch: 1000
next table: 2014
cur table: 2013
epoch: 1000
next table: 1846
cur table: 1840
epoch: 1000
next table: 2016
cur table: 2014
epoch: 1000
next table: 1841
cur table: 1846
epoch: 1000
next table: 2012
cur table: 2016
epoch: 1000
next table: 2014
cur table: 2012
epoch: 1000
next table: 1853
cur table: 1841
epoch: 1000
next table: 2015
cur table: 2014
epoch: 1000
next table: 1845
cur table: 1853
epoch: 1000
next table: 2013
cur table: 2015
epoch: 1000
next table: 1835
cur table: 1845
epoch: 1000
next table: 2016
cur table: 2013
epoch: 1000
next table: 2012
cur table: 2016
epoch: 1000
next table: 2162
cur table: 1835
epoch: 1000
next table: 2012
cur table: 2012
epoch: 1000
next table: 2013
cur table: 2012
epoch: 1000
next table: 2275
cur table: 2162
epoch: 1000
next table: 2015
cur table: 2013
epoch: 1000
next table: 2014
cur table: 2015
epoch: 1000
next table: 2289
cur table: 2275
epoch: 1000
next table: 2014
cur table: 2014
epoch: 1000
next table: 2014
cur table: 2014
epoch: 1000
next table: 2280
cur table: 2289
epoch: 1000
next table: 2014
cur table: 2014
epoch: 1000
next table: 2013
cur table: 2014
epoch: 1000
next table: 2286
cur table: 2280
epoch: 1000
next table: 2016
cur table: 2013
epoch: 1000
next table: 2010
cur table: 2016
epoch: 1000
next table: 2270
cur table: 2286
epoch: 1000
next table: 2015
cur table: 2010
epoch: 1000
next table: 2011
cur table: 2015
epoch: 1000
next table: 2274
cur table: 2270
epoch: 1000
next table: 2015
cur table: 2011
epoch: 1000
next table: 2014
cur table: 2015
epoch: 1000
next table: 2279
cur table: 2274
epoch: 1000
next table: 2014
cur table: 2014
epoch: 1000
next table: 2014
cur table: 2014
epoch: 1000
next table: 2285
cur table: 2279
epoch: 1000
next table: 2015
cur table: 2014
epoch: 1000
next table: 2012
cur table: 2015
epoch: 1000
next table: 2281
cur table: 2285
epoch: 1000
next table: 2016
cur table: 2012
epoch: 1000
next table: 2010
cur table: 2016
epoch: 1000
next table: 2280
cur table: 2281
epoch: 1000
next table: 2015
cur table: 2010
epoch: 1000
next table: 2011
cur table: 2015
epoch: 1000
next table: 2287
cur table: 2280
epoch: 1000
next table: 2015
cur table: 2011
epoch: 1000
next table: 2014
cur table: 2015
epoch: 1000
next table: 2278
cur table: 2287
epoch: 1000
next table: 2014
cur table: 2014
epoch: 1000
next table: 2014
cur table: 2014
epoch: 1000
next table: 2271
cur table: 2278
epoch: 1000
next table: 2015
cur table: 2014
epoch: 1000
next table: 2012
cur table: 2015
epoch: 1000
next table: 2274
cur table: 2271
epoch: 1000
next table: 2016
cur table: 2012
epoch: 1000
next table: 2011
cur table: 2016
epoch: 1000
next table: 2281
cur table: 2274
epoch: 1000
next table: 2013
cur table: 2011
epoch: 1000
next table: 2012
cur table: 2013
epoch: 1000
next table: 2281
cur table: 2281
epoch: 1000
next table: 2014
cur table: 2012
epoch: 1000
next table: 2015
cur table: 2014
epoch: 1000
next table: 2286
cur table: 2281
epoch: 1000
next table: 2013
cur table: 2015
epoch: 1000
next table: 2014
cur table: 2013
epoch: 1000
next table: 2281
cur table: 2286
epoch: 1000
next table: 2014
cur table: 2014
epoch: 1000
next table: 2014
cur table: 2014
epoch: 1000
next table: 2292
cur table: 2281
epoch: 1000
next table: 2017
cur table: 2014
epoch: 1000
next table: 2010
cur table: 2017
epoch: 1000
next table: 2268
cur table: 2292
epoch: 1000
next table: 2014
cur table: 2010
epoch: 1000
next table: 2011
cur table: 2014
epoch: 1000
next table: 2012
cur table: 2011
epoch: 1000
next table: 2287
cur table: 2268
epoch: 1000
next table: 2014
cur table: 2012
epoch: 1000
next table: 2013
cur table: 2014
epoch: 1000
next table: 2274
cur table: 2287
epoch: 1000
next table: 2016
cur table: 2013
epoch: 1000
next table: 2011
cur table: 2016
epoch: 1000
next table: 2288
cur table: 2274
Heartbeat CPU 0 instructions: 10000002 cycles: 3115300 heartbeat IPC: 3.20996 cumulative IPC: 3.20996 (Simulation time: 0 hr 3 min 12 sec) 
epoch: 1000
next table: 2015
cur table: 2011
epoch: 1000
next table: 2014
cur table: 2015
epoch: 1000
next table: 2278
cur table: 2288
epoch: 1000
next table: 2012
cur table: 2014
epoch: 1000
next table: 2012
cur table: 2012
epoch: 1000
next table: 2284
cur table: 2278
epoch: 1000
next table: 2014
cur table: 2012
epoch: 1000
next table: 2013
cur table: 2014
epoch: 1000
next table: 2289
cur table: 2284
epoch: 1000
next table: 2015
cur table: 2013
epoch: 1000
next table: 2013
cur table: 2015
epoch: 1000
next table: 2290
cur table: 2289
epoch: 1000
next table: 2017
cur table: 2013
epoch: 1000
next table: 2012
cur table: 2017
epoch: 1000
next table: 2297
cur table: 2290
epoch: 1000
next table: 2014
cur table: 2012
epoch: 1000
next table: 2013
cur table: 2014
epoch: 1000
next table: 2287
cur table: 2297
epoch: 1000
next table: 2012
cur table: 2013
epoch: 1000
next table: 2013
cur table: 2012
epoch: 1000
next table: 2299
cur table: 2287
epoch: 1000
next table: 2014
cur table: 2013
epoch: 1000
next table: 2013
cur table: 2014
epoch: 1000
next table: 2299
cur table: 2299
epoch: 1000
next table: 2015
cur table: 2013
epoch: 1000
next table: 2013
cur table: 2015
epoch: 1000
next table: 2290
cur table: 2299
epoch: 1000
next table: 2017
cur table: 2013
epoch: 1000
next table: 2011
cur table: 2017
epoch: 1000
next table: 2288
cur table: 2290
epoch: 1000
next table: 2015
cur table: 2011
epoch: 1000
next table: 2014
cur table: 2015
epoch: 1000
next table: 2302
cur table: 2288
epoch: 1000
next table: 2011
cur table: 2014
epoch: 1000
next table: 2014
cur table: 2011
epoch: 1000
next table: 2289
cur table: 2302
epoch: 1000
next table: 2013
cur table: 2014
epoch: 1000
next table: 2015
cur table: 2013
epoch: 1000
next table: 2292
cur table: 2289
epoch: 1000
next table: 2013
cur table: 2015
epoch: 1000
next table: 2014
cur table: 2013
epoch: 1000
next table: 2298
cur table: 2292
epoch: 1000
next table: 2016
cur table: 2014
epoch: 1000
next table: 2012
cur table: 2016
epoch: 1000
next table: 2280
cur table: 2298
epoch: 1000
next table: 2014
cur table: 2012
epoch: 1000
next table: 2013
cur table: 2014
epoch: 1000
next table: 2291
cur table: 2280
epoch: 1000
next table: 2013
cur table: 2013
epoch: 1000
next table: 2014
cur table: 2013
epoch: 1000
next table: 2302
cur table: 2291
epoch: 1000
next table: 2013
cur table: 2014
epoch: 1000
next table: 2016
cur table: 2013
epoch: 1000
next table: 2286
cur table: 2302
epoch: 1000
next table: 2012
cur table: 2016
epoch: 1000
next table: 2015
cur table: 2012
epoch: 1000
next table: 2293
cur table: 2286
epoch: 1000
next table: 2010
cur table: 2015
epoch: 1000
next table: 2008
cur table: 2010
epoch: 1000
next table: 1533
cur table: 2293
epoch: 1000
next table: 2008
cur table: 2008
epoch: 1000
next table: 1452
cur table: 1533
epoch: 1000
next table: 2011
cur table: 2008
epoch: 1000
next table: 1430
cur table: 1452
epoch: 1000
next table: 2009
cur table: 2011
epoch: 1000
next table: 1452
cur table: 1430
epoch: 1000
next table: 2017
cur table: 2009
epoch: 1000
next table: 1436
cur table: 1452
epoch: 1000
next table: 2012
cur table: 2017
epoch: 1000
next table: 1458
cur table: 1436
epoch: 1000
next table: 2014
cur table: 2012
epoch: 1000
next table: 1447
cur table: 1458
epoch: 1000
next table: 2010
cur table: 2014
epoch: 1000
next table: 1456
cur table: 1447
epoch: 1000
next table: 2014
cur table: 2010
epoch: 1000
next table: 2017
cur table: 2014
epoch: 1000
next table: 1452
cur table: 1456
epoch: 1000
next table: 2014
cur table: 2017
epoch: 1000
next table: 1438
cur table: 1452
epoch: 1000
next table: 2013
cur table: 2014
epoch: 1000
next table: 1450
cur table: 1438
epoch: 1000
next table: 2015
cur table: 2013
epoch: 1000
next table: 1446
cur table: 1450
epoch: 1000
next table: 2009
cur table: 2015
epoch: 1000
next table: 1453
cur table: 1446
epoch: 1000
next table: 2014
cur table: 2009
epoch: 1000
next table: 1451
cur table: 1453
epoch: 1000
next table: 2008
cur table: 2014
epoch: 1000
next table: 1445
cur table: 1451
epoch: 1000
next table: 2011
cur table: 2008
epoch: 1000
next table: 2014
cur table: 2011
epoch: 1000
next table: 1456
cur table: 1445
epoch: 1000
next table: 2013
cur table: 2014
epoch: 1000
next table: 1442
cur table: 1456
epoch: 1000
next table: 2015
cur table: 2013
epoch: 1000
next table: 1449
cur table: 1442
epoch: 1000
next table: 2010
cur table: 2015
epoch: 1000
next table: 1450
cur table: 1449
epoch: 1000
next table: 2015
cur table: 2010
epoch: 1000
next table: 1442
cur table: 1450
epoch: 1000
next table: 2017
cur table: 2015
epoch: 1000
next table: 1453
cur table: 1442
epoch: 1000
next table: 2012
cur table: 2017
epoch: 1000
next table: 1443
cur table: 1453
epoch: 1000
next table: 2011
cur table: 2012
epoch: 1000
next table: 1446
cur table: 1443
epoch: 1000
next table: 2014
cur table: 2011
epoch: 1000
next table: 2018
cur table: 2014
epoch: 1000
next table: 1442
cur table: 1446
epoch: 1000
next table: 2012
cur table: 2018
epoch: 1000
next table: 1443
cur table: 1442
epoch: 1000
next table: 2012
cur table: 2012
epoch: 1000
next table: 1448
cur table: 1443
epoch: 1000
next table: 2015
cur table: 2012
epoch: 1000
next table: 1457
cur table: 1448
epoch: 1000
next table: 2012
cur table: 2015
epoch: 1000
next table: 1454
cur table: 1457
epoch: 1000
next table: 2011
cur table: 2012
epoch: 1000
next table: 1454
cur table: 1454
epoch: 1000
next table: 2006
cur table: 2011
epoch: 1000
next table: 1452
cur table: 1454
epoch: 1000
next table: 2011
cur table: 2006
epoch: 1000
next table: 2014
cur table: 2011
epoch: 1000
next table: 1437
cur table: 1452
epoch: 1000
next table: 2019
cur table: 2014
epoch: 1000
next table: 1441
cur table: 1437
epoch: 1000
next table: 2012
cur table: 2019
epoch: 1000
next table: 1435
cur table: 1441
epoch: 1000
next table: 2010
cur table: 2012
epoch: 1000
next table: 1429
cur table: 1435
epoch: 1000
next table: 2016
cur table: 2010
epoch: 1000
next table: 1446
cur table: 1429
epoch: 1000
next table: 2015
cur table: 2016
epoch: 1000
next table: 1441
cur table: 1446
epoch: 1000
next table: 2009
cur table: 2015
epoch: 1000
next table: 1454
cur table: 1441
epoch: 1000
next table: 2015
cur table: 2009
epoch: 1000
next table: 2015
cur table: 2015
epoch: 1000
next table: 1438
cur table: 1454
epoch: 1000
next table: 2008
cur table: 2015
epoch: 1000
next table: 1442
cur table: 1438
epoch: 1000
next table: 2009
cur table: 2008
epoch: 1000
next table: 1455
cur table: 1442
epoch: 1000
next table: 2011
cur table: 2009
epoch: 1000
next table: 1437
cur table: 1455
epoch: 1000
next table: 2018
cur table: 2011
epoch: 1000
next table: 1450
cur table: 1437
epoch: 1000
next table: 2011
cur table: 2018
epoch: 1000
next table: 1510
cur table: 1450
epoch: 1000
next table: 2013
cur table: 2011
epoch: 1000
next table: 1502
cur table: 1510
epoch: 1000
next table: 2011
cur table: 2013
epoch: 1000
next table: 1459
cur table: 1502
epoch: 1000
next table: 2015
cur table: 2011
epoch: 1000
next table: 2013
cur table: 2015
epoch: 1000
next table: 1443
cur table: 1459
epoch: 1000
next table: 2014
cur table: 2013
epoch: 1000
next table: 1437
cur table: 1443
epoch: 1000
next table: 2013
cur table: 2014
epoch: 1000
next table: 1459
cur table: 1437
epoch: 1000
next table: 2016
cur table: 2013
epoch: 1000
next table: 1440
cur table: 1459
epoch: 1000
next table: 2012
cur table: 2016
epoch: 1000
next table: 1435
cur table: 1440
epoch: 1000
next table: 2014
cur table: 2012
epoch: 1000
next table: 1455
cur table: 1435
epoch: 1000
next table: 2009
cur table: 2014
epoch: 1000
next table: 1451
cur table: 1455
epoch: 1000
next table: 2016
cur table: 2009
epoch: 1000
next table: 2012
cur table: 2016
epoch: 1000
next table: 1440
cur table: 1451
epoch: 1000
next table: 2013
cur table: 2012
epoch: 1000
next table: 1447
cur table: 1440
epoch: 1000
next table: 2015
cur table: 2013
epoch: 1000
next table: 1447
cur table: 1447
epoch: 1000
next table: 2013
cur table: 2015
epoch: 1000
next table: 1452
cur table: 1447
epoch: 1000
next table: 2006
cur table: 2013
epoch: 1000
next table: 1446
cur table: 1452
epoch: 1000
next table: 2016
cur table: 2006
epoch: 1000
next table: 1445
cur table: 1446
epoch: 1000
next table: 2012
cur table: 2016
epoch: 1000
next table: 1443
cur table: 1445
epoch: 1000
next table: 2016
cur table: 2012
epoch: 1000
next table: 1463
cur table: 1443
epoch: 1000
next table: 2014
cur table: 2016
epoch: 1000
next table: 2014
cur table: 2014
epoch: 1000
next table: 1447
cur table: 1463
epoch: 1000
next table: 2013
cur table: 2014
epoch: 1000
next table: 1462
cur table: 1447
epoch: 1000
next table: 2009
cur table: 2013
epoch: 1000
next table: 1454
cur table: 1462
epoch: 1000
next table: 2015
cur table: 2009
epoch: 1000
next table: 1466
cur table: 1454
epoch: 1000
next table: 2012
cur table: 2015
epoch: 1000
next table: 1472
cur table: 1466
epoch: 1000
next table: 2015
cur table: 2012
epoch: 1000
next table: 1448
cur table: 1472
epoch: 1000
next table: 2012
cur table: 2015
epoch: 1000
next table: 1460
cur table: 1448
epoch: 1000
next table: 2016
cur table: 2012
epoch: 1000
next table: 2009
cur table: 2016
epoch: 1000
next table: 1466
cur table: 1460
epoch: 1000
next table: 2016
cur table: 2009
epoch: 1000
next table: 1466
cur table: 1466
epoch: 1000
next table: 2014
cur table: 2016
epoch: 1000
next table: 1429
cur table: 1466
epoch: 1000
next table: 2018
cur table: 2014
epoch: 1000
next table: 1446
cur table: 1429
epoch: 1000
next table: 2013
cur table: 2018
epoch: 1000
next table: 1441
cur table: 1446
epoch: 1000
next table: 2009
cur table: 2013
epoch: 1000
next table: 1434
cur table: 1441
epoch: 1000
next table: 2010
cur table: 2009
epoch: 1000
next table: 1445
cur table: 1434
epoch: 1000
next table: 2017
cur table: 2010
epoch: 1000
next table: 2004
cur table: 2017
epoch: 1000
next table: 1450
cur table: 1445
epoch: 1000
next table: 2012
cur table: 2004
epoch: 1000
next table: 1449
cur table: 1450
epoch: 1000
next table: 2014
cur table: 2012
epoch: 1000
next table: 1438
cur table: 1449
epoch: 1000
next table: 2013
cur table: 2014
epoch: 1000
next table: 1450
cur table: 1438
epoch: 1000
next table: 2018
cur table: 2013
epoch: 1000
next table: 1448
cur table: 1450
epoch: 1000
next table: 2012
cur table: 2018
epoch: 1000
next table: 1456
cur table: 1448
epoch: 1000
next table: 2012
cur table: 2012
epoch: 1000
next table: 1439
cur table: 1456
epoch: 1000
next table: 2013
cur table: 2012
epoch: 1000
next table: 1448
cur table: 1439
epoch: 1000
next table: 2014
cur table: 2013
epoch: 1000
next table: 2013
cur table: 2014
epoch: 1000
next table: 1428
cur table: 1448
epoch: 1000
next table: 2014
cur table: 2013
epoch: 1000
next table: 1447
cur table: 1428
epoch: 1000
next table: 2013
cur table: 2014
epoch: 1000
next table: 1454
cur table: 1447
epoch: 1000
next table: 2015
cur table: 2013
epoch: 1000
next table: 1465
cur table: 1454
epoch: 1000
next table: 2010
cur table: 2015
epoch: 1000
next table: 1456
cur table: 1465
epoch: 1000
next table: 2016
cur table: 2010
epoch: 1000
next table: 1458
cur table: 1456
epoch: 1000
next table: 2013
cur table: 2016
epoch: 1000
next table: 1461
cur table: 1458
epoch: 1000
next table: 2017
cur table: 2013
epoch: 1000
next table: 2004
cur table: 2017
epoch: 1000
next table: 1445
cur table: 1461
epoch: 1000
next table: 2016
cur table: 2004
epoch: 1000
next table: 1447
cur table: 1445
epoch: 1000
next table: 2008
cur table: 2016
epoch: 1000
next table: 1453
cur table: 1447
epoch: 1000
next table: 2015
cur table: 2008
epoch: 1000
next table: 1458
cur table: 1453
epoch: 1000
next table: 2015
cur table: 2015
epoch: 1000
next table: 1438
cur table: 1458
epoch: 1000
next table: 2015
cur table: 2015
epoch: 1000
next table: 1448
cur table: 1438
epoch: 1000
next table: 2011
cur table: 2015
epoch: 1000
next table: 1451
cur table: 1448
epoch: 1000
next table: 2012
cur table: 2011
epoch: 1000
next table: 1454
cur table: 1451
epoch: 1000
next table: 2014
cur table: 2012
epoch: 1000
next table: 2010
cur table: 2014
epoch: 1000
next table: 1446
cur table: 1454
epoch: 1000
next table: 2013
cur table: 2010
epoch: 1000
next table: 1460
cur table: 1446
epoch: 1000
next table: 2007
cur table: 2013
epoch: 1000
next table: 1449
cur table: 1460
epoch: 1000
next table: 2015
cur table: 2007
epoch: 1000
next table: 1450
cur table: 1449
epoch: 1000
next table: 2012
cur table: 2015
epoch: 1000
next table: 1459
cur table: 1450
epoch: 1000
next table: 2015
cur table: 2012
epoch: 1000
next table: 1459
cur table: 1459
epoch: 1000
next table: 2016
cur table: 2015
epoch: 1000
next table: 1452
cur table: 1459
epoch: 1000
next table: 2013
cur table: 2016
epoch: 1000
next table: 2013
cur table: 2013
epoch: 1000
next table: 1451
cur table: 1452
epoch: 1000
next table: 2016
cur table: 2013
epoch: 1000
next table: 1466
cur table: 1451
epoch: 1000
next table: 2008
cur table: 2016
epoch: 1000
next table: 1459
cur table: 1466
epoch: 1000
next table: 2015
cur table: 2008
epoch: 1000
next table: 1463
cur table: 1459
epoch: 1000
next table: 2015
cur table: 2015
epoch: 1000
next table: 1451
cur table: 1463
epoch: 1000
next table: 2016
cur table: 2015
epoch: 1000
next table: 1448
cur table: 1451
epoch: 1000
next table: 2007
cur table: 2016
epoch: 1000
next table: 1435
cur table: 1448
epoch: 1000
next table: 2018
cur table: 2007
epoch: 1000
next table: 2014
cur table: 2018
epoch: 1000
next table: 1448
cur table: 1435
epoch: 1000
next table: 2011
cur table: 2014
epoch: 1000
next table: 1446
cur table: 1448
epoch: 1000
next table: 2013
cur table: 2011
epoch: 1000
next table: 1427
cur table: 1446
epoch: 1000
next table: 2015
cur table: 2013
epoch: 1000
next table: 1449
cur table: 1427
epoch: 1000
next table: 2014
cur table: 2015
epoch: 1000
next table: 1445
cur table: 1449
epoch: 1000
next table: 2015
cur table: 2014
epoch: 1000
next table: 1441
cur table: 1445
epoch: 1000
next table: 2016
cur table: 2015
epoch: 1000
next table: 1455
cur table: 1441
epoch: 1000
next table: 2015
cur table: 2016
epoch: 1000
next table: 2010
cur table: 2015
epoch: 1000
next table: 1460
cur table: 1455
epoch: 1000
next table: 2016
cur table: 2010
epoch: 1000
next table: 1439
cur table: 1460
epoch: 1000
next table: 2014
cur table: 2016
epoch: 1000
next table: 1444
cur table: 1439
epoch: 1000
next table: 2010
cur table: 2014
epoch: 1000
next table: 1459
cur table: 1444
epoch: 1000
next table: 2011
cur table: 2010
epoch: 1000
next table: 1443
cur table: 1459
epoch: 1000
next table: 2011
cur table: 2011
epoch: 1000
next table: 1451
cur table: 1443
epoch: 1000
next table: 2011
cur table: 2011
epoch: 1000
next table: 1441
cur table: 1451
epoch: 1000
next table: 2015
cur table: 2011
epoch: 1000
next table: 1453
cur table: 1441
epoch: 1000
next table: 2015
cur table: 2015
epoch: 1000
next table: 2014
cur table: 2015
epoch: 1000
next table: 1443
cur table: 1453
epoch: 1000
next table: 2014
cur table: 2014
epoch: 1000
next table: 1451
cur table: 1443
epoch: 1000
next table: 2016
cur table: 2014
epoch: 1000
next table: 1447
cur table: 1451
Heartbeat CPU 0 instructions: 20000002 cycles: 6334559 heartbeat IPC: 3.1063 cumulative IPC: 3.15728 (Simulation time: 0 hr 6 min 5 sec) 
epoch: 1000
next table: 2012
cur table: 2016
epoch: 1000
next table: 1441
cur table: 1447
epoch: 1000
next table: 2012
cur table: 2012
epoch: 1000
next table: 1448
cur table: 1441
epoch: 1000
next table: 2012
cur table: 2012
epoch: 1000
next table: 1448
cur table: 1448
epoch: 1000
next table: 2007
cur table: 2012
epoch: 1000
next table: 1458
cur table: 1448
epoch: 1000
next table: 2014
cur table: 2007
epoch: 1000
next table: 1438
cur table: 1458
epoch: 1000
next table: 2013
cur table: 2014
epoch: 1000
next table: 2016
cur table: 2013
epoch: 1000
next table: 1460
cur table: 1438
epoch: 1000
next table: 2009
cur table: 2016
epoch: 1000
next table: 1441
cur table: 1460
epoch: 1000
next table: 2017
cur table: 2009
epoch: 1000
next table: 1442
cur table: 1441
epoch: 1000
next table: 2012
cur table: 2017
epoch: 1000
next table: 1451
cur table: 1442
epoch: 1000
next table: 2014
cur table: 2012
epoch: 1000
next table: 1448
cur table: 1451
epoch: 1000
next table: 2010
cur table: 2014
epoch: 1000
next table: 1445
cur table: 1448
epoch: 1000
next table: 2017
cur table: 2010
epoch: 1000
next table: 1448
cur table: 1445
epoch: 1000
next table: 2007
cur table: 2017
epoch: 1000
next table: 2012
cur table: 2007
epoch: 1000
next table: 1446
cur table: 1448
epoch: 1000
next table: 2012
cur table: 2012
epoch: 1000
next table: 1443
cur table: 1446
epoch: 1000
next table: 2014
cur table: 2012
epoch: 1000
next table: 1451
cur table: 1443
epoch: 1000
next table: 2013
cur table: 2014
epoch: 1000
next table: 1462
cur table: 1451
epoch: 1000
next table: 2016
cur table: 2013
epoch: 1000
next table: 1452
cur table: 1462
epoch: 1000
next table: 2011
cur table: 2016
epoch: 1000
next table: 1457
cur table: 1452
epoch: 1000
next table: 2016
cur table: 2011
epoch: 1000
next table: 1456
cur table: 1457
epoch: 1000
next table: 2016
cur table: 2016
epoch: 1000
next table: 2003
cur table: 2016
epoch: 1000
next table: 1451
cur table: 1456
epoch: 1000
next table: 2011
cur table: 2003
epoch: 1000
next table: 1441
cur table: 1451
epoch: 1000
next table: 2016
cur table: 2011
epoch: 1000
next table: 1442
cur table: 1441
epoch: 1000
next table: 2015
cur table: 2016
epoch: 1000
next table: 1446
cur table: 1442
epoch: 1000
next table: 2012
cur table: 2015
epoch: 1000
next table: 1439
cur table: 1446
epoch: 1000
next table: 2015
cur table: 2012
epoch: 1000
next table: 1450
cur table: 1439
epoch: 1000
next table: 2013
cur table: 2015
epoch: 1000
next table: 1461
cur table: 1450
epoch: 1000
next table: 2013
cur table: 2013
epoch: 1000
next table: 2011
cur table: 2013
epoch: 1000
next table: 1453
cur table: 1461
epoch: 1000
next table: 2009
cur table: 2011
epoch: 1000
next table: 1462
cur table: 1453
epoch: 1000
next table: 2014
cur table: 2009
epoch: 1000
next table: 1447
cur table: 1462
epoch: 1000
next table: 2018
cur table: 2014
epoch: 1000
next table: 1455
cur table: 1447
epoch: 1000
next table: 2013
cur table: 2018
epoch: 1000
next table: 1433
cur table: 1455
epoch: 1000
next table: 2012
cur table: 2013
epoch: 1000
next table: 1456
cur table: 1433
epoch: 1000
next table: 2013
cur table: 2012
epoch: 1000
next table: 1451
cur table: 1456
epoch: 1000
next table: 2013
cur table: 2013
epoch: 1000
next table: 1454
cur table: 1451
epoch: 1000
next table: 2010
cur table: 2013
epoch: 1000
next table: 2017
cur table: 2010
epoch: 1000
next table: 1437
cur table: 1454
epoch: 1000
next table: 2011
cur table: 2017
epoch: 1000
next table: 1446
cur table: 1437
epoch: 1000
next table: 2016
cur table: 2011
epoch: 1000
next table: 1456
cur table: 1446
epoch: 1000
next table: 2013
cur table: 2016
epoch: 1000
next table: 1451
cur table: 1456
epoch: 1000
next table: 2016
cur table: 2013
epoch: 1000
next table: 1452
cur table: 1451
epoch: 1000
next table: 2013
cur table: 2016
epoch: 1000
next table: 1445
cur table: 1452
epoch: 1000
next table: 2011
cur table: 2013
epoch: 1000
next table: 1454
cur table: 1445
epoch: 1000
next table: 2012
cur table: 2011
epoch: 1000
next table: 2014
cur table: 2012
epoch: 1000
next table: 1446
cur table: 1454
epoch: 1000
next table: 2011
cur table: 2014
epoch: 1000
next table: 1458
cur table: 1446
epoch: 1000
next table: 2019
cur table: 2011
epoch: 1000
next table: 1450
cur table: 1458
epoch: 1000
next table: 2011
cur table: 2019
epoch: 1000
next table: 1445
cur table: 1450
epoch: 1000
next table: 2015
cur table: 2011
epoch: 1000
next table: 1442
cur table: 1445
epoch: 1000
next table: 2016
cur table: 2015
epoch: 1000
next table: 1452
cur table: 1442
epoch: 1000
next table: 2013
cur table: 2016
epoch: 1000
next table: 1454
cur table: 1452
epoch: 1000
next table: 2016
cur table: 2013
epoch: 1000
next table: 1447
cur table: 1454
epoch: 1000
next table: 2014
cur table: 2016
epoch: 1000
next table: 2018
cur table: 2014
epoch: 1000
next table: 1448
cur table: 1447
epoch: 1000
next table: 2012
cur table: 2018
epoch: 1000
next table: 1447
cur table: 1448
epoch: 1000
next table: 2008
cur table: 2012
epoch: 1000
next table: 1455
cur table: 1447
epoch: 1000
next table: 2012
cur table: 2008
epoch: 1000
next table: 1443
cur table: 1455
epoch: 1000
next table: 2015
cur table: 2012
epoch: 1000
next table: 1454
cur table: 1443
epoch: 1000
next table: 2010
cur table: 2015
epoch: 1000
next table: 1449
cur table: 1454
epoch: 1000
next table: 2016
cur table: 2010
epoch: 1000
next table: 1453
cur table: 1449
epoch: 1000
next table: 2014
cur table: 2016
epoch: 1000
next table: 2014
cur table: 2014
epoch: 1000
next table: 1456
cur table: 1453
epoch: 1000
next table: 2015
cur table: 2014
epoch: 1000
next table: 1468
cur table: 1456
epoch: 1000
next table: 2011
cur table: 2015
epoch: 1000
next table: 1438
cur table: 1468
epoch: 1000
next table: 2010
cur table: 2011
epoch: 1000
next table: 1457
cur table: 1438
epoch: 1000
next table: 2006
cur table: 2010
epoch: 1000
next table: 1432
cur table: 1457
epoch: 1000
next table: 2017
cur table: 2006
epoch: 1000
next table: 1453
cur table: 1432
epoch: 1000
next table: 2011
cur table: 2017
epoch: 1000
next table: 1429
cur table: 1453
epoch: 1000
next table: 2016
cur table: 2011
epoch: 1000
next table: 2010
cur table: 2016
epoch: 1000
next table: 1450
cur table: 1429
epoch: 1000
next table: 2013
cur table: 2010
epoch: 1000
next table: 1461
cur table: 1450
epoch: 1000
next table: 2015
cur table: 2013
epoch: 1000
next table: 1445
cur table: 1461
epoch: 1000
next table: 2012
cur table: 2015
epoch: 1000
next table: 1445
cur table: 1445
epoch: 1000
next table: 2014
cur table: 2012
epoch: 1000
next table: 1450
cur table: 1445
epoch: 1000
next table: 2009
cur table: 2014
epoch: 1000
next table: 1457
cur table: 1450
epoch: 1000
next table: 2013
cur table: 2009
epoch: 1000
next table: 1444
cur table: 1457
epoch: 1000
next table: 2014
cur table: 2013
epoch: 1000
next table: 2021
cur table: 2014
epoch: 1000
next table: 1446
cur table: 1444
epoch: 1000
next table: 2014
cur table: 2021
epoch: 1000
next table: 1450
cur table: 1446
epoch: 1000
next table: 2011
cur table: 2014
epoch: 1000
next table: 1449
cur table: 1450
epoch: 1000
next table: 2011
cur table: 2011
epoch: 1000
next table: 1432
cur table: 1449
epoch: 1000
next table: 2011
cur table: 2011
epoch: 1000
next table: 1434
cur table: 1432
epoch: 1000
next table: 2009
cur table: 2011
epoch: 1000
next table: 1446
cur table: 1434
epoch: 1000
next table: 2014
cur table: 2009
epoch: 1000
next table: 1439
cur table: 1446
epoch: 1000
next table: 2017
cur table: 2014
epoch: 1000
next table: 1433
cur table: 1439
epoch: 1000
next table: 2015
cur table: 2017
epoch: 1000
next table: 2012
cur table: 2015
epoch: 1000
next table: 1438
cur table: 1433
epoch: 1000
next table: 2013
cur table: 2012
epoch: 1000
next table: 1451
cur table: 1438
epoch: 1000
next table: 2014
cur table: 2013
epoch: 1000
next table: 1428
cur table: 1451
epoch: 1000
next table: 2015
cur table: 2014
epoch: 1000
next table: 1445
cur table: 1428
epoch: 1000
next table: 2012
cur table: 2015
epoch: 1000
next table: 1433
cur table: 1445
epoch: 1000
next table: 2010
cur table: 2012
epoch: 1000
next table: 1439
cur table: 1433
epoch: 1000
next table: 2017
cur table: 2010
epoch: 1000
next table: 1433
cur table: 1439
epoch: 1000
next table: 2017
cur table: 2017
epoch: 1000
next table: 1445
cur table: 1433
epoch: 1000
next table: 2015
cur table: 2017
epoch: 1000
next table: 2009
cur table: 2015
epoch: 1000
next table: 1453
cur table: 1445
epoch: 1000
next table: 2013
cur table: 2009
epoch: 1000
next table: 1451
cur table: 1453
epoch: 1000
next table: 2016
cur table: 2013
epoch: 1000
next table: 1448
cur table: 1451
epoch: 1000
next table: 2014
cur table: 2016
epoch: 1000
next table: 1463
cur table: 1448
epoch: 1000
next table: 2009
cur table: 2014
epoch: 1000
next table: 1457
cur table: 1463
epoch: 1000
next table: 2016
cur table: 2009
epoch: 1000
next table: 1451
cur table: 1457
epoch: 1000
next table: 2013
cur table: 2016
epoch: 1000
next table: 1452
cur table: 1451
epoch: 1000
next table: 2011
cur table: 2013
epoch: 1000
next table: 2014
cur table: 2011
epoch: 1000
next table: 1450
cur table: 1452
epoch: 1000
next table: 2016
cur table: 2014
epoch: 1000
next table: 1466
cur table: 1450
epoch: 1000
next table: 2014
cur table: 2016
epoch: 1000
next table: 1465
cur table: 1466
epoch: 1000
next table: 2013
cur table: 2014
epoch: 1000
next table: 1459
cur table: 1465
epoch: 1000
next table: 2014
cur table: 2013
epoch: 1000
next table: 1452
cur table: 1459
epoch: 1000
next table: 2013
cur table: 2014
epoch: 1000
next table: 1452
cur table: 1452
epoch: 1000
next table: 2010
cur table: 2013
epoch: 1000
next table: 1436
cur table: 1452
epoch: 1000
next table: 2008
cur table: 2010
epoch: 1000
next table: 2016
cur table: 2008
epoch: 1000
next table: 1440
cur table: 1436
epoch: 1000
next table: 2013
cur table: 2016
epoch: 1000
next table: 1445
cur table: 1440
epoch: 1000
next table: 2013
cur table: 2013
epoch: 1000
next table: 1449
cur table: 1445
epoch: 1000
next table: 2015
cur table: 2013
epoch: 1000
next table: 1446
cur table: 1449
epoch: 1000
next table: 2015
cur table: 2015
epoch: 1000
next table: 1463
cur table: 1446
epoch: 1000
next table: 2015
cur table: 2015
epoch: 1000
next table: 1445
cur table: 1463
epoch: 1000
next table: 2014
cur table: 2015
epoch: 1000
next table: 1453
cur table: 1445
epoch: 1000
next table: 2011
cur table: 2014
epoch: 1000
next table: 2008
cur table: 2011
epoch: 1000
next table: 1476
cur table: 1453
epoch: 1000
next table: 2005
cur table: 2008
epoch: 1000
next table: 2213
cur table: 1476
epoch: 1000
next table: 2013
cur table: 2005
epoch: 1000
next table: 2014
cur table: 2013
epoch: 1000
next table: 2228
cur table: 2213
epoch: 1000
next table: 2013
cur table: 2014
epoch: 1000
next table: 2014
cur table: 2013
epoch: 1000
next table: 2186
cur table: 2228
epoch: 1000
next table: 2011
cur table: 2014
epoch: 1000
next table: 2012
cur table: 2011
epoch: 1000
next table: 2209
cur table: 2186
epoch: 1000
next table: 2011
cur table: 2012
epoch: 1000
next table: 2012
cur table: 2011
epoch: 1000
next table: 2225
cur table: 2209
epoch: 1000
next table: 2014
cur table: 2012
epoch: 1000
next table: 2010
cur table: 2014
epoch: 1000
next table: 2216
cur table: 2225
epoch: 1000
next table: 2012
cur table: 2010
epoch: 1000
next table: 2013
cur table: 2012
epoch: 1000
next table: 2199
cur table: 2216
epoch: 1000
next table: 2011
cur table: 2013
epoch: 1000
next table: 2013
cur table: 2011
epoch: 1000
next table: 2254
cur table: 2199
epoch: 1000
next table: 2012
cur table: 2013
epoch: 1000
next table: 2012
cur table: 2012
epoch: 1000
next table: 2318
cur table: 2254
epoch: 1000
next table: 2012
cur table: 2012
epoch: 1000
next table: 2221
cur table: 2318
epoch: 1000
next table: 2015
cur table: 2012
epoch: 1000
next table: 2011
cur table: 2015
epoch: 1000
next table: 2208
cur table: 2221
epoch: 1000
next table: 2012
cur table: 2011
epoch: 1000
next table: 2011
cur table: 2012
epoch: 1000
next table: 2219
cur table: 2208
epoch: 1000
next table: 2015
cur table: 2011
epoch: 1000
next table: 2011
cur table: 2015
epoch: 1000
next table: 2233
cur table: 2219
epoch: 1000
next table: 2012
cur table: 2011
epoch: 1000
next table: 2013
cur table: 2012
epoch: 1000
next table: 2197
cur table: 2233
epoch: 1000
next table: 2012
cur table: 2013
epoch: 1000
next table: 2012
cur table: 2012
epoch: 1000
next table: 2208
cur table: 2197
epoch: 1000
next table: 2013
cur table: 2012
epoch: 1000
next table: 2014
cur table: 2013
epoch: 1000
next table: 2213
cur table: 2208
epoch: 1000
next table: 2013
cur table: 2014
epoch: 1000
next table: 2012
cur table: 2013
epoch: 1000
next table: 2198
cur table: 2213
epoch: 1000
next table: 2012
cur table: 2012
epoch: 1000
next table: 2010
cur table: 2012
epoch: 1000
next table: 2222
cur table: 2198
epoch: 1000
next table: 2014
cur table: 2010
epoch: 1000
next table: 2187
cur table: 2222
epoch: 1000
next table: 2014
cur table: 2014
epoch: 1000
next table: 2012
cur table: 2014
epoch: 1000
next table: 2222
cur table: 2187
epoch: 1000
next table: 2012
cur table: 2012
epoch: 1000
next table: 2015
cur table: 2012
epoch: 1000
next table: 2315
cur table: 2222
epoch: 1000
next table: 2014
cur table: 2015
epoch: 1000
next table: 2010
cur table: 2014
epoch: 1000
next table: 2230
cur table: 2315
epoch: 1000
next table: 2015
cur table: 2010
epoch: 1000
next table: 2013
cur table: 2015
epoch: 1000
next table: 2210
cur table: 2230
epoch: 1000
next table: 2013
cur table: 2013
epoch: 1000
next table: 2010
cur table: 2013
epoch: 1000
next table: 2207
cur table: 2210
epoch: 1000
next table: 2013
cur table: 2010
epoch: 1000
next table: 2013
cur table: 2013
epoch: 1000
next table: 2216
cur table: 2207
epoch: 1000
next table: 2012
cur table: 2013
epoch: 1000
next table: 2011
cur table: 2012
epoch: 1000
next table: 2189
cur table: 2216
epoch: 1000
next table: 2012
cur table: 2011
epoch: 1000
next table: 2196
cur table: 2189
epoch: 1000
next table: 2014
cur table: 2012
epoch: 1000
next table: 2013
cur table: 2014
epoch: 1000
next table: 2208
cur table: 2196
epoch: 1000
next table: 2014
cur table: 2013
epoch: 1000
next table: 2009
cur table: 2014
epoch: 1000
next table: 2205
cur table: 2208
epoch: 1000
next table: 2013
cur table: 2009
epoch: 1000
next table: 2013
cur table: 2013
epoch: 1000
next table: 2192
cur table: 2205
epoch: 1000
next table: 2013
cur table: 2013
epoch: 1000
next table: 2011
cur table: 2013
epoch: 1000
next table: 2214
cur table: 2192
epoch: 1000
next table: 2017
cur table: 2011
epoch: 1000
next table: 2008
cur table: 2017
epoch: 1000
next table: 2225
cur table: 2214
epoch: 1000
next table: 2012
cur table: 2008
epoch: 1000
next table: 2011
cur table: 2012
epoch: 1000
next table: 2295
cur table: 2225
epoch: 1000
next table: 2015
cur table: 2011
epoch: 1000
next table: 2011
cur table: 2015
epoch: 1000
next table: 2232
cur table: 2295
epoch: 1000
next table: 2013
cur table: 2011
epoch: 1000
next table: 2013
cur table: 2013
epoch: 1000
next table: 2202
cur table: 2232
epoch: 1000
next table: 2011
cur table: 2013
epoch: 1000
next table: 2200
cur table: 2202
epoch: 1000
next table: 2012
cur table: 2011
epoch: 1000
next table: 2015
cur table: 2012
epoch: 1000
next table: 2225
cur table: 2200
epoch: 1000
next table: 2010
cur table: 2015
epoch: 1000
next table: 2014
cur table: 2010
epoch: 1000
next table: 2214
cur table: 2225
epoch: 1000
next table: 2012
cur table: 2014
epoch: 1000
next table: 2015
cur table: 2012
epoch: 1000
next table: 2192
cur table: 2214
epoch: 1000
next table: 2009
cur table: 2015
epoch: 1000
next table: 2011
cur table: 2009
epoch: 1000
next table: 2210
cur table: 2192
epoch: 1000
next table: 2011
cur table: 2011
epoch: 1000
next table: 2014
cur table: 2011
epoch: 1000
next table: 2191
cur table: 2210
epoch: 1000
next table: 2014
cur table: 2014
epoch: 1000
next table: 2012
cur table: 2014
epoch: 1000
next table: 2205
cur table: 2191
epoch: 1000
next table: 2013
cur table: 2012
epoch: 1000
next table: 2009
cur table: 2013
epoch: 1000
next table: 2219
cur table: 2205
epoch: 1000
next table: 2015
cur table: 2009
epoch: 1000
next table: 2230
cur table: 2219
epoch: 1000
next table: 2011
cur table: 2015
epoch: 1000
next table: 2010
cur table: 2011
epoch: 1000
next table: 2309
cur table: 2230
epoch: 1000
next table: 2015
cur table: 2010
epoch: 1000
next table: 2014
cur table: 2015
epoch: 1000
next table: 2215
cur table: 2309
epoch: 1000
next table: 2010
cur table: 2014
epoch: 1000
next table: 2014
cur table: 2010
epoch: 1000
next table: 2204
cur table: 2215
epoch: 1000
next table: 2012
cur table: 2014
epoch: 1000
next table: 2014
cur table: 2012
epoch: 1000
next table: 2210
cur table: 2204
epoch: 1000
next table: 2012
cur table: 2014
epoch: 1000
next table: 2008
cur table: 2012
epoch: 1000
next table: 2219
cur table: 2210
epoch: 1000
next table: 2012
cur table: 2008
epoch: 1000
next table: 2011
cur table: 2012
epoch: 1000
next table: 2212
cur table: 2219
epoch: 1000
next table: 2011
cur table: 2011
epoch: 1000
next table: 2015
cur table: 2011
epoch: 1000
next table: 2206
cur table: 2212
epoch: 1000
next table: 2013
cur table: 2015
epoch: 1000
next table: 2014
cur table: 2013
epoch: 1000
next table: 2198
cur table: 2206
epoch: 1000
next table: 2011
cur table: 2014
epoch: 1000
next table: 2212
cur table: 2198
epoch: 1000
next table: 2011
cur table: 2011
epoch: 1000
next table: 2010
cur table: 2011
epoch: 1000
next table: 2209
cur table: 2212
epoch: 1000
next table: 2017
cur table: 2010
epoch: 1000
next table: 2010
cur table: 2017
epoch: 1000
next table: 2191
cur table: 2209
epoch: 1000
next table: 2016
cur table: 2010
epoch: 1000
next table: 2011
cur table: 2016
epoch: 1000
next table: 2226
cur table: 2191
epoch: 1000
next table: 2012
cur table: 2011
epoch: 1000
next table: 2016
cur table: 2012
epoch: 1000
next table: 2269
cur table: 2226
epoch: 1000
next table: 2009
cur table: 2016
epoch: 1000
next table: 2013
cur table: 2009
epoch: 1000
next table: 2216
cur table: 2269
epoch: 1000
next table: 2013
cur table: 2013
epoch: 1000
next table: 2014
cur table: 2013
epoch: 1000
next table: 2205
cur table: 2216
epoch: 1000
next table: 2011
cur table: 2014
epoch: 1000
next table: 2012
cur table: 2011
epoch: 1000
next table: 2202
cur table: 2205
epoch: 1000
next table: 2011
cur table: 2012
epoch: 1000
next table: 2012
cur table: 2011
epoch: 1000
next table: 2201
cur table: 2202
epoch: 1000
next table: 2011
cur table: 2012
epoch: 1000
next table: 2204
cur table: 2201
epoch: 1000
next table: 2017
cur table: 2011
epoch: 1000
next table: 2010
cur table: 2017
epoch: 1000
next table: 2197
cur table: 2204
epoch: 1000
next table: 2014
cur table: 2010
epoch: 1000
next table: 2013
cur table: 2014
Heartbeat CPU 0 instructions: 30000003 cycles: 9366982 heartbeat IPC: 3.29769 cumulative IPC: 3.20274 (Simulation time: 0 hr 9 min 5 sec) 
epoch: 1000
next table: 2219
cur table: 2197
epoch: 1000
next table: 2012
cur table: 2013
epoch: 1000
next table: 2012
cur table: 2012
epoch: 1000
next table: 2209
cur table: 2219
epoch: 1000
next table: 2013
cur table: 2012
epoch: 1000
next table: 2011
cur table: 2013
epoch: 1000
next table: 2197
cur table: 2209
epoch: 1000
next table: 2015
cur table: 2011
epoch: 1000
next table: 2012
cur table: 2015
epoch: 1000
next table: 2208
cur table: 2197
epoch: 1000
next table: 2013
cur table: 2012
epoch: 1000
next table: 2010
cur table: 2013
epoch: 1000
next table: 2229
cur table: 2208
epoch: 1000
next table: 2014
cur table: 2010
epoch: 1000
next table: 2013
cur table: 2014
epoch: 1000
next table: 2294
cur table: 2229
epoch: 1000
next table: 2015
cur table: 2013
epoch: 1000
next table: 2197
cur table: 2294
epoch: 1000
next table: 2012
cur table: 2015
epoch: 1000
next table: 2016
cur table: 2012
epoch: 1000
next table: 2195
cur table: 2197
epoch: 1000
next table: 2012
cur table: 2016
epoch: 1000
next table: 2010
cur table: 2012
epoch: 1000
next table: 1990
cur table: 2195
epoch: 1000
next table: 2011
cur table: 2010
epoch: 1000
next table: 1842
cur table: 1990
epoch: 1000
next table: 2015
cur table: 2011
epoch: 1000
next table: 2015
cur table: 2015
epoch: 1000
next table: 1866
cur table: 1842
epoch: 1000
next table: 2013
cur table: 2015
epoch: 1000
next table: 1860
cur table: 1866
epoch: 1000
next table: 2013
cur table: 2013
epoch: 1000
next table: 1863
cur table: 1860
epoch: 1000
next table: 2016
cur table: 2013
epoch: 1000
next table: 2011
cur table: 2016
epoch: 1000
next table: 1860
cur table: 1863
epoch: 1000
next table: 2016
cur table: 2011
epoch: 1000
next table: 1867
cur table: 1860
epoch: 1000
next table: 2009
cur table: 2016
epoch: 1000
next table: 1854
cur table: 1867
epoch: 1000
next table: 2017
cur table: 2009
epoch: 1000
next table: 2012
cur table: 2017
epoch: 1000
next table: 1857
cur table: 1854
epoch: 1000
next table: 2014
cur table: 2012
epoch: 1000
next table: 1862
cur table: 1857
epoch: 1000
next table: 2015
cur table: 2014
epoch: 1000
next table: 1860
cur table: 1862
epoch: 1000
next table: 2013
cur table: 2015
epoch: 1000
next table: 2013
cur table: 2013
epoch: 1000
next table: 1871
cur table: 1860
epoch: 1000
next table: 2016
cur table: 2013
epoch: 1000
next table: 1876
cur table: 1871
epoch: 1000
next table: 2012
cur table: 2016
epoch: 1000
next table: 2014
cur table: 2012
epoch: 1000
next table: 1859
cur table: 1876
epoch: 1000
next table: 2011
cur table: 2014
epoch: 1000
next table: 1863
cur table: 1859
epoch: 1000
next table: 2016
cur table: 2011
epoch: 1000
next table: 1866
cur table: 1863
epoch: 1000
next table: 2012
cur table: 2016
epoch: 1000
next table: 2014
cur table: 2012
epoch: 1000
next table: 1858
cur table: 1866
epoch: 1000
next table: 2016
cur table: 2014
epoch: 1000
next table: 1858
cur table: 1858
epoch: 1000
next table: 2012
cur table: 2016
epoch: 1000
next table: 1863
cur table: 1858
epoch: 1000
next table: 2014
cur table: 2012
epoch: 1000
next table: 2015
cur table: 2014
epoch: 1000
next table: 1874
cur table: 1863
epoch: 1000
next table: 2012
cur table: 2015
epoch: 1000
next table: 1862
cur table: 1874
epoch: 1000
next table: 2015
cur table: 2012
epoch: 1000
next table: 2012
cur table: 2015
epoch: 1000
next table: 1882
cur table: 1862
epoch: 1000
next table: 2015
cur table: 2012
epoch: 1000
next table: 1860
cur table: 1882
epoch: 1000
next table: 2013
cur table: 2015
epoch: 1000
next table: 2013
cur table: 2013
epoch: 1000
next table: 2263
cur table: 1860
epoch: 1000
next table: 2016
cur table: 2013
epoch: 1000
next table: 2012
cur table: 2016
epoch: 1000
next table: 2301
cur table: 2263
epoch: 1000
next table: 2017
cur table: 2012
epoch: 1000
next table: 2011
cur table: 2017
epoch: 1000
next table: 2300
cur table: 2301
epoch: 1000
next table: 2013
cur table: 2011
epoch: 1000
next table: 2013
cur table: 2013
epoch: 1000
next table: 2302
cur table: 2300
epoch: 1000
next table: 2013
cur table: 2013
epoch: 1000
next table: 2015
cur table: 2013
epoch: 1000
next table: 2302
cur table: 2302
epoch: 1000
next table: 2013
cur table: 2015
epoch: 1000
next table: 2013
cur table: 2013
epoch: 1000
next table: 2281
cur table: 2302
epoch: 1000
next table: 2016
cur table: 2013
epoch: 1000
next table: 2012
cur table: 2016
epoch: 1000
next table: 2310
cur table: 2281
epoch: 1000
next table: 2017
cur table: 2012
epoch: 1000
next table: 2011
cur table: 2017
epoch: 1000
next table: 2281
cur table: 2310
epoch: 1000
next table: 2013
cur table: 2011
epoch: 1000
next table: 2013
cur table: 2013
epoch: 1000
next table: 2298
cur table: 2281
epoch: 1000
next table: 2013
cur table: 2013
epoch: 1000
next table: 2015
cur table: 2013
epoch: 1000
next table: 2293
cur table: 2298
epoch: 1000
next table: 2013
cur table: 2015
epoch: 1000
next table: 2013
cur table: 2013
epoch: 1000
next table: 2298
cur table: 2293
epoch: 1000
next table: 2016
cur table: 2013
epoch: 1000
next table: 2012
cur table: 2016
epoch: 1000
next table: 2298
cur table: 2298
epoch: 1000
next table: 2017
cur table: 2012
epoch: 1000
next table: 2011
cur table: 2017
epoch: 1000
next table: 2299
cur table: 2298
epoch: 1000
next table: 2013
cur table: 2011
epoch: 1000
next table: 2013
cur table: 2013
epoch: 1000
next table: 2294
cur table: 2299
epoch: 1000
next table: 2013
cur table: 2013
epoch: 1000
next table: 2016
cur table: 2013
epoch: 1000
next table: 2289
cur table: 2294
epoch: 1000
next table: 2012
cur table: 2016
epoch: 1000
next table: 2014
cur table: 2012
epoch: 1000
next table: 2015
cur table: 2014
epoch: 1000
next table: 2290
cur table: 2289
epoch: 1000
next table: 2013
cur table: 2015
epoch: 1000
next table: 2016
cur table: 2013
epoch: 1000
next table: 2294
cur table: 2290
epoch: 1000
next table: 2013
cur table: 2016
epoch: 1000
next table: 2011
cur table: 2013
epoch: 1000
next table: 2292
cur table: 2294
epoch: 1000
next table: 2015
cur table: 2011
epoch: 1000
next table: 2012
cur table: 2015
epoch: 1000
next table: 2300
cur table: 2292
epoch: 1000
next table: 2016
cur table: 2012
epoch: 1000
next table: 2012
cur table: 2016
epoch: 1000
next table: 2297
cur table: 2300
epoch: 1000
next table: 2017
cur table: 2012
epoch: 1000
next table: 2012
cur table: 2017
epoch: 1000
next table: 2291
cur table: 2297
epoch: 1000
next table: 2014
cur table: 2012
epoch: 1000
next table: 2015
cur table: 2014
epoch: 1000
next table: 2294
cur table: 2291
epoch: 1000
next table: 2013
cur table: 2015
epoch: 1000
next table: 2009
cur table: 2013
epoch: 1000
next table: 2300
cur table: 2294
epoch: 1000
next table: 2014
cur table: 2009
epoch: 1000
next table: 2013
cur table: 2014
epoch: 1000
next table: 2286
cur table: 2300
epoch: 1000
next table: 2016
cur table: 2013
epoch: 1000
next table: 2012
cur table: 2016
epoch: 1000
next table: 2296
cur table: 2286
epoch: 1000
next table: 2015
cur table: 2012
epoch: 1000
next table: 2014
cur table: 2015
epoch: 1000
next table: 2286
cur table: 2296
epoch: 1000
next table: 2013
cur table: 2014
epoch: 1000
next table: 2013
cur table: 2013
epoch: 1000
next table: 2289
cur table: 2286
epoch: 1000
next table: 2013
cur table: 2013
epoch: 1000
next table: 2011
cur table: 2013
epoch: 1000
next table: 2297
cur table: 2289
epoch: 1000
next table: 2013
cur table: 2011
epoch: 1000
next table: 2012
cur table: 2013
epoch: 1000
next table: 2301
cur table: 2297
epoch: 1000
next table: 2015
cur table: 2012
epoch: 1000
next table: 2011
cur table: 2015
epoch: 1000
next table: 2301
cur table: 2301
epoch: 1000
next table: 2016
cur table: 2011
epoch: 1000
next table: 2013
cur table: 2016
epoch: 1000
next table: 2301
cur table: 2301
epoch: 1000
next table: 2014
cur table: 2013
epoch: 1000
next table: 2015
cur table: 2014
epoch: 1000
next table: 2290
cur table: 2301
epoch: 1000
next table: 2011
cur table: 2015
epoch: 1000
next table: 2014
cur table: 2011
epoch: 1000
next table: 2286
cur table: 2290
epoch: 1000
next table: 2012
cur table: 2014
epoch: 1000
next table: 2014
cur table: 2012
epoch: 1000
next table: 2292
cur table: 2286
epoch: 1000
next table: 2015
cur table: 2014
epoch: 1000
next table: 2013
cur table: 2015
epoch: 1000
next table: 2297
cur table: 2292
epoch: 1000
next table: 2015
cur table: 2013
epoch: 1000
next table: 2013
cur table: 2015
epoch: 1000
next table: 2299
cur table: 2297
epoch: 1000
next table: 2014
cur table: 2013
epoch: 1000
next table: 2016
cur table: 2014
epoch: 1000
next table: 2302
cur table: 2299
epoch: 1000
next table: 2010
cur table: 2016
epoch: 1000
next table: 2016
cur table: 2010
epoch: 1000
next table: 2011
cur table: 2016
epoch: 1000
next table: 2300
cur table: 2302
epoch: 1000
next table: 2015
cur table: 2011
epoch: 1000
next table: 2014
cur table: 2015
epoch: 1000
next table: 2298
cur table: 2300
epoch: 1000
next table: 2015
cur table: 2014
epoch: 1000
next table: 2013
cur table: 2015
epoch: 1000
next table: 2290
cur table: 2298
epoch: 1000
next table: 2014
cur table: 2013
epoch: 1000
next table: 2013
cur table: 2014
epoch: 1000
next table: 2277
cur table: 2290
epoch: 1000
next table: 2016
cur table: 2013
epoch: 1000
next table: 2010
cur table: 2016
epoch: 1000
next table: 2296
cur table: 2277
epoch: 1000
next table: 2016
cur table: 2010
epoch: 1000
next table: 2010
cur table: 2016
epoch: 1000
next table: 2294
cur table: 2296
epoch: 1000
next table: 2016
cur table: 2010
epoch: 1000
next table: 2013
cur table: 2016
epoch: 1000
next table: 2291
cur table: 2294
epoch: 1000
next table: 2015
cur table: 2013
epoch: 1000
next table: 2013
cur table: 2015
epoch: 1000
next table: 2289
cur table: 2291
epoch: 1000
next table: 2014
cur table: 2013
epoch: 1000
next table: 2013
cur table: 2014
epoch: 1000
next table: 2296
cur table: 2289
epoch: 1000
next table: 2016
cur table: 2013
epoch: 1000
next table: 2010
cur table: 2016
epoch: 1000
next table: 2291
cur table: 2296
epoch: 1000
next table: 2016
cur table: 2010
epoch: 1000
next table: 2010
cur table: 2016
epoch: 1000
next table: 2306
cur table: 2291
epoch: 1000
next table: 2016
cur table: 2010
epoch: 1000
next table: 2013
cur table: 2016
epoch: 1000
next table: 2288
cur table: 2306
epoch: 1000
next table: 2014
cur table: 2013
epoch: 1000
next table: 2015
cur table: 2014
epoch: 1000
next table: 2294
cur table: 2288
epoch: 1000
next table: 2008
cur table: 2015
epoch: 1000
next table: 1461
cur table: 2294
epoch: 1000
next table: 2008
cur table: 2008
epoch: 1000
next table: 1455
cur table: 1461
epoch: 1000
next table: 2006
cur table: 2008
epoch: 1000
next table: 1450
cur table: 1455
epoch: 1000
next table: 2012
cur table: 2006
epoch: 1000
next table: 1453
cur table: 1450
epoch: 1000
next table: 2008
cur table: 2012
epoch: 1000
next table: 2011
cur table: 2008
epoch: 1000
next table: 1461
cur table: 1453
epoch: 1000
next table: 2012
cur table: 2011
epoch: 1000
next table: 1460
cur table: 1461
epoch: 1000
next table: 2012
cur table: 2012
epoch: 1000
next table: 1454
cur table: 1460
epoch: 1000
next table: 2010
cur table: 2012
epoch: 1000
next table: 1452
cur table: 1454
epoch: 1000
next table: 2017
cur table: 2010
epoch: 1000
next table: 1456
cur table: 1452
epoch: 1000
next table: 2007
cur table: 2017
epoch: 1000
next table: 1460
cur table: 1456
epoch: 1000
next table: 2016
cur table: 2007
epoch: 1000
next table: 1443
cur table: 1460
epoch: 1000
next table: 2012
cur table: 2016
epoch: 1000
next table: 2013
cur table: 2012
epoch: 1000
next table: 1452
cur table: 1443
epoch: 1000
next table: 2010
cur table: 2013
epoch: 1000
next table: 1464
cur table: 1452
epoch: 1000
next table: 2015
cur table: 2010
epoch: 1000
next table: 1457
cur table: 1464
epoch: 1000
next table: 2005
cur table: 2015
epoch: 1000
next table: 1461
cur table: 1457
epoch: 1000
next table: 2014
cur table: 2005
epoch: 1000
next table: 1447
cur table: 1461
epoch: 1000
next table: 2014
cur table: 2014
epoch: 1000
next table: 1437
cur table: 1447
epoch: 1000
next table: 2016
cur table: 2014
epoch: 1000
next table: 1455
cur table: 1437
epoch: 1000
next table: 2007
cur table: 2016
epoch: 1000
next table: 2014
cur table: 2007
epoch: 1000
next table: 1450
cur table: 1455
epoch: 1000
next table: 2015
cur table: 2014
epoch: 1000
next table: 1443
cur table: 1450
epoch: 1000
next table: 2010
cur table: 2015
epoch: 1000
next table: 1447
cur table: 1443
epoch: 1000
next table: 2004
cur table: 2010
epoch: 1000
next table: 1448
cur table: 1447
epoch: 1000
next table: 2012
cur table: 2004
epoch: 1000
next table: 1452
cur table: 1448
epoch: 1000
next table: 2014
cur table: 2012
epoch: 1000
next table: 1458
cur table: 1452
epoch: 1000
next table: 2015
cur table: 2014
epoch: 1000
next table: 1461
cur table: 1458
epoch: 1000
next table: 2008
cur table: 2015
epoch: 1000
next table: 2013
cur table: 2008
epoch: 1000
next table: 1441
cur table: 1461
epoch: 1000
next table: 2015
cur table: 2013
epoch: 1000
next table: 1441
cur table: 1441
epoch: 1000
next table: 2015
cur table: 2015
epoch: 1000
next table: 1456
cur table: 1441
epoch: 1000
next table: 2009
cur table: 2015
epoch: 1000
next table: 1459
cur table: 1456
epoch: 1000
next table: 2013
cur table: 2009
epoch: 1000
next table: 1460
cur table: 1459
epoch: 1000
next table: 2017
cur table: 2013
epoch: 1000
next table: 1445
cur table: 1460
epoch: 1000
next table: 2009
cur table: 2017
epoch: 1000
next table: 1446
cur table: 1445
epoch: 1000
next table: 2012
cur table: 2009
epoch: 1000
next table: 2011
cur table: 2012
epoch: 1000
next table: 1447
cur table: 1446
epoch: 1000
next table: 2011
cur table: 2011
epoch: 1000
next table: 1445
cur table: 1447
epoch: 1000
next table: 2010
cur table: 2011
epoch: 1000
next table: 1455
cur table: 1445
epoch: 1000
next table: 2016
cur table: 2010
epoch: 1000
next table: 1465
cur table: 1455
epoch: 1000
next table: 2007
cur table: 2016
epoch: 1000
next table: 1455
cur table: 1465
epoch: 1000
next table: 2012
cur table: 2007
epoch: 1000
next table: 1462
cur table: 1455
epoch: 1000
next table: 2013
cur table: 2012
epoch: 1000
next table: 1455
cur table: 1462
epoch: 1000
next table: 2014
cur table: 2013
epoch: 1000
next table: 2012
cur table: 2014
epoch: 1000
next table: 1463
cur table: 1455
epoch: 1000
next table: 2014
cur table: 2012
epoch: 1000
next table: 1446
cur table: 1463
epoch: 1000
next table: 2017
cur table: 2014
epoch: 1000
next table: 1460
cur table: 1446
epoch: 1000
next table: 2011
cur table: 2017
epoch: 1000
next table: 1440
cur table: 1460
epoch: 1000
next table: 2010
cur table: 2011
epoch: 1000
next table: 1446
cur table: 1440
epoch: 1000
next table: 2013
cur table: 2010
epoch: 1000
next table: 1454
cur table: 1446
epoch: 1000
next table: 2011
cur table: 2013
epoch: 1000
next table: 1467
cur table: 1454
epoch: 1000
next table: 2014
cur table: 2011
epoch: 1000
next table: 2012
cur table: 2014
epoch: 1000
next table: 1461
cur table: 1467
epoch: 1000
next table: 2014
cur table: 2012
epoch: 1000
next table: 1452
cur table: 1461
epoch: 1000
next table: 2018
cur table: 2014
epoch: 1000
next table: 1442
cur table: 1452
epoch: 1000
next table: 2006
cur table: 2018
epoch: 1000
next table: 1460
cur table: 1442
epoch: 1000
next table: 2008
cur table: 2006
epoch: 1000
next table: 1460
cur table: 1460
epoch: 1000
next table: 2015
cur table: 2008
epoch: 1000
next table: 1455
cur table: 1460
epoch: 1000
next table: 2011
cur table: 2015
epoch: 1000
next table: 1460
cur table: 1455
epoch: 1000
next table: 2010
cur table: 2011
epoch: 1000
next table: 1458
cur table: 1460
epoch: 1000
next table: 2010
cur table: 2010
epoch: 1000
next table: 2015
cur table: 2010
epoch: 1000
next table: 1450
cur table: 1458
epoch: 1000
next table: 2013
cur table: 2015
epoch: 1000
next table: 1447
cur table: 1450
epoch: 1000
next table: 2012
cur table: 2013
epoch: 1000
next table: 1462
cur table: 1447
epoch: 1000
next table: 2014
cur table: 2012
epoch: 1000
next table: 1455
cur table: 1462
epoch: 1000
next table: 2014
cur table: 2014
epoch: 1000
next table: 1454
cur table: 1455
epoch: 1000
next table: 2012
cur table: 2014
Heartbeat CPU 0 instructions: 40000001 cycles: 12671676 heartbeat IPC: 3.026 cumulative IPC: 3.15665 (Simulation time: 0 hr 12 min 12 sec) 
epoch: 1000
next table: 1458
cur table: 1454
epoch: 1000
next table: 2008
cur table: 2012
epoch: 1000
next table: 1459
cur table: 1458
epoch: 1000
next table: 2010
cur table: 2008
epoch: 1000
next table: 2010
cur table: 2010
epoch: 1000
next table: 1462
cur table: 1459
epoch: 1000
next table: 2017
cur table: 2010
epoch: 1000
next table: 1451
cur table: 1462
epoch: 1000
next table: 2013
cur table: 2017
epoch: 1000
next table: 1456
cur table: 1451
epoch: 1000
next table: 2013
cur table: 2013
epoch: 1000
next table: 1449
cur table: 1456
epoch: 1000
next table: 2012
cur table: 2013
epoch: 1000
next table: 1452
cur table: 1449
epoch: 1000
next table: 2011
cur table: 2012
epoch: 1000
next table: 1471
cur table: 1452
epoch: 1000
next table: 2004
cur table: 2011
epoch: 1000
next table: 1465
cur table: 1471
epoch: 1000
next table: 2013
cur table: 2004
epoch: 1000
next table: 2005
cur table: 2013
epoch: 1000
next table: 1456
cur table: 1465
epoch: 1000
next table: 2014
cur table: 2005
epoch: 1000
next table: 1450
cur table: 1456
epoch: 1000
next table: 2014
cur table: 2014
epoch: 1000
next table: 1449
cur table: 1450
epoch: 1000
next table: 2003
cur table: 2014
epoch: 1000
next table: 1458
cur table: 1449
epoch: 1000
next table: 2009
cur table: 2003
epoch: 1000
next table: 1446
cur table: 1458
epoch: 1000
next table: 2006
cur table: 2009
epoch: 1000
next table: 1447
cur table: 1446
epoch: 1000
next table: 2015
cur table: 2006
epoch: 1000
next table: 1453
cur table: 1447
epoch: 1000
next table: 2007
cur table: 2015
epoch: 1000
next table: 2010
cur table: 2007
epoch: 1000
next table: 1450
cur table: 1453
epoch: 1000
next table: 2008
cur table: 2010
epoch: 1000
next table: 1456
cur table: 1450
epoch: 1000
next table: 2017
cur table: 2008
epoch: 1000
next table: 1456
cur table: 1456
epoch: 1000
next table: 2009
cur table: 2017
epoch: 1000
next table: 1443
cur table: 1456
epoch: 1000
next table: 2016
cur table: 2009
epoch: 1000
next table: 1447
cur table: 1443
epoch: 1000
next table: 2002
cur table: 2016
epoch: 1000
next table: 1433
cur table: 1447
epoch: 1000
next table: 2016
cur table: 2002
epoch: 1000
next table: 1446
cur table: 1433
epoch: 1000
next table: 2010
cur table: 2016
epoch: 1000
next table: 2009
cur table: 2010
epoch: 1000
next table: 1452
cur table: 1446
epoch: 1000
next table: 2011
cur table: 2009
epoch: 1000
next table: 1442
cur table: 1452
epoch: 1000
next table: 2014
cur table: 2011
epoch: 1000
next table: 1438
cur table: 1442
epoch: 1000
next table: 2008
cur table: 2014
epoch: 1000
next table: 1442
cur table: 1438
epoch: 1000
next table: 2012
cur table: 2008
epoch: 1000
next table: 1451
cur table: 1442
epoch: 1000
next table: 2014
cur table: 2012
epoch: 1000
next table: 1458
cur table: 1451
epoch: 1000
next table: 2018
cur table: 2014
epoch: 1000
next table: 1447
cur table: 1458
epoch: 1000
next table: 2009
cur table: 2018
epoch: 1000
next table: 2011
cur table: 2009
epoch: 1000
next table: 1455
cur table: 1447
epoch: 1000
next table: 2015
cur table: 2011
epoch: 1000
next table: 1448
cur table: 1455
epoch: 1000
next table: 2014
cur table: 2015
epoch: 1000
next table: 1438
cur table: 1448
epoch: 1000
next table: 2013
cur table: 2014
epoch: 1000
next table: 1444
cur table: 1438
epoch: 1000
next table: 2013
cur table: 2013
epoch: 1000
next table: 1464
cur table: 1444
epoch: 1000
next table: 2010
cur table: 2013
epoch: 1000
next table: 1458
cur table: 1464
epoch: 1000
next table: 2013
cur table: 2010
epoch: 1000
next table: 1464
cur table: 1458
epoch: 1000
next table: 2010
cur table: 2013
epoch: 1000
next table: 1459
cur table: 1464
epoch: 1000
next table: 2009
cur table: 2010
epoch: 1000
next table: 2013
cur table: 2009
epoch: 1000
next table: 1445
cur table: 1459
epoch: 1000
next table: 2013
cur table: 2013
epoch: 1000
next table: 1453
cur table: 1445
epoch: 1000
next table: 2013
cur table: 2013
epoch: 1000
next table: 1462
cur table: 1453
epoch: 1000
next table: 2013
cur table: 2013
epoch: 1000
next table: 1451
cur table: 1462
epoch: 1000
next table: 2016
cur table: 2013
epoch: 1000
next table: 1450
cur table: 1451
epoch: 1000
next table: 2015
cur table: 2016
epoch: 1000
next table: 1444
cur table: 1450
epoch: 1000
next table: 2013
cur table: 2015
epoch: 1000
next table: 1445
cur table: 1444
epoch: 1000
next table: 2012
cur table: 2013
epoch: 1000
next table: 2010
cur table: 2012
epoch: 1000
next table: 1454
cur table: 1445
epoch: 1000
next table: 2005
cur table: 2010
epoch: 1000
next table: 1455
cur table: 1454
epoch: 1000
next table: 2010
cur table: 2005
epoch: 1000
next table: 1447
cur table: 1455
epoch: 1000
next table: 2012
cur table: 2010
epoch: 1000
next table: 1465
cur table: 1447
epoch: 1000
next table: 2010
cur table: 2012
epoch: 1000
next table: 1474
cur table: 1465
epoch: 1000
next table: 2017
cur table: 2010
epoch: 1000
next table: 1466
cur table: 1474
epoch: 1000
next table: 2012
cur table: 2017
epoch: 1000
next table: 1443
cur table: 1466
epoch: 1000
next table: 2016
cur table: 2012
epoch: 1000
next table: 2013
cur table: 2016
epoch: 1000
next table: 1437
cur table: 1443
epoch: 1000
next table: 2015
cur table: 2013
epoch: 1000
next table: 1442
cur table: 1437
epoch: 1000
next table: 2015
cur table: 2015
epoch: 1000
next table: 1460
cur table: 1442
epoch: 1000
next table: 2012
cur table: 2015
epoch: 1000
next table: 1462
cur table: 1460
epoch: 1000
next table: 2009
cur table: 2012
epoch: 1000
next table: 1456
cur table: 1462
epoch: 1000
next table: 2013
cur table: 2009
epoch: 1000
next table: 1449
cur table: 1456
epoch: 1000
next table: 2010
cur table: 2013
epoch: 1000
next table: 1450
cur table: 1449
epoch: 1000
next table: 2018
cur table: 2010
epoch: 1000
next table: 2006
cur table: 2018
epoch: 1000
next table: 1463
cur table: 1450
epoch: 1000
next table: 2013
cur table: 2006
epoch: 1000
next table: 1450
cur table: 1463
epoch: 1000
next table: 2014
cur table: 2013
epoch: 1000
next table: 1445
cur table: 1450
epoch: 1000
next table: 2017
cur table: 2014
epoch: 1000
next table: 1445
cur table: 1445
epoch: 1000
next table: 2011
cur table: 2017
epoch: 1000
next table: 1448
cur table: 1445
epoch: 1000
next table: 2014
cur table: 2011
epoch: 1000
next table: 1449
cur table: 1448
epoch: 1000
next table: 2015
cur table: 2014
epoch: 1000
next table: 1457
cur table: 1449
epoch: 1000
next table: 2013
cur table: 2015
epoch: 1000
next table: 2007
cur table: 2013
epoch: 1000
next table: 1456
cur table: 1457
epoch: 1000
next table: 2010
cur table: 2007
epoch: 1000
next table: 1462
cur table: 1456
epoch: 1000
next table: 2014
cur table: 2010
epoch: 1000
next table: 1440
cur table: 1462
epoch: 1000
next table: 2008
cur table: 2014
epoch: 1000
next table: 1439
cur table: 1440
epoch: 1000
next table: 2009
cur table: 2008
epoch: 1000
next table: 1459
cur table: 1439
epoch: 1000
next table: 2007
cur table: 2009
epoch: 1000
next table: 1446
cur table: 1459
epoch: 1000
next table: 2010
cur table: 2007
epoch: 1000
next table: 1446
cur table: 1446
epoch: 1000
next table: 2018
cur table: 2010
epoch: 1000
next table: 1443
cur table: 1446
epoch: 1000
next table: 2009
cur table: 2018
epoch: 1000
next table: 2014
cur table: 2009
epoch: 1000
next table: 1450
cur table: 1443
epoch: 1000
next table: 2013
cur table: 2014
epoch: 1000
next table: 1451
cur table: 1450
epoch: 1000
next table: 2016
cur table: 2013
epoch: 1000
next table: 1453
cur table: 1451
epoch: 1000
next table: 2014
cur table: 2016
epoch: 1000
next table: 1460
cur table: 1453
epoch: 1000
next table: 2010
cur table: 2014
epoch: 1000
next table: 1460
cur table: 1460
epoch: 1000
next table: 2014
cur table: 2010
epoch: 1000
next table: 1436
cur table: 1460
epoch: 1000
next table: 2011
cur table: 2014
epoch: 1000
next table: 1454
cur table: 1436
epoch: 1000
next table: 2013
cur table: 2011
epoch: 1000
next table: 2012
cur table: 2013
epoch: 1000
next table: 1456
cur table: 1454
epoch: 1000
next table: 2020
cur table: 2012
epoch: 1000
next table: 1447
cur table: 1456
epoch: 1000
next table: 2010
cur table: 2020
epoch: 1000
next table: 1440
cur table: 1447
epoch: 1000
next table: 2014
cur table: 2010
epoch: 1000
next table: 1445
cur table: 1440
epoch: 1000
next table: 2013
cur table: 2014
epoch: 1000
next table: 1456
cur table: 1445
epoch: 1000
next table: 2013
cur table: 2013
epoch: 1000
next table: 1453
cur table: 1456
epoch: 1000
next table: 2010
cur table: 2013
epoch: 1000
next table: 1452
cur table: 1453
epoch: 1000
next table: 2014
cur table: 2010
epoch: 1000
next table: 2014
cur table: 2014
epoch: 1000
next table: 1455
cur table: 1452
epoch: 1000
next table: 2015
cur table: 2014
epoch: 1000
next table: 1461
cur table: 1455
epoch: 1000
next table: 2010
cur table: 2015
epoch: 1000
next table: 1454
cur table: 1461
epoch: 1000
next table: 2014
cur table: 2010
epoch: 1000
next table: 1447
cur table: 1454
epoch: 1000
next table: 2010
cur table: 2014
epoch: 1000
next table: 1440
cur table: 1447
epoch: 1000
next table: 2012
cur table: 2010
epoch: 1000
next table: 1450
cur table: 1440
epoch: 1000
next table: 2001
cur table: 2012
epoch: 1000
next table: 1455
cur table: 1450
epoch: 1000
next table: 2012
cur table: 2001
epoch: 1000
next table: 2013
cur table: 2012
epoch: 1000
[...]
epoch: 1000
next table: 1494
cur table: 1488
epoch: 1000
next table: 2018
cur table: 2012
epoch: 1000
next table: 1496
cur table: 1494
epoch: 1000
next table: 2014
cur table: 2018
epoch: 1000
next table: 2007
cur table: 2014
epoch: 1000
next table: 1504
cur table: 1496
epoch: 1000
next table: 2013
cur table: 2007
epoch: 1000
next table: 1507
cur table: 1504
epoch: 1000
next table: 2018
cur table: 2013
epoch: 1000
next table: 1487
cur table: 1507
epoch: 1000
next table: 2013
cur table: 2018
epoch: 1000
next table: 1497
cur table: 1487
epoch: 1000
next table: 2019
cur table: 2013
epoch: 1000
next table: 1490
cur table: 1497
epoch: 1000
next table: 2013
cur table: 2019
epoch: 1000
next table: 1490
cur table: 1490
epoch: 1000
next table: 2012
cur table: 2013
epoch: 1000
next table: 2008
cur table: 2012
epoch: 1000
next table: 1488
cur table: 1490
epoch: 1000
next table: 2012
cur table: 2008
epoch: 1000
next table: 1497
cur table: 1488
epoch: 1000
next table: 2013
cur table: 2012
epoch: 1000
next table: 1507
cur table: 1497
epoch: 1000
next table: 2018
cur table: 2013
epoch: 1000
next table: 1491
cur table: 1507
epoch: 1000
next table: 2014
cur table: 2018
epoch: 1000
next table: 1512
cur table: 1491
epoch: 1000
next table: 2013
cur table: 2014
epoch: 1000
next table: 1496
cur table: 1512
epoch: 1000
next table: 2012
cur table: 2013
epoch: 1000
next table: 2020
cur table: 2012
epoch: 1000
next table: 1494
cur table: 1496
epoch: 1000
next table: 2012
cur table: 2020
epoch: 1000
next table: 1491
cur table: 1494
epoch: 1000
next table: 2014
cur table: 2012
epoch: 1000
next table: 1508
cur table: 1491
epoch: 1000
next table: 2012
cur table: 2014
epoch: 1000
next table: 1510
cur table: 1508
epoch: 1000
next table: 2013
cur table: 2012
epoch: 1000
next table: 1487
cur table: 1510
epoch: 1000
next table: 2013
cur table: 2013
epoch: 1000
next table: 1514
cur table: 1487
epoch: 1000
next table: 2015
cur table: 2013
epoch: 1000
next table: 2008
cur table: 2015
epoch: 1000
next table: 1510
cur table: 1514
epoch: 1000
next table: 2013
cur table: 2008
epoch: 1000
next table: 1494
cur table: 1510
epoch: 1000
next table: 2021
cur table: 2013
epoch: 1000
next table: 1494
cur table: 1494
epoch: 1000
next table: 2006
cur table: 2021
Heartbeat CPU 0 instructions: 100000003 cycles: 72093953 heartbeat IPC: 1.16052 cumulative IPC: 0.889124 (Simulation time: 0 hr 27 min 39 sec) 
Finished CPU 0 instructions: 50000002 cycles: 56235108 cumulative IPC: 0.889124 (Simulation time: 0 hr 27 min 39 sec) 

ChampSim completed all CPUs

Region of Interest Statistics

CPU 0 cumulative IPC: 0.889124 instructions: 50000002 cycles: 56235108
ITLB TOTAL     ACCESS:    7528355  HIT:    7528355  MISS:          0  HIT %:        100  MISS %:          0   MPKI: 0
ITLB LOAD TRANSLATION ACCESS:    7528355  HIT:    7528355  MISS:          0  HIT %:        100  MISS %:          0   MPKI: 0
ITLB PREFETCH  REQUESTED:          0  ISSUED:          0  USEFUL:          0  USELESS:          0
ITLB USEFUL LOAD PREFETCHES:          0 PREFETCH ISSUED TO LOWER LEVEL:          0  ACCURACY: -nan
ITLB TIMELY PREFETCHES:          0 LATE PREFETCHES: 0 DROPPED PREFETCHES: 0
ITLB PREFETCHES SAME FILL-ORIGIN LEVEL: 0 DIFFERENT FILL-ORIGIN LEVEL: 0
ITLB AVERAGE MISS LATENCY: -nan cycles
ITLB RQ	ACCESS:    8076049	FORWARD:          0	MERGED:     547695	TO_CACHE:    7528354

Revised Interactions: positive negative neutral
ITLB_interactions 0 0 0 -nan -nan -nan
DTLB TOTAL     ACCESS:   12694839  HIT:   12670660  MISS:      24179  HIT %:    99.8095  MISS %:   0.190463   MPKI: 0.48358
DTLB LOAD TRANSLATION ACCESS:   12694839  HIT:   12670660  MISS:      24179  HIT %:    99.8095  MISS %:   0.190463   MPKI: 0.48358
DTLB PREFETCH  REQUESTED:          0  ISSUED:          0  USEFUL:          0  USELESS:          0
DTLB USEFUL LOAD PREFETCHES:          0 PREFETCH ISSUED TO LOWER LEVEL:          0  ACCURACY: -nan
DTLB TIMELY PREFETCHES:          0 LATE PREFETCHES: 0 DROPPED PREFETCHES: 0
DTLB PREFETCHES SAME FILL-ORIGIN LEVEL: 0 DIFFERENT FILL-ORIGIN LEVEL: 0
DTLB AVERAGE MISS LATENCY: 186.757 cycles
DTLB RQ	ACCESS:   14103631	FORWARD:          0	MERGED:    1383975	TO_CACHE:   12719656

Revised Interactions: positive negative neutral
DTLB_interactions 0 0 0 -nan -nan -nan
STLB TOTAL     ACCESS:      24179  HIT:         20  MISS:      24159  HIT %:  0.0827164  MISS %:    99.9173   MPKI: 0.48318
STLB LOAD TRANSLATION ACCESS:      24179  HIT:         20  MISS:      24159  HIT %:  0.0827164  MISS %:    99.9173   MPKI: 0.48318
STLB PREFETCH  REQUESTED:          0  ISSUED:          0  USEFUL:          0  USELESS:          0
STLB USEFUL LOAD PREFETCHES:          0 PREFETCH ISSUED TO LOWER LEVEL:          0  ACCURACY: -nan
STLB TIMELY PREFETCHES:          0 LATE PREFETCHES: 0 DROPPED PREFETCHES: 0
STLB PREFETCHES SAME FILL-ORIGIN LEVEL: 0 DIFFERENT FILL-ORIGIN LEVEL: 0
STLB AVERAGE MISS LATENCY: 177.595 cycles
STLB RQ	ACCESS:      24179	FORWARD:          0	MERGED:          0	TO_CACHE:      24179

Revised Interactions: positive negative neutral
STLB_interactions 0 0 0 -nan -nan -nan
STLB Hit, L1D data hit: 0
STLB Hit, L2C data hit: 0
STLB Hit, LLC data hit: 0
STLB Hit, LLC data miss: 0
STLB STLB hints to L2: 0
L1D TOTAL     ACCESS:   12006088  HIT:   10923653  MISS:    1082435  HIT %:    90.9843  MISS %:    9.01572   MPKI: 21.6487
L1D LOAD      ACCESS:   11211022  HIT:   10462772  MISS:     748250  HIT %:    93.3258  MISS %:    6.67424   MPKI: 14.965
L1D RFO       ACCESS:     795066  HIT:     460881  MISS:     334185  HIT %:    57.9676  MISS %:    42.0324   MPKI: 6.6837
L1D PREFETCH  REQUESTED:          0  ISSUED:          0  USEFUL:          0  USELESS:          0
L1D USEFUL LOAD PREFETCHES:          0 PREFETCH ISSUED TO LOWER LEVEL:          0  ACCURACY: -nan
L1D TIMELY PREFETCHES:          0 LATE PREFETCHES: 0 DROPPED PREFETCHES: 0
L1D PREFETCHES SAME FILL-ORIGIN LEVEL: 0 DIFFERENT FILL-ORIGIN LEVEL: 0
L1D AVERAGE MISS LATENCY: 124.45 cycles
L1D RQ	ACCESS:   18843746	FORWARD:          0	MERGED:    7398236	TO_CACHE:   11445510
L1D WQ	ACCESS:    2658121	FORWARD:          0	MERGED:          0	TO_CACHE:    2658121

Revised Interactions: positive negative neutral
L1D_interactions 0 0 0 -nan -nan -nan
L1D UNIQUE REGIONS ACCESSED: 0
L1D REGIONS CONFLICTS: 0
L1D Cross Page Prefetch Requests: 0
L1D Same Page Prefetch Requests: 0
L1D ROI Sum of L1D PQ occupancy: 0
L1D PREFETCHES PUSHED FROM L2C: 0
L1I TOTAL     ACCESS:    8076049  HIT:    8076049  MISS:          0  HIT %:        100  MISS %:          0   MPKI: 0
L1I LOAD      ACCESS:    8076049  HIT:    8076049  MISS:          0  HIT %:        100  MISS %:          0   MPKI: 0
L1I PREFETCH  REQUESTED:          0  ISSUED:          0  USEFUL:          0  USELESS:          0
L1I USEFUL LOAD PREFETCHES:          0 PREFETCH ISSUED TO LOWER LEVEL:          0  ACCURACY: -nan
L1I TIMELY PREFETCHES:          0 LATE PREFETCHES: 0 DROPPED PREFETCHES: 0
L1I PREFETCHES SAME FILL-ORIGIN LEVEL: 0 DIFFERENT FILL-ORIGIN LEVEL: 0
L1I AVERAGE MISS LATENCY: -nan cycles
L1I RQ	ACCESS:   12982807	FORWARD:          0	MERGED:    4906758	TO_CACHE:    8076049

Revised Interactions: positive negative neutral
L1I_interactions 0 0 0 -nan -nan -nan
BTB TOTAL     ACCESS:    2648597  HIT:    2648588  MISS:          9  HIT %:    99.9997  MISS %: 0.000339803   MPKI: 0.00018
BTB BRANCH_DIRECT_JUMP	ACCESS:          0  HIT:          0  MISS:          0
BTB BRANCH_INDIRECT	ACCESS:          0  HIT:          0  MISS:          0
BTB BRANCH_CONDITIONAL	ACCESS:    2648597  HIT:    2648588  MISS:          9
BTB BRANCH_DIRECT_CALL	ACCESS:          0  HIT:          0  MISS:          0
BTB BRANCH_INDIRECT_CALL	ACCESS:          0  HIT:          0  MISS:          0
BTB BRANCH_RETURN	ACCESS:          0  HIT:          0  MISS:          0
BTB BRANCH_OTHER ACCESS:          0  HIT:          0  MISS:          0

L2C TOTAL     ACCESS:    1931921  HIT:     834061  MISS:    1097860  HIT %:    43.1726  MISS %:    56.8274   MPKI: 21.9572
L2C LOAD      ACCESS:     748251  HIT:     485903  MISS:     262348  HIT %:    64.9385  MISS %:    35.0615   MPKI: 5.24696
L2C DATA LOAD MPKI: 5.24696
L2C INSTRUCTION LOAD MPKI: 0
L2C RFO       ACCESS:     334185  HIT:          0  MISS:     334185  HIT %:          0  MISS %:        100   MPKI: 6.6837
L2C PREFETCH  ACCESS:     491102  HIT:        605  MISS:     490497  HIT %:   0.123192  MISS %:    99.8768   MPKI: 9.80994
L2C DATA PREFETCH MPKI: 9.80994
L2C INSTRUCTION PREFETCH MPKI: 0
L2C WRITEBACK ACCESS:     334191  HIT:     328397  MISS:       5794  HIT %:    98.2663  MISS %:    1.73374   MPKI: 0.11588
L2C LOAD TRANSLATION ACCESS:      24192  HIT:      19156  MISS:       5036  HIT %:    79.1832  MISS %:    20.8168   MPKI: 0.10072
L2C PREFETCH  REQUESTED:    5198622  ISSUED:    4632235  USEFUL:     485900  USELESS:       4600
L2C USEFUL LOAD PREFETCHES:     485900 PREFETCH ISSUED TO LOWER LEVEL:    4598913  ACCURACY: 10.5655
L2C TIMELY PREFETCHES:     485900 LATE PREFETCHES: 21203 DROPPED PREFETCHES: 0
L2C PREFETCHES SAME FILL-ORIGIN LEVEL: 511700 DIFFERENT FILL-ORIGIN LEVEL: 4087213
L2C AVERAGE MISS LATENCY: 126.954 cycles
L2C RQ	ACCESS:    1106628	FORWARD:          0	MERGED:          0	TO_CACHE:    1106628
L2C WQ	ACCESS:     334191	FORWARD:          0	MERGED:          0	TO_CACHE:     334191
L2C PQ	ACCESS:    4632235	FORWARD:          0	MERGED:      26593	TO_CACHE:    4605642

Revised Interactions: positive negative neutral
L2C_interactions 485354 4427 2343 98.6243 0.89957 0.4761
L2C Instructions Evicting Data 0
L2C Translations Evicting Data 5014
L2C Data Evicting Data 1082046
L2C Instructions Evicting Instructions 0
L2C Translations Evicting Instructions 0
L2C Data Evicting Instructions 0
L2C Instructions Evicting Translations 0
L2C Translations Evicting Translations 22
L2C Data Evicting Translations 4984
L2C Dense regions hint from L2: 0
PSCL5 TOTAL     ACCESS:      24159  HIT:      24159  MISS:          0  HIT %:        100  MISS %:          0   MPKI: 0
PSCL5 LOAD TRANSLATION ACCESS:      24159  HIT:      24159  MISS:          0  HIT %:        100  MISS %:          0   MPKI: 0
PSCL5 PREFETCH  REQUESTED:          0  ISSUED:          0  USEFUL:          0  USELESS:          0
PSCL5 USEFUL LOAD PREFETCHES:          0 PREFETCH ISSUED TO LOWER LEVEL:          0  ACCURACY: -nan
PSCL5 TIMELY PREFETCHES:          0 LATE PREFETCHES: 0 DROPPED PREFETCHES: 0
PSCL5 PREFETCHES SAME FILL-ORIGIN LEVEL: 0 DIFFERENT FILL-ORIGIN LEVEL: 0

Revised Interactions: positive negative neutral
PSCL5_interactions 0 0 0 -nan -nan -nan
PSCL4 TOTAL     ACCESS:      24159  HIT:      24159  MISS:          0  HIT %:        100  MISS %:          0   MPKI: 0
PSCL4 LOAD TRANSLATION ACCESS:      24159  HIT:      24159  MISS:          0  HIT %:        100  MISS %:          0   MPKI: 0
PSCL4 PREFETCH  REQUESTED:          0  ISSUED:          0  USEFUL:          0  USELESS:          0
PSCL4 USEFUL LOAD PREFETCHES:          0 PREFETCH ISSUED TO LOWER LEVEL:          0  ACCURACY: -nan
PSCL4 TIMELY PREFETCHES:          0 LATE PREFETCHES: 0 DROPPED PREFETCHES: 0
PSCL4 PREFETCHES SAME FILL-ORIGIN LEVEL: 0 DIFFERENT FILL-ORIGIN LEVEL: 0

Revised Interactions: positive negative neutral
PSCL4_interactions 0 0 0 -nan -nan -nan
PSCL3 TOTAL     ACCESS:      24159  HIT:      24159  MISS:          0  HIT %:        100  MISS %:          0   MPKI: 0
PSCL3 LOAD TRANSLATION ACCESS:      24159  HIT:      24159  MISS:          0  HIT %:        100  MISS %:          0   MPKI: 0
PSCL3 PREFETCH  REQUESTED:          0  ISSUED:          0  USEFUL:          0  USELESS:          0
PSCL3 USEFUL LOAD PREFETCHES:          0 PREFETCH ISSUED TO LOWER LEVEL:          0  ACCURACY: -nan
PSCL3 TIMELY PREFETCHES:          0 LATE PREFETCHES: 0 DROPPED PREFETCHES: 0
PSCL3 PREFETCHES SAME FILL-ORIGIN LEVEL: 0 DIFFERENT FILL-ORIGIN LEVEL: 0

Revised Interactions: positive negative neutral
PSCL3_interactions 0 0 0 -nan -nan -nan
PSCL2 TOTAL     ACCESS:      24159  HIT:      24092  MISS:         67  HIT %:    99.7227  MISS %:   0.277329   MPKI: 0.00134
PSCL2 LOAD TRANSLATION ACCESS:      24159  HIT:      24092  MISS:         67  HIT %:    99.7227  MISS %:   0.277329   MPKI: 0.00134
PSCL2 PREFETCH  REQUESTED:          0  ISSUED:          0  USEFUL:          0  USELESS:          0
PSCL2 USEFUL LOAD PREFETCHES:          0 PREFETCH ISSUED TO LOWER LEVEL:          0  ACCURACY: -nan
PSCL2 TIMELY PREFETCHES:          0 LATE PREFETCHES: 0 DROPPED PREFETCHES: 0
PSCL2 PREFETCHES SAME FILL-ORIGIN LEVEL: 0 DIFFERENT FILL-ORIGIN LEVEL: 0

Revised Interactions: positive negative neutral
PSCL2_interactions 0 0 0 -nan -nan -nan
LLC TOTAL     ACCESS:    5107938  HIT:    3663725  MISS:    1444213  HIT %:    71.7261  MISS %:    28.2739   MPKI: 28.8843
LLC LOAD      ACCESS:     241145  HIT:     206598  MISS:      34547  HIT %:    85.6738  MISS %:    14.3262   MPKI: 0.69094
LLC RFO       ACCESS:     334185  HIT:        943  MISS:     333242  HIT %:   0.282179  MISS %:    99.7178   MPKI: 6.66484
LLC PREFETCH  ACCESS:    4193402  HIT:    3441791  MISS:     751611  HIT %:    82.0763  MISS %:    17.9237   MPKI: 15.0322
LLC WRITEBACK ACCESS:     334170  HIT:      14391  MISS:     319779  HIT %:    4.30649  MISS %:    95.6935   MPKI: 6.39558
LLC LOAD TRANSLATION ACCESS:       5036  HIT:          2  MISS:       5034  HIT %:  0.0397141  MISS %:    99.9603   MPKI: 0.10068
LLC PREFETCH  REQUESTED:          0  ISSUED:          0  USEFUL:     205607  USELESS:     543424
LLC USEFUL LOAD PREFETCHES:     205607 PREFETCH ISSUED TO LOWER LEVEL:     756074  ACCURACY: 27.194
LLC TIMELY PREFETCHES:     205607 LATE PREFETCHES: 4462 DROPPED PREFETCHES: 0
LLC PREFETCHES SAME FILL-ORIGIN LEVEL: 735814 DIFFERENT FILL-ORIGIN LEVEL: 0
LLC AVERAGE MISS LATENCY: 197.681 cycles
LLC RQ	ACCESS:     580366	FORWARD:          0	MERGED:          0	TO_CACHE:     580366
LLC WQ	ACCESS:     334170	FORWARD:          0	MERGED:          0	TO_CACHE:     334170
LLC PQ	ACCESS:    4598913	FORWARD:          0	MERGED:       6867	TO_CACHE:    4592046

Revised Interactions: positive negative neutral
LLC_interactions 205189 543232 7798 27.1335 71.8353 1.03118
LLC Dense regions hint to LLC: 0

RAW hits: 4
Loads Generated: 18843749
Loads sent to L1D: 18843746
Stores Generated: 2658121
Stores sent to L1D: 2658121
Major fault: 0 Minor fault: 22392
Allocated PAGES: 22392
 All Calls: 1496531
 Critical Calls: 1496531
------------------
Depth Distribution
------------------
depth 0: 0
depth 1: 1396623
depth 2: 1326990
depth 3: 1278835
depth 4: 1226268
depth 5: 1163479
depth 6: 1046073
depth 7: 781899
depth 8: 560702
depth 9: 254504
depth 10: 184893
depth 11: 145612
depth 12: 97092
depth 13: 56201
depth 14: 9748
depth 15: 9420
depth 16: 0
depth 17: 0
depth 18: 0
depth 19: 0
depth 20: 0
depth 21: 0
depth 22: 0
depth 23: 0
depth 24: 0
depth 25: 0
depth 26: 0
depth 27: 0
depth 28: 0
depth 29: 0
Total: 9538339
-----------------------------
-----------------------------
	Captured at Filter
-----------------------------
depth 0: 0
depth 1: 7819
depth 2: 7501
depth 3: 7453
depth 4: 7241
depth 5: 7133
depth 6: 6475
depth 7: 4652
depth 8: 3341
depth 9: 1473
depth 10: 945
depth 11: 729
depth 12: 446
depth 13: 288
depth 14: 43
depth 15: 44
depth 16: 0
depth 17: 0
depth 18: 0
depth 19: 0
depth 20: 0
depth 21: 0
depth 22: 0
depth 23: 0
depth 24: 0
depth 25: 0
depth 26: 0
depth 27: 0
depth 28: 0
depth 29: 0
-----------------------------
-----------------------------
		Lost at Page
-----------------------------
depth 0: 0
depth 1: 23203
depth 2: 46350
depth 3: 69526
depth 4: 92704
depth 5: 115864
depth 6: 128784
depth 7: 113409
depth 8: 98836
depth 9: 56336
depth 10: 41621
depth 11: 34084
depth 12: 28569
depth 13: 17746
depth 14: 4840
depth 15: 5072
depth 16: 0
depth 17: 0
depth 18: 0
depth 19: 0
depth 20: 0
depth 21: 0
depth 22: 0
depth 23: 0
depth 24: 0
depth 25: 0
depth 26: 0
depth 27: 0
depth 28: 0
depth 29: 0
-----------------------------
-----------------------------
	Lost due to PQ Size
-----------------------------
1225189
-----------------------------
ST read accesses: 730381
ST write accesses: 17870
PT read accesses: 31853794
PT write accesses: 1087379
FILTER read accesses: 7071815
FILTER write accesses: 2123060
GHR read accesses: 1590962
GHR write accesses: 406342
GHR counter read accesses: 26991706
GHR counter write accesses: 1804094
ST tag read accesses: 296752282
ST tag write accesses: 8204473

DRAM Statistics
 CHANNEL 0
 RQ ROW_BUFFER_HIT:     210503  ROW_BUFFER_MISS:     913931
 DBUS_CONGESTED:        312
 WQ ROW_BUFFER_HIT:     121547  ROW_BUFFER_MISS:     211697  FULL:        160

 AVG_CONGESTED_CYCLE: 3
 All warmup complete: 2
Channel 0 Bank busy for read cycles: 0
Channel 0 Bank busy for write cycles: 0
Channel 0
Rank 0
0banks busy for read cycles: 97620
0banks busy for write cycles: 11
1banks busy for read cycles: 8910331
1banks busy for write cycles: 99737
2banks busy for read cycles: 11372795
2banks busy for write cycles: 102804
3banks busy for read cycles: 8156663
3banks busy for write cycles: 106749
4banks busy for read cycles: 5968328
4banks busy for write cycles: 116449
5banks busy for read cycles: 3360509
5banks busy for write cycles: 136953
6banks busy for read cycles: 2034916
6banks busy for write cycles: 222594
7banks busy for read cycles: 1724651
7banks busy for write cycles: 951086
8banks busy for read cycles: 3763632
8banks busy for write cycles: 9109281

CPU 0 Branch Prediction Accuracy: 99.8824% MPKI: 0.0623 Average ROB Occupancy at Mispredict: 221.262
Branch types
NOT_BRANCH: 47350233 94.7005%
BRANCH_DIRECT_JUMP: 0 0%
BRANCH_INDIRECT: 0 0%
BRANCH_CONDITIONAL: 2649627 5.29925%
BRANCH_DIRECT_CALL: 0 0%
BRANCH_INDIRECT_CALL: 0 0%
BRANCH_RETURN: 0 0%
BRANCH_OTHER: 0 0%

@sumon_overall_L1D         0         0         0         0         0         0         0
@Sumon_Early_by_class_L1D         0         0         0         0
@Sumon_Late_by_class_L1D         0         0         0         0

@Sumon_Early_by_cycle_L1D         0         0         0         0         0         0         0         0         0         0         0         0
@Sumon_Late_by_cycle_L1D         0         0         0         0         0         0
@Sumon_Early_stream_L1D         0         0         0         0         0         0         0         0         0         0         0         0
@Sumon_Early_CS_L1D         0         0         0         0         0         0         0         0         0         0         0         0
@Sumon_Early_CPLX_L1D         0         0         0         0         0         0         0         0         0         0         0         0
@Sumon_Late_stream_L1D         0         0         0         0         0         0
@Sumon_Late_CS_L1D         0         0         0         0         0         0
@Sumon_Late_CPLX_L1D         0         0         0         0         0         0
@sumon_overall_L2C    485900     21203         0      4600    490497   4632235   5198622
@Sumon_Early_by_class_L2C         0         0         0         0
@Sumon_Late_by_class_L2C         0         0         0         0

@Sumon_Early_by_cycle_L2C     61002     69469    335087     14474      3770      2098         0         0         0         0         0         0
@Sumon_Late_by_cycle_L2C      7096      2983      2887      1327      5982       928
@Sumon_Early_stream_L2C         0         0         0         0         0         0         0         0         0         0         0         0
@Sumon_Early_CS_L2C         0         0         0         0         0         0         0         0         0         0         0         0
@Sumon_Early_CPLX_L2C         0         0         0         0         0         0         0         0         0         0         0         0
@Sumon_Late_stream_L2C         0         0         0         0         0         0
@Sumon_Late_CS_L2C         0         0         0         0         0         0
@Sumon_Late_CPLX_L2C         0         0         0         0         0         0
DRAM PAGES: 1048576
Allocated PAGES: 22392
