Initialize SIGNATURE TABLE
ST_SET: 1
ST_WAY: 256
ST_TAG_BIT: 16
ST_TAG_MASK: ffff

Initialize PATTERN TABLE
PT_SET: 512
PT_WAY: 4
SIG_DELTA_BIT: 7
C_SIG_BIT: 4
C_DELTA_BIT: 4

Initialize PREFETCH FILTER
FILTER_SET: 1024

*** ChampSim Multicore Out-of-Order Simulator ***

Warmup Instructions: 50000000
Simulation Instructions: 50000000
Number of CPUs: 1
LLC sets: 2048
LLC ways: 16
Off-chip DRAM Size: 4096 MB Channels: 1 Width: 64-bit Data Rate: 6400 MT/s
CPU 0 runs ../../biswa/SPEC2017Traces/602.gcc_s-2226B.champsimtrace.xz
.xz
CPU 0 Bimodal branch predictor
BTB has LRU replacement policy
ITLB has LRU replacement policy
DTLB has LRU replacement policy
STLB has LRU replacement policy
L1I has LRU replacement policy
L1D has LRU replacement policy
ST_WAYS: 256
PT_SETS: 512
L2C has LRU replacement policy
LLC has LRU replacement policy
Heartbeat CPU 0 instructions: 10000002 cycles: 3747258 heartbeat IPC: 2.66862 cumulative IPC: 2.66862 (Simulation time: 0 hr 3 min 8 sec) 
Heartbeat CPU 0 instructions: 20000001 cycles: 7496163 heartbeat IPC: 2.66745 cumulative IPC: 2.66803 (Simulation time: 0 hr 6 min 15 sec) 
Heartbeat CPU 0 instructions: 30000001 cycles: 11240032 heartbeat IPC: 2.67103 cumulative IPC: 2.66903 (Simulation time: 0 hr 9 min 13 sec) 
Heartbeat CPU 0 instructions: 40000002 cycles: 14984413 heartbeat IPC: 2.67067 cumulative IPC: 2.66944 (Simulation time: 0 hr 12 min 3 sec) 
Heartbeat CPU 0 instructions: 50000000 cycles: 18732535 heartbeat IPC: 2.668 cumulative IPC: 2.66915 (Simulation time: 0 hr 14 min 54 sec) 

Warmup complete CPU 0 instructions: 50000004 cycles: 18732536 (Simulation time: 0 hr 14 min 54 sec) 

Heartbeat CPU 0 instructions: 60000002 cycles: 57895531 heartbeat IPC: 0.255343 cumulative IPC: 0.255343 (Simulation time: 0 hr 19 min 29 sec) 
Heartbeat CPU 0 instructions: 70000000 cycles: 96503436 heartbeat IPC: 0.259014 cumulative IPC: 0.257166 (Simulation time: 0 hr 23 min 36 sec) 
Heartbeat CPU 0 instructions: 80000000 cycles: 135259535 heartbeat IPC: 0.258024 cumulative IPC: 0.257451 (Simulation time: 0 hr 26 min 3 sec) 
Heartbeat CPU 0 instructions: 90000001 cycles: 174304411 heartbeat IPC: 0.256116 cumulative IPC: 0.257116 (Simulation time: 0 hr 27 min 27 sec) 
Heartbeat CPU 0 instructions: 100000001 cycles: 213224699 heartbeat IPC: 0.256935 cumulative IPC: 0.25708 (Simulation time: 0 hr 28 min 21 sec) 
Finished CPU 0 instructions: 50000003 cycles: 194492191 cumulative IPC: 0.25708 (Simulation time: 0 hr 28 min 21 sec) 

ChampSim completed all CPUs

Region of Interest Statistics

CPU 0 cumulative IPC: 0.25708 instructions: 50000003 cycles: 194492191
ITLB TOTAL     ACCESS:   10631137  HIT:   10631137  MISS:          0  HIT %:        100  MISS %:          0   MPKI: 0
ITLB LOAD TRANSLATION ACCESS:   10631137  HIT:   10631137  MISS:          0  HIT %:        100  MISS %:          0   MPKI: 0
ITLB PREFETCH  REQUESTED:          0  ISSUED:          0  USEFUL:          0  USELESS:          0
ITLB USEFUL LOAD PREFETCHES:          0 PREFETCH ISSUED TO LOWER LEVEL:          0  ACCURACY: -nan
ITLB TIMELY PREFETCHES:          0 LATE PREFETCHES: 0 DROPPED PREFETCHES: 0
ITLB PREFETCHES SAME FILL-ORIGIN LEVEL: 0 DIFFERENT FILL-ORIGIN LEVEL: 0
ITLB AVERAGE MISS LATENCY: -nan cycles
ITLB RQ	ACCESS:   10804026	FORWARD:          0	MERGED:     172890	TO_CACHE:   10631136

Revised Interactions: positive negative neutral
ITLB_interactions 0 0 0 -nan -nan -nan
DTLB TOTAL     ACCESS:    7728522  HIT:    7660033  MISS:      68489  HIT %:    99.1138  MISS %:   0.886185   MPKI: 1.36978
DTLB LOAD TRANSLATION ACCESS:    7728522  HIT:    7660033  MISS:      68489  HIT %:    99.1138  MISS %:   0.886185   MPKI: 1.36978
DTLB PREFETCH  REQUESTED:          0  ISSUED:          0  USEFUL:          0  USELESS:          0
DTLB USEFUL LOAD PREFETCHES:          0 PREFETCH ISSUED TO LOWER LEVEL:          0  ACCURACY: -nan
DTLB TIMELY PREFETCHES:          0 LATE PREFETCHES: 0 DROPPED PREFETCHES: 0
DTLB PREFETCHES SAME FILL-ORIGIN LEVEL: 0 DIFFERENT FILL-ORIGIN LEVEL: 0
DTLB AVERAGE MISS LATENCY: 69.7492 cycles
DTLB RQ	ACCESS:    9095360	FORWARD:          0	MERGED:    1366600	TO_CACHE:    7728760

Revised Interactions: positive negative neutral
DTLB_interactions 0 0 0 -nan -nan -nan
STLB TOTAL     ACCESS:      68489  HIT:       2398  MISS:      66091  HIT %:    3.50129  MISS %:    96.4987   MPKI: 1.32182
STLB LOAD TRANSLATION ACCESS:      68489  HIT:       2398  MISS:      66091  HIT %:    3.50129  MISS %:    96.4987   MPKI: 1.32182
STLB PREFETCH  REQUESTED:          0  ISSUED:          0  USEFUL:          0  USELESS:          0
STLB USEFUL LOAD PREFETCHES:          0 PREFETCH ISSUED TO LOWER LEVEL:          0  ACCURACY: -nan
STLB TIMELY PREFETCHES:          0 LATE PREFETCHES: 0 DROPPED PREFETCHES: 0
STLB PREFETCHES SAME FILL-ORIGIN LEVEL: 0 DIFFERENT FILL-ORIGIN LEVEL: 0
STLB AVERAGE MISS LATENCY: 62.9531 cycles
STLB RQ	ACCESS:      68488	FORWARD:          0	MERGED:          0	TO_CACHE:      68488

Revised Interactions: positive negative neutral
STLB_interactions 0 0 0 -nan -nan -nan
STLB Hit, L1D data hit: 0
STLB Hit, L2C data hit: 0
STLB Hit, LLC data hit: 0
STLB Hit, LLC data miss: 0
STLB STLB hints to L2: 0
L1D TOTAL     ACCESS:    7855744  HIT:    4350752  MISS:    3504992  HIT %:    55.3831  MISS %:    44.6169   MPKI: 70.0998
L1D LOAD      ACCESS:    7201394  HIT:    3697750  MISS:    3503644  HIT %:    51.3477  MISS %:    48.6523   MPKI: 70.0729
L1D RFO       ACCESS:     654350  HIT:     653002  MISS:       1348  HIT %:     99.794  MISS %:   0.206006   MPKI: 0.02696
L1D PREFETCH  REQUESTED:          0  ISSUED:          0  USEFUL:          0  USELESS:          0
L1D USEFUL LOAD PREFETCHES:          0 PREFETCH ISSUED TO LOWER LEVEL:          0  ACCURACY: -nan
L1D TIMELY PREFETCHES:          0 LATE PREFETCHES: 0 DROPPED PREFETCHES: 0
L1D PREFETCHES SAME FILL-ORIGIN LEVEL: 0 DIFFERENT FILL-ORIGIN LEVEL: 0
L1D AVERAGE MISS LATENCY: 28.2784 cycles
L1D RQ	ACCESS:   17950568	FORWARD:          0	MERGED:    9507994	TO_CACHE:    8441006
L1D WQ	ACCESS:     726205	FORWARD:       1568	MERGED:      71851	TO_CACHE:     654354

Revised Interactions: positive negative neutral
L1D_interactions 0 0 0 -nan -nan -nan
L1D UNIQUE REGIONS ACCESSED: 0
L1D REGIONS CONFLICTS: 0
L1D Cross Page Prefetch Requests: 0
L1D Same Page Prefetch Requests: 0
L1D ROI Sum of L1D PQ occupancy: 0
L1D PREFETCHES PUSHED FROM L2C: 0
L1I TOTAL     ACCESS:   10804026  HIT:   10804026  MISS:          0  HIT %:        100  MISS %:          0   MPKI: 0
L1I LOAD      ACCESS:   10804026  HIT:   10804026  MISS:          0  HIT %:        100  MISS %:          0   MPKI: 0
L1I PREFETCH  REQUESTED:          0  ISSUED:          0  USEFUL:          0  USELESS:          0
L1I USEFUL LOAD PREFETCHES:          0 PREFETCH ISSUED TO LOWER LEVEL:          0  ACCURACY: -nan
L1I TIMELY PREFETCHES:          0 LATE PREFETCHES: 0 DROPPED PREFETCHES: 0
L1I PREFETCHES SAME FILL-ORIGIN LEVEL: 0 DIFFERENT FILL-ORIGIN LEVEL: 0
L1I AVERAGE MISS LATENCY: -nan cycles
L1I RQ	ACCESS:   15894031	FORWARD:          0	MERGED:    5090005	TO_CACHE:   10804026

Revised Interactions: positive negative neutral
L1I_interactions 0 0 0 -nan -nan -nan
BTB TOTAL     ACCESS:   11928208  HIT:   11928110  MISS:         98  HIT %:    99.9992  MISS %: 0.000821582   MPKI: 0.00196
BTB BRANCH_DIRECT_JUMP	ACCESS:     168848  HIT:     168822  MISS:         26
BTB BRANCH_INDIRECT	ACCESS:          0  HIT:          0  MISS:          0
BTB BRANCH_CONDITIONAL	ACCESS:   11592650  HIT:   11592601  MISS:         49
BTB BRANCH_DIRECT_CALL	ACCESS:      83355  HIT:      83345  MISS:         10
BTB BRANCH_INDIRECT_CALL	ACCESS:          0  HIT:          0  MISS:          0
BTB BRANCH_RETURN	ACCESS:      83355  HIT:      83342  MISS:         13
BTB BRANCH_OTHER ACCESS:          0  HIT:          0  MISS:          0

L2C TOTAL     ACCESS:    5181642  HIT:    1654781  MISS:    3526861  HIT %:    31.9355  MISS %:    68.0645   MPKI: 70.5372
L2C LOAD      ACCESS:    3503642  HIT:    1582811  MISS:    1920831  HIT %:    45.1762  MISS %:    54.8238   MPKI: 38.4166
L2C DATA LOAD MPKI: 38.4166
L2C INSTRUCTION LOAD MPKI: 0
L2C RFO       ACCESS:       1348  HIT:         93  MISS:       1255  HIT %:    6.89911  MISS %:    93.1009   MPKI: 0.0251
L2C PREFETCH  ACCESS:    1603387  HIT:      14179  MISS:    1589208  HIT %:   0.884316  MISS %:    99.1157   MPKI: 31.7842
L2C DATA PREFETCH MPKI: 31.7842
L2C INSTRUCTION PREFETCH MPKI: 0
L2C WRITEBACK ACCESS:       5610  HIT:       5599  MISS:         11  HIT %:    99.8039  MISS %:   0.196078   MPKI: 0.00022
L2C LOAD TRANSLATION ACCESS:      67655  HIT:      52099  MISS:      15556  HIT %:    77.0069  MISS %:    22.9931   MPKI: 0.31112
L2C PREFETCH  REQUESTED:   34871583  ISSUED:   34784963  USEFUL:    1581369  USELESS:       7844
L2C USEFUL LOAD PREFETCHES:    1581369 PREFETCH ISSUED TO LOWER LEVEL:   34559171  ACCURACY: 4.57583
L2C TIMELY PREFETCHES:    1581369 LATE PREFETCHES: 933282 DROPPED PREFETCHES: 0
L2C PREFETCHES SAME FILL-ORIGIN LEVEL: 2522490 DIFFERENT FILL-ORIGIN LEVEL: 32036681
L2C AVERAGE MISS LATENCY: 31.1303 cycles
L2C RQ	ACCESS:    3572647	FORWARD:          0	MERGED:          0	TO_CACHE:    3572645
L2C WQ	ACCESS:       5610	FORWARD:          2	MERGED:          0	TO_CACHE:       5610
L2C PQ	ACCESS:   34784963	FORWARD:          0	MERGED:     198508	TO_CACHE:   34586455

Revised Interactions: positive negative neutral
L2C_interactions 1579973 8336 4267 99.2086 0.523429 0.267931
L2C Instructions Evicting Data 0
L2C Translations Evicting Data 15505
L2C Data Evicting Data 3495794
L2C Instructions Evicting Instructions 0
L2C Translations Evicting Instructions 0
L2C Data Evicting Instructions 0
L2C Instructions Evicting Translations 0
L2C Translations Evicting Translations 51
L2C Data Evicting Translations 15500
L2C Dense regions hint from L2: 0
PSCL5 TOTAL     ACCESS:      66090  HIT:      66090  MISS:          0  HIT %:        100  MISS %:          0   MPKI: 0
PSCL5 LOAD TRANSLATION ACCESS:      66090  HIT:      66090  MISS:          0  HIT %:        100  MISS %:          0   MPKI: 0
PSCL5 PREFETCH  REQUESTED:          0  ISSUED:          0  USEFUL:          0  USELESS:          0
PSCL5 USEFUL LOAD PREFETCHES:          0 PREFETCH ISSUED TO LOWER LEVEL:          0  ACCURACY: -nan
PSCL5 TIMELY PREFETCHES:          0 LATE PREFETCHES: 0 DROPPED PREFETCHES: 0
PSCL5 PREFETCHES SAME FILL-ORIGIN LEVEL: 0 DIFFERENT FILL-ORIGIN LEVEL: 0

Revised Interactions: positive negative neutral
PSCL5_interactions 0 0 0 -nan -nan -nan
PSCL4 TOTAL     ACCESS:      66090  HIT:      66090  MISS:          0  HIT %:        100  MISS %:          0   MPKI: 0
PSCL4 LOAD TRANSLATION ACCESS:      66090  HIT:      66090  MISS:          0  HIT %:        100  MISS %:          0   MPKI: 0
PSCL4 PREFETCH  REQUESTED:          0  ISSUED:          0  USEFUL:          0  USELESS:          0
PSCL4 USEFUL LOAD PREFETCHES:          0 PREFETCH ISSUED TO LOWER LEVEL:          0  ACCURACY: -nan
PSCL4 TIMELY PREFETCHES:          0 LATE PREFETCHES: 0 DROPPED PREFETCHES: 0
PSCL4 PREFETCHES SAME FILL-ORIGIN LEVEL: 0 DIFFERENT FILL-ORIGIN LEVEL: 0

Revised Interactions: positive negative neutral
PSCL4_interactions 0 0 0 -nan -nan -nan
PSCL3 TOTAL     ACCESS:      66088  HIT:      66081  MISS:          7  HIT %:    99.9894  MISS %:  0.0105919   MPKI: 0.00014
PSCL3 LOAD TRANSLATION ACCESS:      66088  HIT:      66081  MISS:          7  HIT %:    99.9894  MISS %:  0.0105919   MPKI: 0.00014
PSCL3 PREFETCH  REQUESTED:          0  ISSUED:          0  USEFUL:          0  USELESS:          0
PSCL3 USEFUL LOAD PREFETCHES:          0 PREFETCH ISSUED TO LOWER LEVEL:          0  ACCURACY: -nan
PSCL3 TIMELY PREFETCHES:          0 LATE PREFETCHES: 0 DROPPED PREFETCHES: 0
PSCL3 PREFETCHES SAME FILL-ORIGIN LEVEL: 0 DIFFERENT FILL-ORIGIN LEVEL: 0

Revised Interactions: positive negative neutral
PSCL3_interactions 0 0 0 -nan -nan -nan
PSCL2 TOTAL     ACCESS:      66090  HIT:      64531  MISS:       1559  HIT %:    97.6411  MISS %:     2.3589   MPKI: 0.03118
PSCL2 LOAD TRANSLATION ACCESS:      66090  HIT:      64531  MISS:       1559  HIT %:    97.6411  MISS %:     2.3589   MPKI: 0.03118
PSCL2 PREFETCH  REQUESTED:          0  ISSUED:          0  USEFUL:          0  USELESS:          0
PSCL2 USEFUL LOAD PREFETCHES:          0 PREFETCH ISSUED TO LOWER LEVEL:          0  ACCURACY: -nan
PSCL2 TIMELY PREFETCHES:          0 LATE PREFETCHES: 0 DROPPED PREFETCHES: 0
PSCL2 PREFETCHES SAME FILL-ORIGIN LEVEL: 0 DIFFERENT FILL-ORIGIN LEVEL: 0

Revised Interactions: positive negative neutral
PSCL2_interactions 0 0 0 -nan -nan -nan
LLC TOTAL     ACCESS:   33404740  HIT:   29762416  MISS:    3642324  HIT %:    89.0964  MISS %:    10.9036   MPKI: 72.8465
LLC LOAD      ACCESS:     987549  HIT:     887132  MISS:     100417  HIT %:    89.8317  MISS %:    10.1683   MPKI: 2.00834
LLC RFO       ACCESS:       1255  HIT:        804  MISS:        451  HIT %:    64.0637  MISS %:    35.9363   MPKI: 0.00902
LLC PREFETCH  ACCESS:   32394773  HIT:   28868143  MISS:    3526630  HIT %:    89.1136  MISS %:    10.8864   MPKI: 70.5326
LLC WRITEBACK ACCESS:       5607  HIT:       5596  MISS:         11  HIT %:    99.8038  MISS %:   0.196183   MPKI: 0.00022
LLC LOAD TRANSLATION ACCESS:      15556  HIT:        741  MISS:      14815  HIT %:    4.76344  MISS %:    95.2366   MPKI: 0.2963
LLC PREFETCH  REQUESTED:          0  ISSUED:          0  USEFUL:     887842  USELESS:    2621767
LLC USEFUL LOAD PREFETCHES:     887842 PREFETCH ISSUED TO LOWER LEVEL:    3528333  ACCURACY: 25.1632
LLC TIMELY PREFETCHES:     887842 LATE PREFETCHES: 1700 DROPPED PREFETCHES: 0
LLC PREFETCHES SAME FILL-ORIGIN LEVEL: 3485431 DIFFERENT FILL-ORIGIN LEVEL: 0
LLC AVERAGE MISS LATENCY: 80.0127 cycles
LLC RQ	ACCESS:    1004360	FORWARD:          0	MERGED:          0	TO_CACHE:    1004360
LLC WQ	ACCESS:       5607	FORWARD:          0	MERGED:          0	TO_CACHE:       5607
LLC PQ	ACCESS:   34559171	FORWARD:          0	MERGED:      23555	TO_CACHE:   34535616

Revised Interactions: positive negative neutral
LLC_interactions 882192 2643149 44190 24.7145 74.0475 1.23798
LLC Dense regions hint to LLC: 0

RAW hits: 4034
Loads Generated: 17954605
Loads sent to L1D: 17950568
Stores Generated: 726205
Stores sent to L1D: 726205
Major fault: 0 Minor fault: 48887
Allocated PAGES: 48887
 All Calls: 7000294
 Critical Calls: 7000294
------------------
Depth Distribution
------------------
depth 0: 0
depth 1: 6815084
depth 2: 6694114
depth 3: 6558978
depth 4: 6421348
depth 5: 6266513
depth 6: 6089162
depth 7: 5880145
depth 8: 5669395
depth 9: 4828676
depth 10: 4315881
depth 11: 3515121
depth 12: 2213542
depth 13: 1315370
depth 14: 160640
depth 15: 145231
depth 16: 2
depth 17: 0
depth 18: 0
depth 19: 0
depth 20: 0
depth 21: 0
depth 22: 0
depth 23: 0
depth 24: 0
depth 25: 0
depth 26: 0
depth 27: 0
depth 28: 0
depth 29: 0
Total: 66889202
-----------------------------
-----------------------------
	Captured at Filter
-----------------------------
depth 0: 0
depth 1: 56022
depth 2: 44697
depth 3: 43967
depth 4: 43196
depth 5: 42377
depth 6: 41628
depth 7: 40598
depth 8: 39437
depth 9: 33762
depth 10: 30268
depth 11: 24876
depth 12: 16215
depth 13: 9982
depth 14: 1291
depth 15: 1285
depth 16: 0
depth 17: 0
depth 18: 0
depth 19: 0
depth 20: 0
depth 21: 0
depth 22: 0
depth 23: 0
depth 24: 0
depth 25: 0
depth 26: 0
depth 27: 0
depth 28: 0
depth 29: 0
-----------------------------
-----------------------------
		Lost at Page
-----------------------------
depth 0: 0
depth 1: 109308
depth 2: 217956
depth 3: 326509
depth 4: 434869
depth 5: 542993
depth 6: 650129
depth 7: 754417
depth 8: 852997
depth 9: 835285
depth 10: 850407
depth 11: 782696
depth 12: 565259
depth 13: 383231
depth 14: 54788
depth 15: 58628
depth 16: 0
depth 17: 0
depth 18: 0
depth 19: 0
depth 20: 0
depth 21: 0
depth 22: 0
depth 23: 0
depth 24: 0
depth 25: 0
depth 26: 0
depth 27: 0
depth 28: 0
depth 29: 0
-----------------------------
-----------------------------
	Lost due to PQ Size
-----------------------------
2038326
-----------------------------
ST read accesses: 3437746
ST write accesses: 65896
PT read accesses: 211972164
PT write accesses: 5142588
FILTER read accesses: 42136439
FILTER write accesses: 8583696
GHR read accesses: 18799273
GHR write accesses: 3788417
GHR counter read accesses: 176593580
GHR counter write accesses: 8567725
ST tag read accesses: 1381351656
ST tag write accesses: 21001265

DRAM Statistics
 CHANNEL 0
 RQ ROW_BUFFER_HIT:    3427424  ROW_BUFFER_MISS:     214889
 DBUS_CONGESTED:        837
 WQ ROW_BUFFER_HIT:        668  ROW_BUFFER_MISS:       4951  FULL:          0

 AVG_CONGESTED_CYCLE: 3
 All warmup complete: 2
Channel 0 Bank busy for read cycles: 0
Channel 0 Bank busy for write cycles: 0
Channel 0
Rank 0
0banks busy for read cycles: 102550958
0banks busy for write cycles: 3228
1banks busy for read cycles: 35656365
1banks busy for write cycles: 550325
2banks busy for read cycles: 28501331
2banks busy for write cycles: 236162
3banks busy for read cycles: 15166084
3banks busy for write cycles: 98685
4banks busy for read cycles: 5105348
4banks busy for write cycles: 42281
5banks busy for read cycles: 1577186
5banks busy for write cycles: 12693
6banks busy for read cycles: 1012262
6banks busy for write cycles: 3196
7banks busy for read cycles: 737153
7banks busy for write cycles: 0
8banks busy for read cycles: 3238935
8banks busy for write cycles: 0

CPU 0 Branch Prediction Accuracy: 99.1302% MPKI: 3.1024 Average ROB Occupancy at Mispredict: 117.062
Branch types
NOT_BRANCH: 32166921 64.3338%
BRANCH_DIRECT_JUMP: 168848 0.337696%
BRANCH_INDIRECT: 0 0%
BRANCH_CONDITIONAL: 17497546 34.9951%
BRANCH_DIRECT_CALL: 83355 0.16671%
BRANCH_INDIRECT_CALL: 0 0%
BRANCH_RETURN: 83355 0.16671%
BRANCH_OTHER: 0 0%

@sumon_overall_L1D         0         0         0         0         0         0         0
@Sumon_Early_by_class_L1D         0         0         0         0
@Sumon_Late_by_class_L1D         0         0         0         0

@Sumon_Early_by_cycle_L1D         0         0         0         0         0         0         0         0         0         0         0         0
@Sumon_Late_by_cycle_L1D         0         0         0         0         0         0
@Sumon_Early_stream_L1D         0         0         0         0         0         0         0         0         0         0         0         0
@Sumon_Early_CS_L1D         0         0         0         0         0         0         0         0         0         0         0         0
@Sumon_Early_CPLX_L1D         0         0         0         0         0         0         0         0         0         0         0         0
@Sumon_Late_stream_L1D         0         0         0         0         0         0
@Sumon_Late_CS_L1D         0         0         0         0         0         0
@Sumon_Late_CPLX_L1D         0         0         0         0         0         0
@sumon_overall_L2C   1581369    933282         0      7844   1589208  34784963  34871583
@Sumon_Early_by_class_L2C         0         0         0         0
@Sumon_Late_by_class_L2C         0         0         0         0

@Sumon_Early_by_cycle_L2C   1469254     44469     15608      7539      6536     17616     12203      4641         4      1785      1468       246
@Sumon_Late_by_cycle_L2C    919905      2287      9717      1250       123         0
@Sumon_Early_stream_L2C         0         0         0         0         0         0         0         0         0         0         0         0
@Sumon_Early_CS_L2C         0         0         0         0         0         0         0         0         0         0         0         0
@Sumon_Early_CPLX_L2C         0         0         0         0         0         0         0         0         0         0         0         0
@Sumon_Late_stream_L2C         0         0         0         0         0         0
@Sumon_Late_CS_L2C         0         0         0         0         0         0
@Sumon_Late_CPLX_L2C         0         0         0         0         0         0
DRAM PAGES: 1048576
Allocated PAGES: 48887
