Initialize SIGNATURE TABLE
ST_SET: 1
ST_WAY: 256
ST_TAG_BIT: 16
ST_TAG_MASK: ffff

Initialize PATTERN TABLE
PT_SET: 512
PT_WAY: 4
SIG_DELTA_BIT: 7
C_SIG_BIT: 4
C_DELTA_BIT: 4

Initialize PREFETCH FILTER
FILTER_SET: 1024

*** ChampSim Multicore Out-of-Order Simulator ***

Warmup Instructions: 50000000
Simulation Instructions: 50000000
Number of CPUs: 1
LLC sets: 2048
LLC ways: 16
Off-chip DRAM Size: 4096 MB Channels: 1 Width: 64-bit Data Rate: 6400 MT/s
CPU 0 runs ../../biswa/SPEC2017Traces/603.bwaves_s-2609B.champsimtrace.xz
.xz
CPU 0 Bimodal branch predictor
BTB has LRU replacement policy
ITLB has LRU replacement policy
DTLB has LRU replacement policy
STLB has LRU replacement policy
L1I has LRU replacement policy
L1D has LRU replacement policy
ST_WAYS: 256
PT_SETS: 512
L2C has LRU replacement policy
LLC has LRU replacement policy
Heartbeat CPU 0 instructions: 10000001 cycles: 3313119 heartbeat IPC: 3.0183 cumulative IPC: 3.0183 (Simulation time: 0 hr 2 min 13 sec) 
Heartbeat CPU 0 instructions: 20000003 cycles: 6626308 heartbeat IPC: 3.01824 cumulative IPC: 3.01827 (Simulation time: 0 hr 4 min 54 sec) 
Heartbeat CPU 0 instructions: 30000001 cycles: 9940358 heartbeat IPC: 3.01746 cumulative IPC: 3.018 (Simulation time: 0 hr 7 min 45 sec) 
Heartbeat CPU 0 instructions: 40000002 cycles: 13253857 heartbeat IPC: 3.01796 cumulative IPC: 3.01799 (Simulation time: 0 hr 10 min 34 sec) 
Heartbeat CPU 0 instructions: 50000003 cycles: 16566925 heartbeat IPC: 3.01835 cumulative IPC: 3.01806 (Simulation time: 0 hr 13 min 20 sec) 

Warmup complete CPU 0 instructions: 50000003 cycles: 16566925 (Simulation time: 0 hr 13 min 20 sec) 

Heartbeat CPU 0 instructions: 60000000 cycles: 27857973 heartbeat IPC: 0.885657 cumulative IPC: 0.885657 (Simulation time: 0 hr 15 min 41 sec) 
Heartbeat CPU 0 instructions: 70000000 cycles: 39154167 heartbeat IPC: 0.885254 cumulative IPC: 0.885455 (Simulation time: 0 hr 18 min 3 sec) 
Heartbeat CPU 0 instructions: 80000003 cycles: 50450375 heartbeat IPC: 0.885253 cumulative IPC: 0.885388 (Simulation time: 0 hr 20 min 27 sec) 
Heartbeat CPU 0 instructions: 90000003 cycles: 61747172 heartbeat IPC: 0.885207 cumulative IPC: 0.885343 (Simulation time: 0 hr 22 min 33 sec) 
Heartbeat CPU 0 instructions: 100000001 cycles: 73038562 heartbeat IPC: 0.88563 cumulative IPC: 0.8854 (Simulation time: 0 hr 24 min 25 sec) 
Finished CPU 0 instructions: 50000002 cycles: 56471638 cumulative IPC: 0.8854 (Simulation time: 0 hr 24 min 25 sec) 

ChampSim completed all CPUs

Region of Interest Statistics

CPU 0 cumulative IPC: 0.8854 instructions: 50000002 cycles: 56471638
ITLB TOTAL     ACCESS:    6356450  HIT:    6356450  MISS:          0  HIT %:        100  MISS %:          0   MPKI: 0
ITLB LOAD TRANSLATION ACCESS:    6356450  HIT:    6356450  MISS:          0  HIT %:        100  MISS %:          0   MPKI: 0
ITLB PREFETCH  REQUESTED:          0  ISSUED:          0  USEFUL:          0  USELESS:          0
ITLB USEFUL LOAD PREFETCHES:          0 PREFETCH ISSUED TO LOWER LEVEL:          0  ACCURACY: -nan
ITLB TIMELY PREFETCHES:          0 LATE PREFETCHES: 0 DROPPED PREFETCHES: 0
ITLB PREFETCHES SAME FILL-ORIGIN LEVEL: 0 DIFFERENT FILL-ORIGIN LEVEL: 0
ITLB AVERAGE MISS LATENCY: -nan cycles
ITLB RQ	ACCESS:    8463006	FORWARD:          0	MERGED:    2106556	TO_CACHE:    6356450

Revised Interactions: positive negative neutral
ITLB_interactions 0 0 0 -nan -nan -nan
DTLB TOTAL     ACCESS:   16369628  HIT:   16334730  MISS:      34898  HIT %:    99.7868  MISS %:   0.213187   MPKI: 0.69796
DTLB LOAD TRANSLATION ACCESS:   16369628  HIT:   16334730  MISS:      34898  HIT %:    99.7868  MISS %:   0.213187   MPKI: 0.69796
DTLB PREFETCH  REQUESTED:          0  ISSUED:          0  USEFUL:          0  USELESS:          0
DTLB USEFUL LOAD PREFETCHES:          0 PREFETCH ISSUED TO LOWER LEVEL:          0  ACCURACY: -nan
DTLB TIMELY PREFETCHES:          0 LATE PREFETCHES: 0 DROPPED PREFETCHES: 0
DTLB PREFETCHES SAME FILL-ORIGIN LEVEL: 0 DIFFERENT FILL-ORIGIN LEVEL: 0
DTLB AVERAGE MISS LATENCY: 218.917 cycles
DTLB RQ	ACCESS:   19034076	FORWARD:          0	MERGED:    2659384	TO_CACHE:   16374692

Revised Interactions: positive negative neutral
DTLB_interactions 0 0 0 -nan -nan -nan
STLB TOTAL     ACCESS:      34898  HIT:      20046  MISS:      14852  HIT %:    57.4417  MISS %:    42.5583   MPKI: 0.29704
STLB LOAD TRANSLATION ACCESS:      34898  HIT:      20046  MISS:      14852  HIT %:    57.4417  MISS %:    42.5583   MPKI: 0.29704
STLB PREFETCH  REQUESTED:          0  ISSUED:          0  USEFUL:          0  USELESS:          0
STLB USEFUL LOAD PREFETCHES:          0 PREFETCH ISSUED TO LOWER LEVEL:          0  ACCURACY: -nan
STLB TIMELY PREFETCHES:          0 LATE PREFETCHES: 0 DROPPED PREFETCHES: 0
STLB PREFETCHES SAME FILL-ORIGIN LEVEL: 0 DIFFERENT FILL-ORIGIN LEVEL: 0
STLB AVERAGE MISS LATENCY: 467.814 cycles
STLB RQ	ACCESS:      34898	FORWARD:          0	MERGED:          0	TO_CACHE:      34898

Revised Interactions: positive negative neutral
STLB_interactions 0 0 0 -nan -nan -nan
STLB Hit, L1D data hit: 0
STLB Hit, L2C data hit: 0
STLB Hit, LLC data hit: 0
STLB Hit, LLC data miss: 0
STLB STLB hints to L2: 0
L1D TOTAL     ACCESS:   18884723  HIT:   17885121  MISS:     999602  HIT %:    94.7068  MISS %:    5.29318   MPKI: 19.992
L1D LOAD      ACCESS:   16075868  HIT:   15100628  MISS:     975240  HIT %:    93.9335  MISS %:    6.06648   MPKI: 19.5048
L1D RFO       ACCESS:    2808855  HIT:    2784493  MISS:      24362  HIT %:    99.1327  MISS %:   0.867329   MPKI: 0.48724
L1D PREFETCH  REQUESTED:          0  ISSUED:          0  USEFUL:          0  USELESS:          0
L1D USEFUL LOAD PREFETCHES:          0 PREFETCH ISSUED TO LOWER LEVEL:          0  ACCURACY: -nan
L1D TIMELY PREFETCHES:          0 LATE PREFETCHES: 0 DROPPED PREFETCHES: 0
L1D PREFETCHES SAME FILL-ORIGIN LEVEL: 0 DIFFERENT FILL-ORIGIN LEVEL: 0
L1D AVERAGE MISS LATENCY: 52.5988 cycles
L1D RQ	ACCESS:   21232107	FORWARD:          0	MERGED:    4947599	TO_CACHE:   16217381
L1D WQ	ACCESS:    2816716	FORWARD:      67127	MERGED:         21	TO_CACHE:    2816695

Revised Interactions: positive negative neutral
L1D_interactions 0 0 0 -nan -nan -nan
L1D UNIQUE REGIONS ACCESSED: 0
L1D REGIONS CONFLICTS: 0
L1D Cross Page Prefetch Requests: 0
L1D Same Page Prefetch Requests: 0
L1D ROI Sum of L1D PQ occupancy: 0
L1D PREFETCHES PUSHED FROM L2C: 0
L1I TOTAL     ACCESS:    8463006  HIT:    8463006  MISS:          0  HIT %:        100  MISS %:          0   MPKI: 0
L1I LOAD      ACCESS:    8463006  HIT:    8463006  MISS:          0  HIT %:        100  MISS %:          0   MPKI: 0
L1I PREFETCH  REQUESTED:          0  ISSUED:          0  USEFUL:          0  USELESS:          0
L1I USEFUL LOAD PREFETCHES:          0 PREFETCH ISSUED TO LOWER LEVEL:          0  ACCURACY: -nan
L1I TIMELY PREFETCHES:          0 LATE PREFETCHES: 0 DROPPED PREFETCHES: 0
L1I PREFETCHES SAME FILL-ORIGIN LEVEL: 0 DIFFERENT FILL-ORIGIN LEVEL: 0
L1I AVERAGE MISS LATENCY: -nan cycles
L1I RQ	ACCESS:   11737564	FORWARD:          0	MERGED:    3274558	TO_CACHE:    8463006

Revised Interactions: positive negative neutral
L1I_interactions 0 0 0 -nan -nan -nan
BTB TOTAL     ACCESS:    1208719  HIT:    1208714  MISS:          5  HIT %:    99.9996  MISS %: 0.000413661   MPKI: 0.0001
BTB BRANCH_DIRECT_JUMP	ACCESS:          0  HIT:          0  MISS:          0
BTB BRANCH_INDIRECT	ACCESS:          0  HIT:          0  MISS:          0
BTB BRANCH_CONDITIONAL	ACCESS:    1208719  HIT:    1208714  MISS:          5
BTB BRANCH_DIRECT_CALL	ACCESS:          0  HIT:          0  MISS:          0
BTB BRANCH_INDIRECT_CALL	ACCESS:          0  HIT:          0  MISS:          0
BTB BRANCH_RETURN	ACCESS:          0  HIT:          0  MISS:          0
BTB BRANCH_OTHER ACCESS:          0  HIT:          0  MISS:          0

L2C TOTAL     ACCESS:    1621766  HIT:     669735  MISS:     952031  HIT %:    41.2966  MISS %:    58.7034   MPKI: 19.0406
L2C LOAD      ACCESS:     975241  HIT:     455154  MISS:     520087  HIT %:    46.6709  MISS %:    53.3291   MPKI: 10.4017
L2C DATA LOAD MPKI: 10.4017
L2C INSTRUCTION LOAD MPKI: 0
L2C RFO       ACCESS:      24362  HIT:          0  MISS:      24362  HIT %:          0  MISS %:        100   MPKI: 0.48724
L2C PREFETCH  ACCESS:     582571  HIT:     176877  MISS:     405694  HIT %:    30.3614  MISS %:    69.6386   MPKI: 8.11388
L2C DATA PREFETCH MPKI: 8.11388
L2C INSTRUCTION PREFETCH MPKI: 0
L2C WRITEBACK ACCESS:      24738  HIT:      24738  MISS:          0  HIT %:        100  MISS %:          0   MPKI: 0
L2C LOAD TRANSLATION ACCESS:      14854  HIT:      12966  MISS:       1888  HIT %:    87.2896  MISS %:    12.7104   MPKI: 0.03776
L2C PREFETCH  REQUESTED:    3741541  ISSUED:    2735447  USEFUL:     405692  USELESS:          0
L2C USEFUL LOAD PREFETCHES:     405692 PREFETCH ISSUED TO LOWER LEVEL:    2503994  ACCURACY: 16.2018
L2C TIMELY PREFETCHES:     405692 LATE PREFETCHES: 105059 DROPPED PREFETCHES: 0
L2C PREFETCHES SAME FILL-ORIGIN LEVEL: 510757 DIFFERENT FILL-ORIGIN LEVEL: 1993237
L2C AVERAGE MISS LATENCY: 57.5837 cycles
L2C RQ	ACCESS:    1014459	FORWARD:          0	MERGED:          0	TO_CACHE:    1014459
L2C WQ	ACCESS:      24738	FORWARD:          0	MERGED:          0	TO_CACHE:      24738
L2C PQ	ACCESS:    2735447	FORWARD:          0	MERGED:      24618	TO_CACHE:    2710829

Revised Interactions: positive negative neutral
L2C_interactions 405255 5 0 99.9988 0.00123378 0
L2C Instructions Evicting Data 0
L2C Translations Evicting Data 1885
L2C Data Evicting Data 948264
L2C Instructions Evicting Instructions 0
L2C Translations Evicting Instructions 0
L2C Data Evicting Instructions 0
L2C Instructions Evicting Translations 0
L2C Translations Evicting Translations 3
L2C Data Evicting Translations 1879
L2C Dense regions hint from L2: 0
PSCL5 TOTAL     ACCESS:      14852  HIT:      14852  MISS:          0  HIT %:        100  MISS %:          0   MPKI: 0
PSCL5 LOAD TRANSLATION ACCESS:      14852  HIT:      14852  MISS:          0  HIT %:        100  MISS %:          0   MPKI: 0
PSCL5 PREFETCH  REQUESTED:          0  ISSUED:          0  USEFUL:          0  USELESS:          0
PSCL5 USEFUL LOAD PREFETCHES:          0 PREFETCH ISSUED TO LOWER LEVEL:          0  ACCURACY: -nan
PSCL5 TIMELY PREFETCHES:          0 LATE PREFETCHES: 0 DROPPED PREFETCHES: 0
PSCL5 PREFETCHES SAME FILL-ORIGIN LEVEL: 0 DIFFERENT FILL-ORIGIN LEVEL: 0

Revised Interactions: positive negative neutral
PSCL5_interactions 0 0 0 -nan -nan -nan
PSCL4 TOTAL     ACCESS:      14852  HIT:      14852  MISS:          0  HIT %:        100  MISS %:          0   MPKI: 0
PSCL4 LOAD TRANSLATION ACCESS:      14852  HIT:      14852  MISS:          0  HIT %:        100  MISS %:          0   MPKI: 0
PSCL4 PREFETCH  REQUESTED:          0  ISSUED:          0  USEFUL:          0  USELESS:          0
PSCL4 USEFUL LOAD PREFETCHES:          0 PREFETCH ISSUED TO LOWER LEVEL:          0  ACCURACY: -nan
PSCL4 TIMELY PREFETCHES:          0 LATE PREFETCHES: 0 DROPPED PREFETCHES: 0
PSCL4 PREFETCHES SAME FILL-ORIGIN LEVEL: 0 DIFFERENT FILL-ORIGIN LEVEL: 0

Revised Interactions: positive negative neutral
PSCL4_interactions 0 0 0 -nan -nan -nan
PSCL3 TOTAL     ACCESS:      14852  HIT:      14852  MISS:          0  HIT %:        100  MISS %:          0   MPKI: 0
PSCL3 LOAD TRANSLATION ACCESS:      14852  HIT:      14852  MISS:          0  HIT %:        100  MISS %:          0   MPKI: 0
PSCL3 PREFETCH  REQUESTED:          0  ISSUED:          0  USEFUL:          0  USELESS:          0
PSCL3 USEFUL LOAD PREFETCHES:          0 PREFETCH ISSUED TO LOWER LEVEL:          0  ACCURACY: -nan
PSCL3 TIMELY PREFETCHES:          0 LATE PREFETCHES: 0 DROPPED PREFETCHES: 0
PSCL3 PREFETCHES SAME FILL-ORIGIN LEVEL: 0 DIFFERENT FILL-ORIGIN LEVEL: 0

Revised Interactions: positive negative neutral
PSCL3_interactions 0 0 0 -nan -nan -nan
PSCL2 TOTAL     ACCESS:      14852  HIT:      14821  MISS:         31  HIT %:    99.7913  MISS %:   0.208726   MPKI: 0.00062
PSCL2 LOAD TRANSLATION ACCESS:      14852  HIT:      14821  MISS:         31  HIT %:    99.7913  MISS %:   0.208726   MPKI: 0.00062
PSCL2 PREFETCH  REQUESTED:          0  ISSUED:          0  USEFUL:          0  USELESS:          0
PSCL2 USEFUL LOAD PREFETCHES:          0 PREFETCH ISSUED TO LOWER LEVEL:          0  ACCURACY: -nan
PSCL2 TIMELY PREFETCHES:          0 LATE PREFETCHES: 0 DROPPED PREFETCHES: 0
PSCL2 PREFETCHES SAME FILL-ORIGIN LEVEL: 0 DIFFERENT FILL-ORIGIN LEVEL: 0

Revised Interactions: positive negative neutral
PSCL2_interactions 0 0 0 -nan -nan -nan
LLC TOTAL     ACCESS:    2637493  HIT:    1685458  MISS:     952035  HIT %:    63.9038  MISS %:    36.0962   MPKI: 19.0407
LLC LOAD      ACCESS:     415028  HIT:     286968  MISS:     128060  HIT %:    69.1443  MISS %:    30.8557   MPKI: 2.5612
LLC RFO       ACCESS:      24362  HIT:          0  MISS:      24362  HIT %:          0  MISS %:        100   MPKI: 0.48724
LLC PREFETCH  ACCESS:    2171888  HIT:    1374163  MISS:     797725  HIT %:    63.2704  MISS %:    36.7296   MPKI: 15.9545
LLC WRITEBACK ACCESS:      24327  HIT:      24327  MISS:          0  HIT %:        100  MISS %:          0   MPKI: 0
LLC LOAD TRANSLATION ACCESS:       1888  HIT:          0  MISS:       1888  HIT %:          0  MISS %:        100   MPKI: 0.03776
LLC PREFETCH  REQUESTED:          0  ISSUED:          0  USEFUL:     286968  USELESS:     507080
LLC USEFUL LOAD PREFETCHES:     286968 PREFETCH ISSUED TO LOWER LEVEL:     805294  ACCURACY: 35.6352
LLC TIMELY PREFETCHES:     286968 LATE PREFETCHES: 7562 DROPPED PREFETCHES: 0
LLC PREFETCHES SAME FILL-ORIGIN LEVEL: 760655 DIFFERENT FILL-ORIGIN LEVEL: 0
LLC AVERAGE MISS LATENCY: 187.598 cycles
LLC RQ	ACCESS:     441278	FORWARD:          0	MERGED:          0	TO_CACHE:     441278
LLC WQ	ACCESS:      24327	FORWARD:          0	MERGED:          0	TO_CACHE:      24327
LLC PQ	ACCESS:    2503994	FORWARD:          0	MERGED:       3674	TO_CACHE:    2500320

Revised Interactions: positive negative neutral
LLC_interactions 286675 510224 75184 32.8724 58.5064 8.6212
LLC Dense regions hint to LLC: 0

RAW hits: 257921
Loads Generated: 21490028
Loads sent to L1D: 21232107
Stores Generated: 2816716
Stores sent to L1D: 2816716
Major fault: 0 Minor fault: 28543
Allocated PAGES: 28543
 All Calls: 1950500
 Critical Calls: 1950500
------------------
Depth Distribution
------------------
depth 0: 0
depth 1: 1472399
depth 2: 1291610
depth 3: 1182623
depth 4: 834252
depth 5: 25921
depth 6: 0
depth 7: 0
depth 8: 0
depth 9: 0
depth 10: 0
depth 11: 0
depth 12: 0
depth 13: 0
depth 14: 0
depth 15: 0
depth 16: 0
depth 17: 0
depth 18: 0
depth 19: 0
depth 20: 0
depth 21: 0
depth 22: 0
depth 23: 0
depth 24: 0
depth 25: 0
depth 26: 0
depth 27: 0
depth 28: 0
depth 29: 0
Total: 4806805
-----------------------------
-----------------------------
	Captured at Filter
-----------------------------
depth 0: 0
depth 1: 13630
depth 2: 12428
depth 3: 12190
depth 4: 8984
depth 5: 406
depth 6: 0
depth 7: 0
depth 8: 0
depth 9: 0
depth 10: 0
depth 11: 0
depth 12: 0
depth 13: 0
depth 14: 0
depth 15: 0
depth 16: 0
depth 17: 0
depth 18: 0
depth 19: 0
depth 20: 0
depth 21: 0
depth 22: 0
depth 23: 0
depth 24: 0
depth 25: 0
depth 26: 0
depth 27: 0
depth 28: 0
depth 29: 0
-----------------------------
-----------------------------
		Lost at Page
-----------------------------
depth 0: 0
depth 1: 30499
depth 2: 60914
depth 3: 91331
depth 4: 89076
depth 5: 5346
depth 6: 0
depth 7: 0
depth 8: 0
depth 9: 0
depth 10: 0
depth 11: 0
depth 12: 0
depth 13: 0
depth 14: 0
depth 15: 0
depth 16: 0
depth 17: 0
depth 18: 0
depth 19: 0
depth 20: 0
depth 21: 0
depth 22: 0
depth 23: 0
depth 24: 0
depth 25: 0
depth 26: 0
depth 27: 0
depth 28: 0
depth 29: 0
-----------------------------
-----------------------------
	Lost due to PQ Size
-----------------------------
2209878
-----------------------------
ST read accesses: 960813
ST write accesses: 14428
PT read accesses: 24482626
PT write accesses: 1441067
FILTER read accesses: 5695279
FILTER write accesses: 2079663
GHR read accesses: 483461
GHR write accesses: 155312
GHR counter read accesses: 21539606
GHR counter write accesses: 2244316
ST tag read accesses: 382879806
ST tag write accesses: 11624663

DRAM Statistics
 CHANNEL 0
 RQ ROW_BUFFER_HIT:     683832  ROW_BUFFER_MISS:     268203
 DBUS_CONGESTED:        109
 WQ ROW_BUFFER_HIT:        739  ROW_BUFFER_MISS:      23592  FULL:          0

 AVG_CONGESTED_CYCLE: 3
 All warmup complete: 2
Channel 0 Bank busy for read cycles: 0
Channel 0 Bank busy for write cycles: 0
Channel 0
Rank 0
0banks busy for read cycles: 27568171
0banks busy for write cycles: 9142
1banks busy for read cycles: 8449690
1banks busy for write cycles: 557516
2banks busy for read cycles: 5534224
2banks busy for write cycles: 314046
3banks busy for read cycles: 4993378
3banks busy for write cycles: 414997
4banks busy for read cycles: 3809686
4banks busy for write cycles: 150036
5banks busy for read cycles: 2827388
5banks busy for write cycles: 102155
6banks busy for read cycles: 1244038
6banks busy for write cycles: 41790
7banks busy for read cycles: 387662
7banks busy for write cycles: 19785
8banks busy for read cycles: 46871
8banks busy for write cycles: 1064

CPU 0 Branch Prediction Accuracy: 81.2317% MPKI: 4.6848 Average ROB Occupancy at Mispredict: 65.8967
Branch types
NOT_BRANCH: 48751635 97.5033%
BRANCH_DIRECT_JUMP: 0 0%
BRANCH_INDIRECT: 0 0%
BRANCH_CONDITIONAL: 1248064 2.49613%
BRANCH_DIRECT_CALL: 0 0%
BRANCH_INDIRECT_CALL: 0 0%
BRANCH_RETURN: 0 0%
BRANCH_OTHER: 0 0%

@sumon_overall_L1D         0         0         0         0         0         0         0
@Sumon_Early_by_class_L1D         0         0         0         0
@Sumon_Late_by_class_L1D         0         0         0         0

@Sumon_Early_by_cycle_L1D         0         0         0         0         0         0         0         0         0         0         0         0
@Sumon_Late_by_cycle_L1D         0         0         0         0         0         0
@Sumon_Early_stream_L1D         0         0         0         0         0         0         0         0         0         0         0         0
@Sumon_Early_CS_L1D         0         0         0         0         0         0         0         0         0         0         0         0
@Sumon_Early_CPLX_L1D         0         0         0         0         0         0         0         0         0         0         0         0
@Sumon_Late_stream_L1D         0         0         0         0         0         0
@Sumon_Late_CS_L1D         0         0         0         0         0         0
@Sumon_Late_CPLX_L1D         0         0         0         0         0         0
@sumon_overall_L2C    405692    105059         0         0    405694   2735447   3741541
@Sumon_Early_by_class_L2C         0         0         0         0
@Sumon_Late_by_class_L2C         0         0         0         0

@Sumon_Early_by_cycle_L2C    100691     45801     51417     45911     40778     94910     26179         0         0         0         0         5
@Sumon_Late_by_cycle_L2C     56545     28509      5959      5735      8311         0
@Sumon_Early_stream_L2C         0         0         0         0         0         0         0         0         0         0         0         0
@Sumon_Early_CS_L2C         0         0         0         0         0         0         0         0         0         0         0         0
@Sumon_Early_CPLX_L2C         0         0         0         0         0         0         0         0         0         0         0         0
@Sumon_Late_stream_L2C         0         0         0         0         0         0
@Sumon_Late_CS_L2C         0         0         0         0         0         0
@Sumon_Late_CPLX_L2C         0         0         0         0         0         0
DRAM PAGES: 1048576
Allocated PAGES: 28543
