Initialize SIGNATURE TABLE
ST_SET: 1
ST_WAY: 256
ST_TAG_BIT: 16
ST_TAG_MASK: ffff

Initialize PATTERN TABLE
PT_SET: 512
PT_WAY: 4
SIG_DELTA_BIT: 7
C_SIG_BIT: 4
C_DELTA_BIT: 4

Initialize PREFETCH FILTER
FILTER_SET: 1024

*** ChampSim Multicore Out-of-Order Simulator ***

Warmup Instructions: 50000000
Simulation Instructions: 50000000
Number of CPUs: 1
LLC sets: 2048
LLC ways: 16
Off-chip DRAM Size: 4096 MB Channels: 1 Width: 64-bit Data Rate: 6400 MT/s
CPU 0 runs ../../biswa/SPEC2017Traces/603.bwaves_s-891B.champsimtrace.xz
.xz
CPU 0 Bimodal branch predictor
BTB has LRU replacement policy
ITLB has LRU replacement policy
DTLB has LRU replacement policy
STLB has LRU replacement policy
L1I has LRU replacement policy
L1D has LRU replacement policy
ST_WAYS: 256
PT_SETS: 512
L2C has LRU replacement policy
LLC has LRU replacement policy
Heartbeat CPU 0 instructions: 10000003 cycles: 2716413 heartbeat IPC: 3.68133 cumulative IPC: 3.68133 (Simulation time: 0 hr 1 min 24 sec) 
Heartbeat CPU 0 instructions: 20000003 cycles: 5432806 heartbeat IPC: 3.68135 cumulative IPC: 3.68134 (Simulation time: 0 hr 2 min 44 sec) 
Heartbeat CPU 0 instructions: 30000003 cycles: 8149195 heartbeat IPC: 3.68136 cumulative IPC: 3.68135 (Simulation time: 0 hr 4 min 10 sec) 
Heartbeat CPU 0 instructions: 40000000 cycles: 10865585 heartbeat IPC: 3.68136 cumulative IPC: 3.68135 (Simulation time: 0 hr 5 min 35 sec) 
Heartbeat CPU 0 instructions: 50000002 cycles: 13782521 heartbeat IPC: 3.42826 cumulative IPC: 3.62778 (Simulation time: 0 hr 6 min 48 sec) 

Warmup complete CPU 0 instructions: 50000002 cycles: 13782521 (Simulation time: 0 hr 6 min 48 sec) 

Heartbeat CPU 0 instructions: 60000001 cycles: 30673876 heartbeat IPC: 0.592019 cumulative IPC: 0.592019 (Simulation time: 0 hr 9 min 10 sec) 
Heartbeat CPU 0 instructions: 70000001 cycles: 47568355 heartbeat IPC: 0.591909 cumulative IPC: 0.591964 (Simulation time: 0 hr 11 min 27 sec) 
Heartbeat CPU 0 instructions: 80000000 cycles: 64460828 heartbeat IPC: 0.59198 cumulative IPC: 0.591969 (Simulation time: 0 hr 13 min 39 sec) 
Heartbeat CPU 0 instructions: 90000001 cycles: 81350315 heartbeat IPC: 0.592084 cumulative IPC: 0.591998 (Simulation time: 0 hr 15 min 51 sec) 
Heartbeat CPU 0 instructions: 100000000 cycles: 98237870 heartbeat IPC: 0.592152 cumulative IPC: 0.592029 (Simulation time: 0 hr 17 min 53 sec) 
Finished CPU 0 instructions: 50000000 cycles: 84455367 cumulative IPC: 0.592029 (Simulation time: 0 hr 17 min 53 sec) 

ChampSim completed all CPUs

Region of Interest Statistics

CPU 0 cumulative IPC: 0.592029 instructions: 50000000 cycles: 84455367
ITLB TOTAL     ACCESS:    7492615  HIT:    7492615  MISS:          0  HIT %:        100  MISS %:          0   MPKI: 0
ITLB LOAD TRANSLATION ACCESS:    7492615  HIT:    7492615  MISS:          0  HIT %:        100  MISS %:          0   MPKI: 0
ITLB PREFETCH  REQUESTED:          0  ISSUED:          0  USEFUL:          0  USELESS:          0
ITLB USEFUL LOAD PREFETCHES:          0 PREFETCH ISSUED TO LOWER LEVEL:          0  ACCURACY: -nan
ITLB TIMELY PREFETCHES:          0 LATE PREFETCHES: 0 DROPPED PREFETCHES: 0
ITLB PREFETCHES SAME FILL-ORIGIN LEVEL: 0 DIFFERENT FILL-ORIGIN LEVEL: 0
ITLB AVERAGE MISS LATENCY: -nan cycles
ITLB RQ	ACCESS:    7492880	FORWARD:          0	MERGED:        265	TO_CACHE:    7492615

Revised Interactions: positive negative neutral
ITLB_interactions 0 0 0 -nan -nan -nan
DTLB TOTAL     ACCESS:    4689807  HIT:    4677543  MISS:      12264  HIT %:    99.7385  MISS %:   0.261503   MPKI: 0.24528
DTLB LOAD TRANSLATION ACCESS:    4689807  HIT:    4677543  MISS:      12264  HIT %:    99.7385  MISS %:   0.261503   MPKI: 0.24528
DTLB PREFETCH  REQUESTED:          0  ISSUED:          0  USEFUL:          0  USELESS:          0
DTLB USEFUL LOAD PREFETCHES:          0 PREFETCH ISSUED TO LOWER LEVEL:          0  ACCURACY: -nan
DTLB TIMELY PREFETCHES:          0 LATE PREFETCHES: 0 DROPPED PREFETCHES: 0
DTLB PREFETCHES SAME FILL-ORIGIN LEVEL: 0 DIFFERENT FILL-ORIGIN LEVEL: 0
DTLB AVERAGE MISS LATENCY: 144.05 cycles
DTLB RQ	ACCESS:    5612361	FORWARD:          0	MERGED:     920537	TO_CACHE:    4691824

Revised Interactions: positive negative neutral
DTLB_interactions 0 0 0 -nan -nan -nan
STLB TOTAL     ACCESS:      12264  HIT:         88  MISS:      12176  HIT %:   0.717547  MISS %:    99.2825   MPKI: 0.24352
STLB LOAD TRANSLATION ACCESS:      12264  HIT:         88  MISS:      12176  HIT %:   0.717547  MISS %:    99.2825   MPKI: 0.24352
STLB PREFETCH  REQUESTED:          0  ISSUED:          0  USEFUL:          0  USELESS:          0
STLB USEFUL LOAD PREFETCHES:          0 PREFETCH ISSUED TO LOWER LEVEL:          0  ACCURACY: -nan
STLB TIMELY PREFETCHES:          0 LATE PREFETCHES: 0 DROPPED PREFETCHES: 0
STLB PREFETCHES SAME FILL-ORIGIN LEVEL: 0 DIFFERENT FILL-ORIGIN LEVEL: 0
STLB AVERAGE MISS LATENCY: 136.026 cycles
STLB RQ	ACCESS:      12264	FORWARD:          0	MERGED:          0	TO_CACHE:      12264

Revised Interactions: positive negative neutral
STLB_interactions 0 0 0 -nan -nan -nan
STLB Hit, L1D data hit: 0
STLB Hit, L2C data hit: 0
STLB Hit, LLC data hit: 0
STLB Hit, LLC data miss: 0
STLB STLB hints to L2: 0
L1D TOTAL     ACCESS:    5275269  HIT:    4495842  MISS:     779427  HIT %:    85.2249  MISS %:    14.7751   MPKI: 15.5885
L1D LOAD      ACCESS:    4043873  HIT:    3264446  MISS:     779427  HIT %:    80.7257  MISS %:    19.2743   MPKI: 15.5885
L1D RFO       ACCESS:    1231396  HIT:    1231396  MISS:          0  HIT %:        100  MISS %:          0   MPKI: 0
L1D PREFETCH  REQUESTED:          0  ISSUED:          0  USEFUL:          0  USELESS:          0
L1D USEFUL LOAD PREFETCHES:          0 PREFETCH ISSUED TO LOWER LEVEL:          0  ACCURACY: -nan
L1D TIMELY PREFETCHES:          0 LATE PREFETCHES: 0 DROPPED PREFETCHES: 0
L1D PREFETCHES SAME FILL-ORIGIN LEVEL: 0 DIFFERENT FILL-ORIGIN LEVEL: 0
L1D AVERAGE MISS LATENCY: 25.4105 cycles
L1D RQ	ACCESS:    7515792	FORWARD:          0	MERGED:    3134826	TO_CACHE:    4380966
L1D WQ	ACCESS:    1246801	FORWARD:          0	MERGED:      15406	TO_CACHE:    1231395

Revised Interactions: positive negative neutral
L1D_interactions 0 0 0 -nan -nan -nan
L1D UNIQUE REGIONS ACCESSED: 0
L1D REGIONS CONFLICTS: 0
L1D Cross Page Prefetch Requests: 0
L1D Same Page Prefetch Requests: 0
L1D ROI Sum of L1D PQ occupancy: 0
L1D PREFETCHES PUSHED FROM L2C: 0
L1I TOTAL     ACCESS:    7492880  HIT:    7492880  MISS:          0  HIT %:        100  MISS %:          0   MPKI: 0
L1I LOAD      ACCESS:    7492880  HIT:    7492880  MISS:          0  HIT %:        100  MISS %:          0   MPKI: 0
L1I PREFETCH  REQUESTED:          0  ISSUED:          0  USEFUL:          0  USELESS:          0
L1I USEFUL LOAD PREFETCHES:          0 PREFETCH ISSUED TO LOWER LEVEL:          0  ACCURACY: -nan
L1I TIMELY PREFETCHES:          0 LATE PREFETCHES: 0 DROPPED PREFETCHES: 0
L1I PREFETCHES SAME FILL-ORIGIN LEVEL: 0 DIFFERENT FILL-ORIGIN LEVEL: 0
L1I AVERAGE MISS LATENCY: -nan cycles
L1I RQ	ACCESS:   11221862	FORWARD:          0	MERGED:    3728982	TO_CACHE:    7492880

Revised Interactions: positive negative neutral
L1I_interactions 0 0 0 -nan -nan -nan
BTB TOTAL     ACCESS:    7492438  HIT:    7492434  MISS:          4  HIT %:    99.9999  MISS %: 5.33872e-05   MPKI: 8e-05
BTB BRANCH_DIRECT_JUMP	ACCESS:          0  HIT:          0  MISS:          0
BTB BRANCH_INDIRECT	ACCESS:          0  HIT:          0  MISS:          0
BTB BRANCH_CONDITIONAL	ACCESS:    7492438  HIT:    7492434  MISS:          4
BTB BRANCH_DIRECT_CALL	ACCESS:          0  HIT:          0  MISS:          0
BTB BRANCH_INDIRECT_CALL	ACCESS:          0  HIT:          0  MISS:          0
BTB BRANCH_RETURN	ACCESS:          0  HIT:          0  MISS:          0
BTB BRANCH_OTHER ACCESS:          0  HIT:          0  MISS:          0

L2C TOTAL     ACCESS:    1352299  HIT:     571328  MISS:     780971  HIT %:    42.2486  MISS %:    57.7514   MPKI: 15.6194
L2C LOAD      ACCESS:     779427  HIT:     560698  MISS:     218729  HIT %:    71.9372  MISS %:    28.0628   MPKI: 4.37458
L2C DATA LOAD MPKI: 4.37458
L2C INSTRUCTION LOAD MPKI: 0
L2C PREFETCH  ACCESS:     560696  HIT:          0  MISS:     560696  HIT %:          0  MISS %:        100   MPKI: 11.2139
L2C DATA PREFETCH MPKI: 11.2139
L2C INSTRUCTION PREFETCH MPKI: 0
L2C LOAD TRANSLATION ACCESS:      12176  HIT:      10630  MISS:       1546  HIT %:    87.3029  MISS %:    12.6971   MPKI: 0.03092
L2C PREFETCH  REQUESTED:    8161872  ISSUED:    8160786  USEFUL:     560696  USELESS:          0
L2C USEFUL LOAD PREFETCHES:     560696 PREFETCH ISSUED TO LOWER LEVEL:    8142691  ACCURACY: 6.88588
L2C TIMELY PREFETCHES:     560696 LATE PREFETCHES: 6801 DROPPED PREFETCHES: 0
L2C PREFETCHES SAME FILL-ORIGIN LEVEL: 567497 DIFFERENT FILL-ORIGIN LEVEL: 7575194
L2C AVERAGE MISS LATENCY: 32.7038 cycles
L2C RQ	ACCESS:     791603	FORWARD:          0	MERGED:          0	TO_CACHE:     791603
L2C PQ	ACCESS:    8160786	FORWARD:          0	MERGED:      16816	TO_CACHE:    8143970

Revised Interactions: positive negative neutral
L2C_interactions 559195 0 88 99.9843 0 0.0157344
L2C Instructions Evicting Data 0
L2C Translations Evicting Data 1546
L2C Data Evicting Data 777880
L2C Instructions Evicting Instructions 0
L2C Translations Evicting Instructions 0
L2C Data Evicting Instructions 0
L2C Instructions Evicting Translations 0
L2C Translations Evicting Translations 0
L2C Data Evicting Translations 1545
L2C Dense regions hint from L2: 0
PSCL5 TOTAL     ACCESS:      12176  HIT:      12176  MISS:          0  HIT %:        100  MISS %:          0   MPKI: 0
PSCL5 LOAD TRANSLATION ACCESS:      12176  HIT:      12176  MISS:          0  HIT %:        100  MISS %:          0   MPKI: 0
PSCL5 PREFETCH  REQUESTED:          0  ISSUED:          0  USEFUL:          0  USELESS:          0
PSCL5 USEFUL LOAD PREFETCHES:          0 PREFETCH ISSUED TO LOWER LEVEL:          0  ACCURACY: -nan
PSCL5 TIMELY PREFETCHES:          0 LATE PREFETCHES: 0 DROPPED PREFETCHES: 0
PSCL5 PREFETCHES SAME FILL-ORIGIN LEVEL: 0 DIFFERENT FILL-ORIGIN LEVEL: 0

Revised Interactions: positive negative neutral
PSCL5_interactions 0 0 0 -nan -nan -nan
PSCL4 TOTAL     ACCESS:      12176  HIT:      12176  MISS:          0  HIT %:        100  MISS %:          0   MPKI: 0
PSCL4 LOAD TRANSLATION ACCESS:      12176  HIT:      12176  MISS:          0  HIT %:        100  MISS %:          0   MPKI: 0
PSCL4 PREFETCH  REQUESTED:          0  ISSUED:          0  USEFUL:          0  USELESS:          0
PSCL4 USEFUL LOAD PREFETCHES:          0 PREFETCH ISSUED TO LOWER LEVEL:          0  ACCURACY: -nan
PSCL4 TIMELY PREFETCHES:          0 LATE PREFETCHES: 0 DROPPED PREFETCHES: 0
PSCL4 PREFETCHES SAME FILL-ORIGIN LEVEL: 0 DIFFERENT FILL-ORIGIN LEVEL: 0

Revised Interactions: positive negative neutral
PSCL4_interactions 0 0 0 -nan -nan -nan
PSCL3 TOTAL     ACCESS:      12176  HIT:      12176  MISS:          0  HIT %:        100  MISS %:          0   MPKI: 0
PSCL3 LOAD TRANSLATION ACCESS:      12176  HIT:      12176  MISS:          0  HIT %:        100  MISS %:          0   MPKI: 0
PSCL3 PREFETCH  REQUESTED:          0  ISSUED:          0  USEFUL:          0  USELESS:          0
PSCL3 USEFUL LOAD PREFETCHES:          0 PREFETCH ISSUED TO LOWER LEVEL:          0  ACCURACY: -nan
PSCL3 TIMELY PREFETCHES:          0 LATE PREFETCHES: 0 DROPPED PREFETCHES: 0
PSCL3 PREFETCHES SAME FILL-ORIGIN LEVEL: 0 DIFFERENT FILL-ORIGIN LEVEL: 0

Revised Interactions: positive negative neutral
PSCL3_interactions 0 0 0 -nan -nan -nan
PSCL2 TOTAL     ACCESS:      12176  HIT:      12152  MISS:         24  HIT %:    99.8029  MISS %:   0.197109   MPKI: 0.00048
PSCL2 LOAD TRANSLATION ACCESS:      12176  HIT:      12152  MISS:         24  HIT %:    99.8029  MISS %:   0.197109   MPKI: 0.00048
PSCL2 PREFETCH  REQUESTED:          0  ISSUED:          0  USEFUL:          0  USELESS:          0
PSCL2 USEFUL LOAD PREFETCHES:          0 PREFETCH ISSUED TO LOWER LEVEL:          0  ACCURACY: -nan
PSCL2 TIMELY PREFETCHES:          0 LATE PREFETCHES: 0 DROPPED PREFETCHES: 0
PSCL2 PREFETCHES SAME FILL-ORIGIN LEVEL: 0 DIFFERENT FILL-ORIGIN LEVEL: 0

Revised Interactions: positive negative neutral
PSCL2_interactions 0 0 0 -nan -nan -nan
LLC TOTAL     ACCESS:    8291365  HIT:    7510573  MISS:     780792  HIT %:    90.5831  MISS %:    9.41693   MPKI: 15.6158
LLC LOAD      ACCESS:     211928  HIT:     191668  MISS:      20260  HIT %:    90.4401  MISS %:    9.55985   MPKI: 0.4052
LLC PREFETCH  ACCESS:    8077891  HIT:    7318901  MISS:     758990  HIT %:    90.6041  MISS %:    9.39589   MPKI: 15.1798
LLC LOAD TRANSLATION ACCESS:       1546  HIT:          4  MISS:       1542  HIT %:   0.258732  MISS %:    99.7413   MPKI: 0.03084
LLC PREFETCH  REQUESTED:          0  ISSUED:          0  USEFUL:     191494  USELESS:     567672
LLC USEFUL LOAD PREFETCHES:     191494 PREFETCH ISSUED TO LOWER LEVEL:     760026  ACCURACY: 25.1957
LLC TIMELY PREFETCHES:     191494 LATE PREFETCHES: 1035 DROPPED PREFETCHES: 0
LLC PREFETCHES SAME FILL-ORIGIN LEVEL: 750918 DIFFERENT FILL-ORIGIN LEVEL: 0
LLC AVERAGE MISS LATENCY: 75.3198 cycles
LLC RQ	ACCESS:     213474	FORWARD:          0	MERGED:          0	TO_CACHE:     213474
LLC PQ	ACCESS:    8142691	FORWARD:          0	MERGED:          0	TO_CACHE:    8142691

Revised Interactions: positive negative neutral
LLC_interactions 191051 566198 6832 25.004 74.1018 0.894146
LLC Dense regions hint to LLC: 0

RAW hits: 0
Loads Generated: 7515793
Loads sent to L1D: 7515792
Stores Generated: 1246801
Stores sent to L1D: 1246801
Major fault: 0 Minor fault: 32181
Allocated PAGES: 32181
 All Calls: 2054203
 Critical Calls: 2054203
------------------
Depth Distribution
------------------
depth 0: 0
depth 1: 1796236
depth 2: 1724507
depth 3: 1683135
depth 4: 1647907
depth 5: 1538737
depth 6: 1210467
depth 7: 784680
depth 8: 768443
depth 9: 659204
depth 10: 644816
depth 11: 541836
depth 12: 472022
depth 13: 260585
depth 14: 86100
depth 15: 82799
depth 16: 764
depth 17: 0
depth 18: 0
depth 19: 0
depth 20: 0
depth 21: 0
depth 22: 0
depth 23: 0
depth 24: 0
depth 25: 0
depth 26: 0
depth 27: 0
depth 28: 0
depth 29: 0
Total: 13902238
-----------------------------
-----------------------------
	Captured at Filter
-----------------------------
depth 0: 0
depth 1: 13545
depth 2: 12827
depth 3: 12642
depth 4: 12419
depth 5: 12240
depth 6: 9737
depth 7: 5484
depth 8: 5188
depth 9: 4487
depth 10: 4335
depth 11: 3649
depth 12: 3202
depth 13: 1755
depth 14: 560
depth 15: 551
depth 16: 5
depth 17: 0
depth 18: 0
depth 19: 0
depth 20: 0
depth 21: 0
depth 22: 0
depth 23: 0
depth 24: 0
depth 25: 0
depth 26: 0
depth 27: 0
depth 28: 0
depth 29: 0
-----------------------------
-----------------------------
		Lost at Page
-----------------------------
depth 0: 0
depth 1: 32127
depth 2: 64184
depth 3: 96276
depth 4: 128368
depth 5: 160460
depth 6: 156373
depth 7: 100676
depth 8: 111000
depth 9: 109271
depth 10: 121273
depth 11: 114306
depth 12: 110766
depth 13: 67479
depth 14: 24239
depth 15: 25863
depth 16: 46
depth 17: 0
depth 18: 0
depth 19: 0
depth 20: 0
depth 21: 0
depth 22: 0
depth 23: 0
depth 24: 0
depth 25: 0
depth 26: 0
depth 27: 0
depth 28: 0
depth 29: 0
-----------------------------
-----------------------------
	Lost due to PQ Size
-----------------------------
1640323
-----------------------------
ST read accesses: 767251
ST write accesses: 12176
PT read accesses: 49680920
PT write accesses: 1150575
FILTER read accesses: 9777763
FILTER write accesses: 1919060
GHR read accesses: 4306663
GHR write accesses: 941840
GHR counter read accesses: 41312606
GHR counter write accesses: 1917508
ST tag read accesses: 306345695
ST tag write accesses: 3909147

DRAM Statistics
 CHANNEL 0
 RQ ROW_BUFFER_HIT:     770881  ROW_BUFFER_MISS:       9911
 DBUS_CONGESTED:          0
 WQ ROW_BUFFER_HIT:          0  ROW_BUFFER_MISS:          0  FULL:          0

 AVG_CONGESTED_CYCLE: -
 All warmup complete: 2
Channel 0 Bank busy for read cycles: 0
Channel 0 Bank busy for write cycles: 0
Channel 0
Rank 0
0banks busy for read cycles: 63039037
0banks busy for write cycles: 0
1banks busy for read cycles: 12351639
1banks busy for write cycles: 0
2banks busy for read cycles: 4322894
2banks busy for write cycles: 0
3banks busy for read cycles: 3522618
3banks busy for write cycles: 0
4banks busy for read cycles: 108142
4banks busy for write cycles: 0
5banks busy for read cycles: 139629
5banks busy for write cycles: 0
6banks busy for read cycles: 135697
6banks busy for write cycles: 0
7banks busy for read cycles: 165140
7banks busy for write cycles: 0
8banks busy for read cycles: 670572
8banks busy for write cycles: 0

CPU 0 Branch Prediction Accuracy: 85.6193% MPKI: 25.1687 Average ROB Occupancy at Mispredict: 16.9333
Branch types
NOT_BRANCH: 41249126 82.4983%
BRANCH_DIRECT_JUMP: 0 0%
BRANCH_INDIRECT: 0 0%
BRANCH_CONDITIONAL: 8750872 17.5017%
BRANCH_DIRECT_CALL: 0 0%
BRANCH_INDIRECT_CALL: 0 0%
BRANCH_RETURN: 0 0%
BRANCH_OTHER: 0 0%

@sumon_overall_L1D         0         0         0         0         0         0         0
@Sumon_Early_by_class_L1D         0         0         0         0
@Sumon_Late_by_class_L1D         0         0         0         0

@Sumon_Early_by_cycle_L1D         0         0         0         0         0         0         0         0         0         0         0         0
@Sumon_Late_by_cycle_L1D         0         0         0         0         0         0
@Sumon_Early_stream_L1D         0         0         0         0         0         0         0         0         0         0         0         0
@Sumon_Early_CS_L1D         0         0         0         0         0         0         0         0         0         0         0         0
@Sumon_Early_CPLX_L1D         0         0         0         0         0         0         0         0         0         0         0         0
@Sumon_Late_stream_L1D         0         0         0         0         0         0
@Sumon_Late_CS_L1D         0         0         0         0         0         0
@Sumon_Late_CPLX_L1D         0         0         0         0         0         0
@sumon_overall_L2C    560696      6801         0         0    560696   8160786   8161872
@Sumon_Early_by_class_L2C         0         0         0         0
@Sumon_Late_by_class_L2C         0         0         0         0

@Sumon_Early_by_cycle_L2C    550137     10546        13         0         0         0         0         0         0         0         0         0
@Sumon_Late_by_cycle_L2C        25      3358      2836       103       479         0
@Sumon_Early_stream_L2C         0         0         0         0         0         0         0         0         0         0         0         0
@Sumon_Early_CS_L2C         0         0         0         0         0         0         0         0         0         0         0         0
@Sumon_Early_CPLX_L2C         0         0         0         0         0         0         0         0         0         0         0         0
@Sumon_Late_stream_L2C         0         0         0         0         0         0
@Sumon_Late_CS_L2C         0         0         0         0         0         0
@Sumon_Late_CPLX_L2C         0         0         0         0         0         0
DRAM PAGES: 1048576
Allocated PAGES: 32181
