Initialize SIGNATURE TABLE
ST_SET: 1
ST_WAY: 256
ST_TAG_BIT: 16
ST_TAG_MASK: ffff

Initialize PATTERN TABLE
PT_SET: 512
PT_WAY: 4
SIG_DELTA_BIT: 7
C_SIG_BIT: 4
C_DELTA_BIT: 4

Initialize PREFETCH FILTER
FILTER_SET: 1024

*** ChampSim Multicore Out-of-Order Simulator ***

Warmup Instructions: 50000000
Simulation Instructions: 50000000
Number of CPUs: 1
LLC sets: 2048
LLC ways: 16
Off-chip DRAM Size: 4096 MB Channels: 1 Width: 64-bit Data Rate: 6400 MT/s
CPU 0 runs ../../biswa/SPEC2017Traces/605.mcf_s-484B.champsimtrace.xz
.xz
CPU 0 Bimodal branch predictor
BTB has LRU replacement policy
ITLB has LRU replacement policy
DTLB has LRU replacement policy
STLB has LRU replacement policy
L1I has LRU replacement policy
L1D has LRU replacement policy
ST_WAYS: 256
PT_SETS: 512
L2C has LRU replacement policy
LLC has LRU replacement policy
Heartbeat CPU 0 instructions: 10000001 cycles: 3195296 heartbeat IPC: 3.1296 cumulative IPC: 3.1296 (Simulation time: 0 hr 2 min 45 sec) 
Heartbeat CPU 0 instructions: 20000000 cycles: 6427316 heartbeat IPC: 3.09404 cumulative IPC: 3.11172 (Simulation time: 0 hr 5 min 43 sec) 
Heartbeat CPU 0 instructions: 30000001 cycles: 9616973 heartbeat IPC: 3.13513 cumulative IPC: 3.11948 (Simulation time: 0 hr 8 min 50 sec) 
Heartbeat CPU 0 instructions: 40000000 cycles: 12799825 heartbeat IPC: 3.14184 cumulative IPC: 3.12504 (Simulation time: 0 hr 11 min 50 sec) 
Heartbeat CPU 0 instructions: 50000000 cycles: 16009623 heartbeat IPC: 3.11546 cumulative IPC: 3.12312 (Simulation time: 0 hr 14 min 34 sec) 

Warmup complete CPU 0 instructions: 50000004 cycles: 16009624 (Simulation time: 0 hr 14 min 34 sec) 

Heartbeat CPU 0 instructions: 60000003 cycles: 39951136 heartbeat IPC: 0.417685 cumulative IPC: 0.417685 (Simulation time: 0 hr 18 min 23 sec) 
Heartbeat CPU 0 instructions: 70000002 cycles: 68734310 heartbeat IPC: 0.347425 cumulative IPC: 0.379329 (Simulation time: 0 hr 22 min 25 sec) 
Heartbeat CPU 0 instructions: 80000000 cycles: 97749770 heartbeat IPC: 0.344644 cumulative IPC: 0.367017 (Simulation time: 0 hr 25 min 17 sec) 
Heartbeat CPU 0 instructions: 90000000 cycles: 123559836 heartbeat IPC: 0.387446 cumulative IPC: 0.371919 (Simulation time: 0 hr 26 min 49 sec) 
Heartbeat CPU 0 instructions: 100000000 cycles: 146808944 heartbeat IPC: 0.430124 cumulative IPC: 0.382265 (Simulation time: 0 hr 27 min 34 sec) 
Finished CPU 0 instructions: 50000002 cycles: 130799338 cumulative IPC: 0.382265 (Simulation time: 0 hr 27 min 34 sec) 

ChampSim completed all CPUs

Region of Interest Statistics

CPU 0 cumulative IPC: 0.382265 instructions: 50000002 cycles: 130799338
ITLB TOTAL     ACCESS:    7772054  HIT:    7772054  MISS:          0  HIT %:        100  MISS %:          0   MPKI: 0
ITLB LOAD TRANSLATION ACCESS:    7772054  HIT:    7772054  MISS:          0  HIT %:        100  MISS %:          0   MPKI: 0
ITLB PREFETCH  REQUESTED:          0  ISSUED:          0  USEFUL:          0  USELESS:          0
ITLB USEFUL LOAD PREFETCHES:          0 PREFETCH ISSUED TO LOWER LEVEL:          0  ACCURACY: -nan
ITLB TIMELY PREFETCHES:          0 LATE PREFETCHES: 0 DROPPED PREFETCHES: 0
ITLB PREFETCHES SAME FILL-ORIGIN LEVEL: 0 DIFFERENT FILL-ORIGIN LEVEL: 0
ITLB AVERAGE MISS LATENCY: -nan cycles
ITLB RQ	ACCESS:   10509476	FORWARD:          0	MERGED:    2737423	TO_CACHE:    7772053

Revised Interactions: positive negative neutral
ITLB_interactions 0 0 0 -nan -nan -nan
DTLB TOTAL     ACCESS:   13456141  HIT:   13333283  MISS:     122858  HIT %:     99.087  MISS %:   0.913026   MPKI: 2.45716
DTLB LOAD TRANSLATION ACCESS:   13456141  HIT:   13333283  MISS:     122858  HIT %:     99.087  MISS %:   0.913026   MPKI: 2.45716
DTLB PREFETCH  REQUESTED:          0  ISSUED:          0  USEFUL:          0  USELESS:          0
DTLB USEFUL LOAD PREFETCHES:          0 PREFETCH ISSUED TO LOWER LEVEL:          0  ACCURACY: -nan
DTLB TIMELY PREFETCHES:          0 LATE PREFETCHES: 0 DROPPED PREFETCHES: 0
DTLB PREFETCHES SAME FILL-ORIGIN LEVEL: 0 DIFFERENT FILL-ORIGIN LEVEL: 0
DTLB AVERAGE MISS LATENCY: 38.5805 cycles
DTLB RQ	ACCESS:   23429312	FORWARD:          0	MERGED:    9959143	TO_CACHE:   13470169

Revised Interactions: positive negative neutral
DTLB_interactions 0 0 0 -nan -nan -nan
STLB TOTAL     ACCESS:     122858  HIT:      79526  MISS:      43332  HIT %:      64.73  MISS %:      35.27   MPKI: 0.86664
STLB LOAD TRANSLATION ACCESS:     122858  HIT:      79526  MISS:      43332  HIT %:      64.73  MISS %:      35.27   MPKI: 0.86664
STLB PREFETCH  REQUESTED:          0  ISSUED:          0  USEFUL:          0  USELESS:          0
STLB USEFUL LOAD PREFETCHES:          0 PREFETCH ISSUED TO LOWER LEVEL:          0  ACCURACY: -nan
STLB TIMELY PREFETCHES:          0 LATE PREFETCHES: 0 DROPPED PREFETCHES: 0
STLB PREFETCHES SAME FILL-ORIGIN LEVEL: 0 DIFFERENT FILL-ORIGIN LEVEL: 0
STLB AVERAGE MISS LATENCY: 83.8399 cycles
STLB RQ	ACCESS:     122858	FORWARD:          0	MERGED:          0	TO_CACHE:     122858

Revised Interactions: positive negative neutral
STLB_interactions 0 0 0 -nan -nan -nan
STLB Hit, L1D data hit: 0
STLB Hit, L2C data hit: 0
STLB Hit, LLC data hit: 0
STLB Hit, LLC data miss: 0
STLB STLB hints to L2: 0
L1D TOTAL     ACCESS:   22885751  HIT:   21370007  MISS:    1515744  HIT %:    93.3769  MISS %:    6.62309   MPKI: 30.3149
L1D LOAD      ACCESS:    9258527  HIT:    7880132  MISS:    1378395  HIT %:    85.1122  MISS %:    14.8878   MPKI: 27.5679
L1D RFO       ACCESS:   13627224  HIT:   13489875  MISS:     137349  HIT %:    98.9921  MISS %:     1.0079   MPKI: 2.74698
L1D PREFETCH  REQUESTED:          0  ISSUED:          0  USEFUL:          0  USELESS:          0
L1D USEFUL LOAD PREFETCHES:          0 PREFETCH ISSUED TO LOWER LEVEL:          0  ACCURACY: -nan
L1D TIMELY PREFETCHES:          0 LATE PREFETCHES: 0 DROPPED PREFETCHES: 0
L1D PREFETCHES SAME FILL-ORIGIN LEVEL: 0 DIFFERENT FILL-ORIGIN LEVEL: 0
L1D AVERAGE MISS LATENCY: 114.161 cycles
L1D RQ	ACCESS:   15838234	FORWARD:          0	MERGED:    6468990	TO_CACHE:    9362955
L1D WQ	ACCESS:   14166007	FORWARD:       6289	MERGED:      99650	TO_CACHE:   14066357

Revised Interactions: positive negative neutral
L1D_interactions 0 0 0 -nan -nan -nan
L1D UNIQUE REGIONS ACCESSED: 0
L1D REGIONS CONFLICTS: 0
L1D Cross Page Prefetch Requests: 0
L1D Same Page Prefetch Requests: 0
L1D ROI Sum of L1D PQ occupancy: 0
L1D PREFETCHES PUSHED FROM L2C: 0
L1I TOTAL     ACCESS:   10509477  HIT:   10509477  MISS:          0  HIT %:        100  MISS %:          0   MPKI: 0
L1I LOAD      ACCESS:   10509477  HIT:   10509477  MISS:          0  HIT %:        100  MISS %:          0   MPKI: 0
L1I PREFETCH  REQUESTED:          0  ISSUED:          0  USEFUL:          0  USELESS:          0
L1I USEFUL LOAD PREFETCHES:          0 PREFETCH ISSUED TO LOWER LEVEL:          0  ACCURACY: -nan
L1I TIMELY PREFETCHES:          0 LATE PREFETCHES: 0 DROPPED PREFETCHES: 0
L1I PREFETCHES SAME FILL-ORIGIN LEVEL: 0 DIFFERENT FILL-ORIGIN LEVEL: 0
L1I AVERAGE MISS LATENCY: -nan cycles
L1I RQ	ACCESS:   13973298	FORWARD:          0	MERGED:    3463822	TO_CACHE:   10509476

Revised Interactions: positive negative neutral
L1I_interactions 0 0 0 -nan -nan -nan
BTB TOTAL     ACCESS:    4939325  HIT:    4939291  MISS:         34  HIT %:    99.9993  MISS %: 0.000688353   MPKI: 0.00068
BTB BRANCH_DIRECT_JUMP	ACCESS:     263981  HIT:     263975  MISS:          6
BTB BRANCH_INDIRECT	ACCESS:          0  HIT:          0  MISS:          0
BTB BRANCH_CONDITIONAL	ACCESS:    4675292  HIT:    4675268  MISS:         24
BTB BRANCH_DIRECT_CALL	ACCESS:         26  HIT:         24  MISS:          2
BTB BRANCH_INDIRECT_CALL	ACCESS:          0  HIT:          0  MISS:          0
BTB BRANCH_RETURN	ACCESS:         26  HIT:         24  MISS:          2
BTB BRANCH_OTHER ACCESS:          0  HIT:          0  MISS:          0

L2C TOTAL     ACCESS:    2186606  HIT:     685609  MISS:    1500997  HIT %:    31.3549  MISS %:    68.6451   MPKI: 30.0199
L2C LOAD      ACCESS:    1378391  HIT:     195254  MISS:    1183137  HIT %:    14.1654  MISS %:    85.8346   MPKI: 23.6627
L2C DATA LOAD MPKI: 23.6627
L2C INSTRUCTION LOAD MPKI: 0
L2C RFO       ACCESS:     137348  HIT:        971  MISS:     136377  HIT %:   0.706963  MISS %:     99.293   MPKI: 2.72754
L2C PREFETCH  ACCESS:     275094  HIT:     100571  MISS:     174523  HIT %:    36.5588  MISS %:    63.4412   MPKI: 3.49046
L2C DATA PREFETCH MPKI: 3.49046
L2C INSTRUCTION PREFETCH MPKI: 0
L2C WRITEBACK ACCESS:     352353  HIT:     351669  MISS:        684  HIT %:    99.8059  MISS %:   0.194124   MPKI: 0.01368
L2C LOAD TRANSLATION ACCESS:      43420  HIT:      37144  MISS:       6276  HIT %:    85.5458  MISS %:    14.4542   MPKI: 0.12552
L2C PREFETCH  REQUESTED:    3168673  ISSUED:    3167871  USEFUL:     170746  USELESS:       3787
L2C USEFUL LOAD PREFETCHES:     170746 PREFETCH ISSUED TO LOWER LEVEL:    2875310  ACCURACY: 5.93835
L2C TIMELY PREFETCHES:     170746 LATE PREFETCHES: 7908 DROPPED PREFETCHES: 0
L2C PREFETCHES SAME FILL-ORIGIN LEVEL: 182431 DIFFERENT FILL-ORIGIN LEVEL: 2692879
L2C AVERAGE MISS LATENCY: 105.839 cycles
L2C RQ	ACCESS:    1559165	FORWARD:          0	MERGED:          0	TO_CACHE:    1559160
L2C WQ	ACCESS:     352353	FORWARD:          9	MERGED:          0	TO_CACHE:     352353
L2C PQ	ACCESS:    3167871	FORWARD:          0	MERGED:     103714	TO_CACHE:    3064153

Revised Interactions: positive negative neutral
L2C_interactions 170171 3800 3434 95.9223 2.14199 1.93568
L2C Instructions Evicting Data 0
L2C Translations Evicting Data 6249
L2C Data Evicting Data 1487784
L2C Instructions Evicting Instructions 0
L2C Translations Evicting Instructions 0
L2C Data Evicting Instructions 0
L2C Instructions Evicting Translations 0
L2C Translations Evicting Translations 27
L2C Data Evicting Translations 6253
L2C Dense regions hint from L2: 0
PSCL5 TOTAL     ACCESS:      43332  HIT:      43332  MISS:          0  HIT %:        100  MISS %:          0   MPKI: 0
PSCL5 LOAD TRANSLATION ACCESS:      43332  HIT:      43332  MISS:          0  HIT %:        100  MISS %:          0   MPKI: 0
PSCL5 PREFETCH  REQUESTED:          0  ISSUED:          0  USEFUL:          0  USELESS:          0
PSCL5 USEFUL LOAD PREFETCHES:          0 PREFETCH ISSUED TO LOWER LEVEL:          0  ACCURACY: -nan
PSCL5 TIMELY PREFETCHES:          0 LATE PREFETCHES: 0 DROPPED PREFETCHES: 0
PSCL5 PREFETCHES SAME FILL-ORIGIN LEVEL: 0 DIFFERENT FILL-ORIGIN LEVEL: 0

Revised Interactions: positive negative neutral
PSCL5_interactions 0 0 0 -nan -nan -nan
PSCL4 TOTAL     ACCESS:      43332  HIT:      43332  MISS:          0  HIT %:        100  MISS %:          0   MPKI: 0
PSCL4 LOAD TRANSLATION ACCESS:      43332  HIT:      43332  MISS:          0  HIT %:        100  MISS %:          0   MPKI: 0
PSCL4 PREFETCH  REQUESTED:          0  ISSUED:          0  USEFUL:          0  USELESS:          0
PSCL4 USEFUL LOAD PREFETCHES:          0 PREFETCH ISSUED TO LOWER LEVEL:          0  ACCURACY: -nan
PSCL4 TIMELY PREFETCHES:          0 LATE PREFETCHES: 0 DROPPED PREFETCHES: 0
PSCL4 PREFETCHES SAME FILL-ORIGIN LEVEL: 0 DIFFERENT FILL-ORIGIN LEVEL: 0

Revised Interactions: positive negative neutral
PSCL4_interactions 0 0 0 -nan -nan -nan
PSCL3 TOTAL     ACCESS:      43332  HIT:      43332  MISS:          0  HIT %:        100  MISS %:          0   MPKI: 0
PSCL3 LOAD TRANSLATION ACCESS:      43332  HIT:      43332  MISS:          0  HIT %:        100  MISS %:          0   MPKI: 0
PSCL3 PREFETCH  REQUESTED:          0  ISSUED:          0  USEFUL:          0  USELESS:          0
PSCL3 USEFUL LOAD PREFETCHES:          0 PREFETCH ISSUED TO LOWER LEVEL:          0  ACCURACY: -nan
PSCL3 TIMELY PREFETCHES:          0 LATE PREFETCHES: 0 DROPPED PREFETCHES: 0
PSCL3 PREFETCHES SAME FILL-ORIGIN LEVEL: 0 DIFFERENT FILL-ORIGIN LEVEL: 0

Revised Interactions: positive negative neutral
PSCL3_interactions 0 0 0 -nan -nan -nan
PSCL2 TOTAL     ACCESS:      43332  HIT:      43209  MISS:        123  HIT %:    99.7161  MISS %:   0.283855   MPKI: 0.00246
PSCL2 LOAD TRANSLATION ACCESS:      43332  HIT:      43209  MISS:        123  HIT %:    99.7161  MISS %:   0.283855   MPKI: 0.00246
PSCL2 PREFETCH  REQUESTED:          0  ISSUED:          0  USEFUL:          0  USELESS:          0
PSCL2 USEFUL LOAD PREFETCHES:          0 PREFETCH ISSUED TO LOWER LEVEL:          0  ACCURACY: -nan
PSCL2 TIMELY PREFETCHES:          0 LATE PREFETCHES: 0 DROPPED PREFETCHES: 0
PSCL2 PREFETCHES SAME FILL-ORIGIN LEVEL: 0 DIFFERENT FILL-ORIGIN LEVEL: 0

Revised Interactions: positive negative neutral
PSCL2_interactions 0 0 0 -nan -nan -nan
LLC TOTAL     ACCESS:    4013984  HIT:    2317533  MISS:    1696451  HIT %:    57.7365  MISS %:    42.2635   MPKI: 33.929
LLC LOAD      ACCESS:    1175240  HIT:     514172  MISS:     661068  HIT %:    43.7504  MISS %:    56.2496   MPKI: 13.2214
LLC RFO       ACCESS:     136366  HIT:       7633  MISS:     128733  HIT %:    5.59744  MISS %:    94.4026   MPKI: 2.57466
LLC PREFETCH  ACCESS:    2362817  HIT:    1462865  MISS:     899952  HIT %:    61.9119  MISS %:    38.0881   MPKI: 17.999
LLC WRITEBACK ACCESS:     333285  HIT:     332649  MISS:        636  HIT %:    99.8092  MISS %:   0.190828   MPKI: 0.01272
LLC LOAD TRANSLATION ACCESS:       6276  HIT:        214  MISS:       6062  HIT %:    3.40982  MISS %:    96.5902   MPKI: 0.12124
LLC PREFETCH  REQUESTED:          0  ISSUED:          0  USEFUL:     520257  USELESS:     376741
LLC USEFUL LOAD PREFETCHES:     520257 PREFETCH ISSUED TO LOWER LEVEL:    1135629  ACCURACY: 45.8122
LLC TIMELY PREFETCHES:     520257 LATE PREFETCHES: 235677 DROPPED PREFETCHES: 0
LLC PREFETCHES SAME FILL-ORIGIN LEVEL: 1119695 DIFFERENT FILL-ORIGIN LEVEL: 0
LLC AVERAGE MISS LATENCY: 149.878 cycles
LLC RQ	ACCESS:    1317883	FORWARD:          0	MERGED:          0	TO_CACHE:    1317883
LLC WQ	ACCESS:     333285	FORWARD:          0	MERGED:          0	TO_CACHE:     333285
LLC PQ	ACCESS:    2875310	FORWARD:          0	MERGED:      30603	TO_CACHE:    2844707

Revised Interactions: positive negative neutral
LLC_interactions 517957 380562 174478 48.272 35.4672 16.2608
LLC Dense regions hint to LLC: 0

RAW hits: 377279
Loads Generated: 16215513
Loads sent to L1D: 15838234
Stores Generated: 14166002
Stores sent to L1D: 14166007
Major fault: 0 Minor fault: 31203
Allocated PAGES: 31203
 All Calls: 2436219
 Critical Calls: 2436219
------------------
Depth Distribution
------------------
depth 0: 0
depth 1: 2277079
depth 2: 1256975
depth 3: 792910
depth 4: 502047
depth 5: 295071
depth 6: 210920
depth 7: 140850
depth 8: 81117
depth 9: 33816
depth 10: 2885
depth 11: 242
depth 12: 3
depth 13: 0
depth 14: 0
depth 15: 0
depth 16: 0
depth 17: 0
depth 18: 0
depth 19: 0
depth 20: 0
depth 21: 0
depth 22: 0
depth 23: 0
depth 24: 0
depth 25: 0
depth 26: 0
depth 27: 0
depth 28: 0
depth 29: 0
Total: 5593915
-----------------------------
-----------------------------
	Captured at Filter
-----------------------------
depth 0: 0
depth 1: 16275
depth 2: 6684
depth 3: 3474
depth 4: 1879
depth 5: 1000
depth 6: 633
depth 7: 396
depth 8: 212
depth 9: 73
depth 10: 15
depth 11: 3
depth 12: 0
depth 13: 0
depth 14: 0
depth 15: 0
depth 16: 0
depth 17: 0
depth 18: 0
depth 19: 0
depth 20: 0
depth 21: 0
depth 22: 0
depth 23: 0
depth 24: 0
depth 25: 0
depth 26: 0
depth 27: 0
depth 28: 0
depth 29: 0
-----------------------------
-----------------------------
		Lost at Page
-----------------------------
depth 0: 0
depth 1: 102681
depth 2: 75081
depth 3: 63017
depth 4: 51680
depth 5: 32407
depth 6: 25649
depth 7: 18940
depth 8: 11473
depth 9: 5172
depth 10: 510
depth 11: 54
depth 12: 2
depth 13: 0
depth 14: 0
depth 15: 0
depth 16: 0
depth 17: 0
depth 18: 0
depth 19: 0
depth 20: 0
depth 21: 0
depth 22: 0
depth 23: 0
depth 24: 0
depth 25: 0
depth 26: 0
depth 27: 0
depth 28: 0
depth 29: 0
-----------------------------
-----------------------------
	Lost due to PQ Size
-----------------------------
361538
-----------------------------
ST read accesses: 1336293
ST write accesses: 42098
PT read accesses: 25918392
PT write accesses: 1983519
FILTER read accesses: 6061394
FILTER write accesses: 1884809
GHR read accesses: 1440577
GHR write accesses: 204932
GHR counter read accesses: 21204838
GHR counter write accesses: 1752413
ST tag read accesses: 551355101
ST tag write accesses: 15382377

DRAM Statistics
 CHANNEL 0
 RQ ROW_BUFFER_HIT:     776262  ROW_BUFFER_MISS:     919550
 DBUS_CONGESTED:       2249
 WQ ROW_BUFFER_HIT:      73811  ROW_BUFFER_MISS:     259172  FULL:          0

 AVG_CONGESTED_CYCLE: 4
 All warmup complete: 2
Channel 0 Bank busy for read cycles: 0
Channel 0 Bank busy for write cycles: 0
Channel 0
Rank 0
0banks busy for read cycles: 41224490
0banks busy for write cycles: 45843
1banks busy for read cycles: 24624481
1banks busy for write cycles: 5620758
2banks busy for read cycles: 16127825
2banks busy for write cycles: 3824859
3banks busy for read cycles: 10714261
3banks busy for write cycles: 2795756
4banks busy for read cycles: 7051631
4banks busy for write cycles: 1973353
5banks busy for read cycles: 4656542
5banks busy for write cycles: 1352531
6banks busy for read cycles: 2921916
6banks busy for write cycles: 886241
7banks busy for read cycles: 1724707
7banks busy for write cycles: 847534
8banks busy for read cycles: 902033
8banks busy for write cycles: 3504578

CPU 0 Branch Prediction Accuracy: 98.167% MPKI: 1.85038 Average ROB Occupancy at Mispredict: 198.328
Branch types
NOT_BRANCH: 44952441 89.9049%
BRANCH_DIRECT_JUMP: 263981 0.527962%
BRANCH_INDIRECT: 0 0%
BRANCH_CONDITIONAL: 4783416 9.56683%
BRANCH_DIRECT_CALL: 26 5.2e-05%
BRANCH_INDIRECT_CALL: 0 0%
BRANCH_RETURN: 26 5.2e-05%
BRANCH_OTHER: 0 0%

@sumon_overall_L1D         0         0         0         0         0         0         0
@Sumon_Early_by_class_L1D         0         0         0         0
@Sumon_Late_by_class_L1D         0         0         0         0

@Sumon_Early_by_cycle_L1D         0         0         0         0         0         0         0         0         0         0         0         0
@Sumon_Late_by_cycle_L1D         0         0         0         0         0         0
@Sumon_Early_stream_L1D         0         0         0         0         0         0         0         0         0         0         0         0
@Sumon_Early_CS_L1D         0         0         0         0         0         0         0         0         0         0         0         0
@Sumon_Early_CPLX_L1D         0         0         0         0         0         0         0         0         0         0         0         0
@Sumon_Late_stream_L1D         0         0         0         0         0         0
@Sumon_Late_CS_L1D         0         0         0         0         0         0
@Sumon_Late_CPLX_L1D         0         0         0         0         0         0
@sumon_overall_L2C    170746      7908         0      3787    174523   3167871   3168673
@Sumon_Early_by_class_L2C         0         0         0         0
@Sumon_Late_by_class_L2C         0         0         0         0

@Sumon_Early_by_cycle_L2C     74578     23863     21305      7935      2173     25267     13009      1738       486       262        80        50
@Sumon_Late_by_cycle_L2C      1127      1147      1038      1689      2901         6
@Sumon_Early_stream_L2C         0         0         0         0         0         0         0         0         0         0         0         0
@Sumon_Early_CS_L2C         0         0         0         0         0         0         0         0         0         0         0         0
@Sumon_Early_CPLX_L2C         0         0         0         0         0         0         0         0         0         0         0         0
@Sumon_Late_stream_L2C         0         0         0         0         0         0
@Sumon_Late_CS_L2C         0         0         0         0         0         0
@Sumon_Late_CPLX_L2C         0         0         0         0         0         0
DRAM PAGES: 1048576
Allocated PAGES: 31203
