
*** ChampSim Multicore Out-of-Order Simulator ***

Warmup Instructions: 10000000
Simulation Instructions: 50000000
Number of CPUs: 1
LLC sets: 2048
LLC ways: 16
Off-chip DRAM Size: 4096 MB Channels: 1 Width: 64-bit Data Rate: 1600 MT/s
CPU 0 runs traces/SPEC2017/603.bwaves_s-1740B.champsimtrace.xz
.xz
CPU 0 Bimodal branch predictor
BTB has LRU replacement policy
ITLB has LRU replacement policy
DTLB has LRU replacement policy
STLB has LRU replacement policy
L1I has LRU replacement policy
IP Table Entries: 256
L1D has LRU replacement policy
IP_Table L2 entries: 256
L2C has LRU replacement policy
LLC has LRU replacement policy
Heartbeat CPU 0 instructions: 10000000 cycles: 3310419 heartbeat IPC: 3.02077 cumulative IPC: 3.02077 (Simulation time: 0 hr 14 min 37 sec) 

Warmup complete CPU 0 instructions: 10000003 cycles: 3310420 (Simulation time: 0 hr 14 min 37 sec) 

Heartbeat CPU 0 instructions: 20000000 cycles: 13795816 heartbeat IPC: 0.953707 cumulative IPC: 0.953707 (Simulation time: 0 hr 23 min 47 sec) 
Heartbeat CPU 0 instructions: 30000000 cycles: 24277917 heartbeat IPC: 0.954007 cumulative IPC: 0.953857 (Simulation time: 0 hr 32 min 54 sec) 
Heartbeat CPU 0 instructions: 40000000 cycles: 34756664 heartbeat IPC: 0.954313 cumulative IPC: 0.954009 (Simulation time: 0 hr 42 min 6 sec) 
Heartbeat CPU 0 instructions: 50000000 cycles: 45237281 heartbeat IPC: 0.954142 cumulative IPC: 0.954042 (Simulation time: 0 hr 50 min 59 sec) 
Heartbeat CPU 0 instructions: 60000000 cycles: 55715709 heartbeat IPC: 0.954342 cumulative IPC: 0.954102 (Simulation time: 0 hr 58 min 46 sec) 
Finished CPU 0 instructions: 50000000 cycles: 52405293 cumulative IPC: 0.954102 (Simulation time: 0 hr 58 min 46 sec) 

ChampSim completed all CPUs

Region of Interest Statistics

CPU 0 cumulative IPC: 0.954102 instructions: 50000000 cycles: 52405293
ITLB TOTAL     ACCESS:    6356564  HIT:    6356564  MISS:          0  HIT %:        100  MISS %:          0   MPKI: 0
ITLB LOAD TRANSLATION ACCESS:    6356564  HIT:    6356564  MISS:          0  HIT %:        100  MISS %:          0   MPKI: 0
ITLB PREFETCH  REQUESTED:          0  ISSUED:          0  USEFUL:          0  USELESS:          0
ITLB USEFUL LOAD PREFETCHES:          0 PREFETCH ISSUED TO LOWER LEVEL:          0  ACCURACY: -nan
ITLB TIMELY PREFETCHES:          0 LATE PREFETCHES: 0 DROPPED PREFETCHES: 0
ITLB PREFETCHES SAME FILL-ORIGIN LEVEL: 0 DIFFERENT FILL-ORIGIN LEVEL: 0
ITLB AVERAGE MISS LATENCY: -nan cycles
ITLB RQ	ACCESS:    8463158	FORWARD:          0	MERGED:    2106595	TO_CACHE:    6356563

DTLB TOTAL     ACCESS:   17184403  HIT:   17076483  MISS:     107920  HIT %:     99.372  MISS %:   0.628011   MPKI: 2.1584
DTLB LOAD TRANSLATION ACCESS:   17184403  HIT:   17076483  MISS:     107920  HIT %:     99.372  MISS %:   0.628011   MPKI: 2.1584
DTLB PREFETCH  REQUESTED:          0  ISSUED:          0  USEFUL:          0  USELESS:          0
DTLB USEFUL LOAD PREFETCHES:          0 PREFETCH ISSUED TO LOWER LEVEL:          0  ACCURACY: -nan
DTLB TIMELY PREFETCHES:          0 LATE PREFETCHES: 0 DROPPED PREFETCHES: 0
DTLB PREFETCHES SAME FILL-ORIGIN LEVEL: 0 DIFFERENT FILL-ORIGIN LEVEL: 0
DTLB AVERAGE MISS LATENCY: 78.8978 cycles
DTLB RQ	ACCESS:   19649416	FORWARD:          0	MERGED:    2452772	TO_CACHE:   17196644

STLB TOTAL     ACCESS:    3813728  HIT:    3798886  MISS:      14842  HIT %:    99.6108  MISS %:   0.389173   MPKI: 0.29684
STLB LOAD TRANSLATION ACCESS:     107920  HIT:      93078  MISS:      14842  HIT %:    86.2472  MISS %:    13.7528   MPKI: 0.29684
STLB TRANSLATION FROM L1D PREFETCHER ACCESS:    3705808  HIT:    3705808  MISS:          0  HIT %:        100  MISS %:          0   MPKI: 0
STLB PREFETCH  REQUESTED:          0  ISSUED:          0  USEFUL:          0  USELESS:          0
STLB USEFUL LOAD PREFETCHES:          0 PREFETCH ISSUED TO LOWER LEVEL:          0  ACCURACY: -nan
STLB TIMELY PREFETCHES:          0 LATE PREFETCHES: 0 DROPPED PREFETCHES: 0
STLB PREFETCHES SAME FILL-ORIGIN LEVEL: 0 DIFFERENT FILL-ORIGIN LEVEL: 0
STLB AVERAGE MISS LATENCY: 481.256 cycles
STLB RQ	ACCESS:   17457511	FORWARD:          0	MERGED:   13643784	TO_CACHE:    3813727

STLB Hit, L1D data hit: 0
STLB Hit, L2C data hit: 0
STLB Hit, LLC data hit: 0
STLB Hit, LLC data miss: 0
STLB STLB hints to L2: 0
L1D TOTAL     ACCESS:   36955774  HIT:   35951940  MISS:    1003834  HIT %:    97.2837  MISS %:    2.71631   MPKI: 20.0767
L1D LOAD      ACCESS:   16829813  HIT:   16779680  MISS:      50133  HIT %:    99.7021  MISS %:   0.297882   MPKI: 1.00266
L1D RFO       ACCESS:    2805048  HIT:    2780686  MISS:      24362  HIT %:    99.1315  MISS %:   0.868506   MPKI: 0.48724
L1D PREFETCH  ACCESS:   17320913  HIT:   16391574  MISS:     929339  HIT %:    94.6346  MISS %:    5.36542   MPKI: 18.5868
L1D PREFETCH  REQUESTED:   49417451  ISSUED:   34730205  USEFUL:     925085  USELESS:       4267
L1D USEFUL LOAD PREFETCHES:     925085 PREFETCH ISSUED TO LOWER LEVEL:     974738  ACCURACY: 94.906
L1D TIMELY PREFETCHES:     925085 LATE PREFETCHES: 2048 DROPPED PREFETCHES: 0
L1D PREFETCHES SAME FILL-ORIGIN LEVEL: 974738 DIFFERENT FILL-ORIGIN LEVEL: 0
L1D AVERAGE MISS LATENCY: 60888.2 cycles
L1D RQ	ACCESS:   21266591	FORWARD:          0	MERGED:    4366521	TO_CACHE:   16832779
L1D WQ	ACCESS:    2816683	FORWARD:      67291	MERGED:         46	TO_CACHE:    2816637
L1D PQ	ACCESS:   17380614	FORWARD:          0	MERGED:      31023	TO_CACHE:   17349591

L1D UNIQUE REGIONS ACCESSED: 0
L1D REGIONS CONFLICTS: 0
L1D Cross Page Prefetch Requests: 0
L1D Same Page Prefetch Requests: 20136890
L1D ROI Sum of L1D PQ occupancy: 264607807
L1D PREFETCHES PUSHED FROM L2C: 0
L1I TOTAL     ACCESS:    8463158  HIT:    8463158  MISS:          0  HIT %:        100  MISS %:          0   MPKI: 0
L1I LOAD      ACCESS:    8463158  HIT:    8463158  MISS:          0  HIT %:        100  MISS %:          0   MPKI: 0
L1I PREFETCH  REQUESTED:          0  ISSUED:          0  USEFUL:          0  USELESS:          0
L1I USEFUL LOAD PREFETCHES:          0 PREFETCH ISSUED TO LOWER LEVEL:          0  ACCURACY: -nan
L1I TIMELY PREFETCHES:          0 LATE PREFETCHES: 0 DROPPED PREFETCHES: 0
L1I PREFETCHES SAME FILL-ORIGIN LEVEL: 0 DIFFERENT FILL-ORIGIN LEVEL: 0
L1I AVERAGE MISS LATENCY: -nan cycles
L1I RQ	ACCESS:   11737552	FORWARD:          0	MERGED:    3274394	TO_CACHE:    8463158

BTB TOTAL     ACCESS:    1208720  HIT:    1208715  MISS:          5  HIT %:    99.9996  MISS %: 0.000413661   MPKI: 0.0001
BTB BRANCH_DIRECT_JUMP	ACCESS:          0  HIT:          0  MISS:          0
BTB BRANCH_INDIRECT	ACCESS:          0  HIT:          0  MISS:          0
BTB BRANCH_CONDITIONAL	ACCESS:    1208720  HIT:    1208715  MISS:          5
BTB BRANCH_DIRECT_CALL	ACCESS:          0  HIT:          0  MISS:          0
BTB BRANCH_INDIRECT_CALL	ACCESS:          0  HIT:          0  MISS:          0
BTB BRANCH_RETURN	ACCESS:          0  HIT:          0  MISS:          0
BTB BRANCH_OTHER ACCESS:          0  HIT:          0  MISS:          0

L2C TOTAL     ACCESS:    4017324  HIT:    3065363  MISS:     951961  HIT %:    76.3036  MISS %:    23.6964   MPKI: 19.0392
L2C LOAD      ACCESS:      48085  HIT:      27849  MISS:      20236  HIT %:    57.9162  MISS %:    42.0838   MPKI: 0.40472
L2C DATA LOAD MPKI: 0.40472
L2C INSTRUCTION LOAD MPKI: 0
L2C RFO       ACCESS:      24362  HIT:          0  MISS:      24362  HIT %:          0  MISS %:        100   MPKI: 0.48724
L2C PREFETCH  ACCESS:    3905299  HIT:    2999817  MISS:     905482  HIT %:     76.814  MISS %:     23.186   MPKI: 18.1096
L2C DATA PREFETCH MPKI: 18.1096
L2C INSTRUCTION PREFETCH MPKI: 0
L2C WRITEBACK ACCESS:      24735  HIT:      24735  MISS:          0  HIT %:        100  MISS %:          0   MPKI: 0
L2C LOAD TRANSLATION ACCESS:      14843  HIT:      12962  MISS:       1881  HIT %:    87.3274  MISS %:    12.6726   MPKI: 0.03762
L2C PREFETCH  REQUESTED:    4893999  ISSUED:    4528704  USEFUL:      26367  USELESS:     879304
L2C USEFUL LOAD PREFETCHES:      26367 PREFETCH ISSUED TO LOWER LEVEL:     906529  ACCURACY: 2.90857
L2C TIMELY PREFETCHES:      26367 LATE PREFETCHES: 1049 DROPPED PREFETCHES: 0
L2C PREFETCHES SAME FILL-ORIGIN LEVEL: 830303 DIFFERENT FILL-ORIGIN LEVEL: 0
L2C AVERAGE MISS LATENCY: 213.839 cycles
L2C RQ	ACCESS:      87291	FORWARD:          0	MERGED:          0	TO_CACHE:      87291
L2C WQ	ACCESS:      24735	FORWARD:          0	MERGED:          0	TO_CACHE:      24735
L2C PQ	ACCESS:    5460091	FORWARD:          0	MERGED:    1336958	TO_CACHE:    4123133

L2C Instructions Evicting Data 0
L2C Translations Evicting Data 1881
L2C Data Evicting Data 948197
L2C Instructions Evicting Instructions 0
L2C Translations Evicting Instructions 0
L2C Data Evicting Instructions 0
L2C Instructions Evicting Translations 0
L2C Translations Evicting Translations 0
L2C Data Evicting Translations 1883
L2C Dense regions hint from L2: 0
PSCL5 TOTAL     ACCESS:      14842  HIT:      14842  MISS:          0  HIT %:        100  MISS %:          0   MPKI: 0
PSCL5 LOAD TRANSLATION ACCESS:      14842  HIT:      14842  MISS:          0  HIT %:        100  MISS %:          0   MPKI: 0
PSCL5 PREFETCH  REQUESTED:          0  ISSUED:          0  USEFUL:          0  USELESS:          0
PSCL5 USEFUL LOAD PREFETCHES:          0 PREFETCH ISSUED TO LOWER LEVEL:          0  ACCURACY: -nan
PSCL5 TIMELY PREFETCHES:          0 LATE PREFETCHES: 0 DROPPED PREFETCHES: 0
PSCL5 PREFETCHES SAME FILL-ORIGIN LEVEL: 0 DIFFERENT FILL-ORIGIN LEVEL: 0

PSCL4 TOTAL     ACCESS:      14842  HIT:      14842  MISS:          0  HIT %:        100  MISS %:          0   MPKI: 0
PSCL4 LOAD TRANSLATION ACCESS:      14842  HIT:      14842  MISS:          0  HIT %:        100  MISS %:          0   MPKI: 0
PSCL4 PREFETCH  REQUESTED:          0  ISSUED:          0  USEFUL:          0  USELESS:          0
PSCL4 USEFUL LOAD PREFETCHES:          0 PREFETCH ISSUED TO LOWER LEVEL:          0  ACCURACY: -nan
PSCL4 TIMELY PREFETCHES:          0 LATE PREFETCHES: 0 DROPPED PREFETCHES: 0
PSCL4 PREFETCHES SAME FILL-ORIGIN LEVEL: 0 DIFFERENT FILL-ORIGIN LEVEL: 0

PSCL3 TOTAL     ACCESS:      14842  HIT:      14842  MISS:          0  HIT %:        100  MISS %:          0   MPKI: 0
PSCL3 LOAD TRANSLATION ACCESS:      14842  HIT:      14842  MISS:          0  HIT %:        100  MISS %:          0   MPKI: 0
PSCL3 PREFETCH  REQUESTED:          0  ISSUED:          0  USEFUL:          0  USELESS:          0
PSCL3 USEFUL LOAD PREFETCHES:          0 PREFETCH ISSUED TO LOWER LEVEL:          0  ACCURACY: -nan
PSCL3 TIMELY PREFETCHES:          0 LATE PREFETCHES: 0 DROPPED PREFETCHES: 0
PSCL3 PREFETCHES SAME FILL-ORIGIN LEVEL: 0 DIFFERENT FILL-ORIGIN LEVEL: 0

PSCL2 TOTAL     ACCESS:      14842  HIT:      14813  MISS:         29  HIT %:    99.8046  MISS %:   0.195391   MPKI: 0.00058
PSCL2 LOAD TRANSLATION ACCESS:      14842  HIT:      14813  MISS:         29  HIT %:    99.8046  MISS %:   0.195391   MPKI: 0.00058
PSCL2 PREFETCH  REQUESTED:          0  ISSUED:          0  USEFUL:          0  USELESS:          0
PSCL2 USEFUL LOAD PREFETCHES:          0 PREFETCH ISSUED TO LOWER LEVEL:          0  ACCURACY: -nan
PSCL2 TIMELY PREFETCHES:          0 LATE PREFETCHES: 0 DROPPED PREFETCHES: 0
PSCL2 PREFETCHES SAME FILL-ORIGIN LEVEL: 0 DIFFERENT FILL-ORIGIN LEVEL: 0

LLC TOTAL     ACCESS:     976346  HIT:      24385  MISS:     951961  HIT %:    2.49758  MISS %:    97.5024   MPKI: 19.0392
LLC LOAD      ACCESS:      19187  HIT:          0  MISS:      19187  HIT %:          0  MISS %:        100   MPKI: 0.38374
LLC RFO       ACCESS:      24362  HIT:          0  MISS:      24362  HIT %:          0  MISS %:        100   MPKI: 0.48724
LLC PREFETCH  ACCESS:     906531  HIT:          0  MISS:     906531  HIT %:          0  MISS %:        100   MPKI: 18.1306
LLC WRITEBACK ACCESS:      24385  HIT:      24385  MISS:          0  HIT %:        100  MISS %:          0   MPKI: 0
LLC LOAD TRANSLATION ACCESS:       1881  HIT:          0  MISS:       1881  HIT %:          0  MISS %:        100   MPKI: 0.03762
LLC PREFETCH  REQUESTED:          0  ISSUED:          0  USEFUL:          0  USELESS:     906599
LLC USEFUL LOAD PREFETCHES:          0 PREFETCH ISSUED TO LOWER LEVEL:     906530  ACCURACY: 0
LLC TIMELY PREFETCHES:          0 LATE PREFETCHES: 0 DROPPED PREFETCHES: 0
LLC PREFETCHES SAME FILL-ORIGIN LEVEL: 0 DIFFERENT FILL-ORIGIN LEVEL: 0
LLC AVERAGE MISS LATENCY: 182.193 cycles
LLC RQ	ACCESS:      45431	FORWARD:          0	MERGED:          0	TO_CACHE:      45431
LLC WQ	ACCESS:      24385	FORWARD:          0	MERGED:          0	TO_CACHE:      24385
LLC PQ	ACCESS:     906529	FORWARD:          0	MERGED:          0	TO_CACHE:     906529

LLC Dense regions hint to LLC: 0

RAW hits: 223418
Loads Generated: 21490010
Loads sent to L1D: 21266591
Stores Generated: 2816683
Stores sent to L1D: 2816683
Major fault: 0 Minor fault: 17247
Allocated PAGES: 17247

stream: 
stream:times selected: 6902364
stream:pref_filled: 1099421
stream:pref_useful: 1099262
stream:pref_late: 2267
stream:misses: 111
stream:misses_by_poll: 0

CS: 
CS:times selected: 6682064
CS:pref_filled: 5396
CS:pref_useful: 5396
CS:pref_late: 21
CS:misses: 56215
CS:misses_by_poll: 29

CPLX: 
CPLX:times selected: 220093
CPLX:pref_filled: 15271
CPLX:pref_useful: 10358
CPLX:pref_late: 2
CPLX:misses: 682
CPLX:misses_by_poll: 19

NL_L1: 
NL:times selected: 2189
NL:pref_filled: 8
NL:pref_useful: 8
NL:pref_late: 1
NL:misses: 1
NL:misses_by_poll: 0

total selections: 13806710
total_filled: 929339
total_useful: 925085
total_late: 2535
total_polluted: 48
total_misses_after_warmup: 53104
conflicts: 12
Degree Incremented Times: 176625
Degree Decremented Times: 0

L1 IP Table Write Accesses: 16831881
L1 IP Table Read Accesses: 16831869
L1 RST Write Accesses: 5773207
L1 RST Read Accesses: 11546414
L1 CSPT Write Accesses: 5773207
L1 CSPT Read Accesses: 6279365
L1 RR Filter Tag Write Accesses: 32067860
L1 RR Filter Tag Read Accesses: 1486049502
L1 IP Table Tag Write Accesses: 16832784
L1 IP Table Tag Read Accesses: 16832784
L1 RST Tag Write Accesses: 0
L1 RST Tag Read Accesses: 51949409
L1 RR Filter Write Accesses: 0
L1 RR Filter Read Accesses: 49357209
test: 136539
L2 IP Table Read Accesses: 1766676
L2 IP Table Write Accesses: 1718591
L2 IP Table Tag Read Accesses: 883338
L2 IP Table Tag Write Accesses: 883338

DRAM Statistics
 CHANNEL 0
 RQ ROW_BUFFER_HIT:     667195  ROW_BUFFER_MISS:     284765
 DBUS_CONGESTED:     558680
 WQ ROW_BUFFER_HIT:       5193  ROW_BUFFER_MISS:      19083  FULL:          0

 AVG_CONGESTED_CYCLE: 13
 All warmup complete: 2
Channel 0 Bank busy for read cycles: 0
Channel 0 Bank busy for write cycles: 0
Channel 0
Rank 0
0banks busy for read cycles: 21278752
0banks busy for write cycles: 5480
1banks busy for read cycles: 8481230
1banks busy for write cycles: 423298
2banks busy for read cycles: 5561949
2banks busy for write cycles: 280524
3banks busy for read cycles: 4679963
3banks busy for write cycles: 325673
4banks busy for read cycles: 3346881
4banks busy for write cycles: 158993
5banks busy for read cycles: 2389836
5banks busy for write cycles: 112601
6banks busy for read cycles: 1738693
6banks busy for write cycles: 88086
7banks busy for read cycles: 1871571
7banks busy for write cycles: 95649
8banks busy for read cycles: 1387557
8banks busy for write cycles: 178558

CPU 0 Branch Prediction Accuracy: 81.2318% MPKI: 4.68478 Average ROB Occupancy at Mispredict: 36.4642
Branch types
NOT_BRANCH: 48751613 97.5032%
BRANCH_DIRECT_JUMP: 0 0%
BRANCH_INDIRECT: 0 0%
BRANCH_CONDITIONAL: 1248062 2.49612%
BRANCH_DIRECT_CALL: 0 0%
BRANCH_INDIRECT_CALL: 0 0%
BRANCH_RETURN: 0 0%
BRANCH_OTHER: 0 0%

@sumon_overall_L1D    925085      2048      4267    929339  34730205  49417451
@Sumon_Early_by_class_L1D    912113      4186      8783         0
@Sumon_Late_by_class_L1D      1798         7         0         0

@Sumon_Early_by_cycle_L1D     11377      5919     17921     23267     39786    526363    180498     19723    100196        27         8         0
@Sumon_Late_by_cycle_L1D      1138       853        53         4         0         0         0         0         0         0         0         0
@Sumon_Early_stream_L1D     11320      5855     17674     22873     39157    523606    180300     18892     92436         0         0         0
@Sumon_Early_CS_L1D        35        37       195       327       543      2596       151       302         0         0         0         0
@Sumon_Early_CPLX_L1D        22        27        51        67        85       160        47       529      7760        27         8         0
@Sumon_Late_stream_L1D       891       850        53         4         0         0         0         0         0         0         0         0
@Sumon_Late_CS_L1D         4         3         0         0         0         0         0         0         0         0         0         0
@Sumon_Late_CPLX_L1D         0         0         0         0         0         0         0         0         0         0         0         0
@sumon_overall_L2C     26367      1049    879304    905482   4528704   4893999
@Sumon_Early_by_class_L2C     26185       178         4         0
@Sumon_Late_by_class_L2C      1004         2         0         0

@Sumon_Early_by_cycle_L2C        81        73       103       144       386      9724     15660        35        57        98         0         6
@Sumon_Late_by_cycle_L2C       175       471       332        59        12         0         0         0         0         0         0         0
@Sumon_Early_stream_L2C        79        71        96       138       337      9616     15656        35        53        98         0         6
@Sumon_Early_CS_L2C         2         2         7         6        49       108         4         0         0         0         0         0
@Sumon_Early_CPLX_L2C         0         0         0         0         0         0         0         0         4         0         0         0
@Sumon_Late_stream_L2C       131       471       332        58        12         0         0         0         0         0         0         0
@Sumon_Late_CS_L2C         1         0         0         1         0         0         0         0         0         0         0         0
@Sumon_Late_CPLX_L2C         0         0         0         0         0         0         0         0         0         0         0         0
DRAM PAGES: 1048576
Allocated PAGES: 17247
