
*** ChampSim Multicore Out-of-Order Simulator ***

Warmup Instructions: 10000000
Simulation Instructions: 50000000
Number of CPUs: 1
LLC sets: 2048
LLC ways: 16
Off-chip DRAM Size: 4096 MB Channels: 1 Width: 64-bit Data Rate: 1600 MT/s
CPU 0 runs traces/SPEC2017/605.mcf_s-472B.champsimtrace.xz
.xz
CPU 0 Bimodal branch predictor
BTB has LRU replacement policy
ITLB has LRU replacement policy
DTLB has LRU replacement policy
STLB has LRU replacement policy
L1I has LRU replacement policy
IP Table Entries: 256
L1D has LRU replacement policy
IP_Table L2 entries: 256
L2C has LRU replacement policy
LLC has LRU replacement policy
Heartbeat CPU 0 instructions: 10000001 cycles: 3195178 heartbeat IPC: 3.12972 cumulative IPC: 3.12972 (Simulation time: 0 hr 14 min 18 sec) 

Warmup complete CPU 0 instructions: 10000001 cycles: 3195178 (Simulation time: 0 hr 14 min 18 sec) 

Heartbeat CPU 0 instructions: 20000000 cycles: 41174692 heartbeat IPC: 0.2633 cumulative IPC: 0.2633 (Simulation time: 0 hr 35 min 30 sec) 
Heartbeat CPU 0 instructions: 30000001 cycles: 83830053 heartbeat IPC: 0.234437 cumulative IPC: 0.248032 (Simulation time: 0 hr 57 min 37 sec) 
Heartbeat CPU 0 instructions: 40000000 cycles: 114477817 heartbeat IPC: 0.326288 cumulative IPC: 0.269584 (Simulation time: 1 hr 7 min 14 sec) 
Heartbeat CPU 0 instructions: 50000001 cycles: 146013026 heartbeat IPC: 0.317106 cumulative IPC: 0.280077 (Simulation time: 1 hr 12 min 40 sec) 
Heartbeat CPU 0 instructions: 60000001 cycles: 177439918 heartbeat IPC: 0.318199 cumulative IPC: 0.286953 (Simulation time: 1 hr 16 min 16 sec) 
Finished CPU 0 instructions: 50000000 cycles: 174244740 cumulative IPC: 0.286953 (Simulation time: 1 hr 16 min 16 sec) 

ChampSim completed all CPUs

Region of Interest Statistics

CPU 0 cumulative IPC: 0.286953 instructions: 50000000 cycles: 174244740
ITLB TOTAL     ACCESS:    8768929  HIT:    8768929  MISS:          0  HIT %:        100  MISS %:          0   MPKI: 0
ITLB LOAD TRANSLATION ACCESS:    8768929  HIT:    8768929  MISS:          0  HIT %:        100  MISS %:          0   MPKI: 0
ITLB PREFETCH  REQUESTED:          0  ISSUED:          0  USEFUL:          0  USELESS:          0
ITLB USEFUL LOAD PREFETCHES:          0 PREFETCH ISSUED TO LOWER LEVEL:          0  ACCURACY: -nan
ITLB TIMELY PREFETCHES:          0 LATE PREFETCHES: 0 DROPPED PREFETCHES: 0
ITLB PREFETCHES SAME FILL-ORIGIN LEVEL: 0 DIFFERENT FILL-ORIGIN LEVEL: 0
ITLB AVERAGE MISS LATENCY: -nan cycles
ITLB RQ	ACCESS:   11282219	FORWARD:          0	MERGED:    2513290	TO_CACHE:    8768929

DTLB TOTAL     ACCESS:   14176587  HIT:   14049753  MISS:     126834  HIT %:    99.1053  MISS %:   0.894672   MPKI: 2.53668
DTLB LOAD TRANSLATION ACCESS:   14176587  HIT:   14049753  MISS:     126834  HIT %:    99.1053  MISS %:   0.894672   MPKI: 2.53668
DTLB PREFETCH  REQUESTED:          0  ISSUED:          0  USEFUL:          0  USELESS:          0
DTLB USEFUL LOAD PREFETCHES:          0 PREFETCH ISSUED TO LOWER LEVEL:          0  ACCURACY: -nan
DTLB TIMELY PREFETCHES:          0 LATE PREFETCHES: 0 DROPPED PREFETCHES: 0
DTLB PREFETCHES SAME FILL-ORIGIN LEVEL: 0 DIFFERENT FILL-ORIGIN LEVEL: 0
DTLB AVERAGE MISS LATENCY: 51.3086 cycles
DTLB RQ	ACCESS:   22750646	FORWARD:          0	MERGED:    8531691	TO_CACHE:   14218955

STLB TOTAL     ACCESS:    4507631  HIT:    4433360  MISS:      74271  HIT %:    98.3523  MISS %:    1.64767   MPKI: 1.48542
STLB LOAD TRANSLATION ACCESS:     126834  HIT:      52594  MISS:      74240  HIT %:    41.4668  MISS %:    58.5332   MPKI: 1.4848
STLB TRANSLATION FROM L1D PREFETCHER ACCESS:    4380797  HIT:    4380766  MISS:         31  HIT %:    99.9993  MISS %: 0.000707634   MPKI: 0.00062
STLB PREFETCH  REQUESTED:          0  ISSUED:          0  USEFUL:         22  USELESS:          9
STLB USEFUL LOAD PREFETCHES:         22 PREFETCH ISSUED TO LOWER LEVEL:          0  ACCURACY: inf
STLB TIMELY PREFETCHES:         22 LATE PREFETCHES: 0 DROPPED PREFETCHES: 0
STLB PREFETCHES SAME FILL-ORIGIN LEVEL: 0 DIFFERENT FILL-ORIGIN LEVEL: 0
STLB AVERAGE MISS LATENCY: 72.3386 cycles
STLB RQ	ACCESS:    6857616	FORWARD:          0	MERGED:    2349985	TO_CACHE:    4507631

STLB Hit, L1D data hit: 0
STLB Hit, L2C data hit: 0
STLB Hit, LLC data hit: 0
STLB Hit, LLC data miss: 0
STLB STLB hints to L2: 0
L1D TOTAL     ACCESS:   27877930  HIT:   23623336  MISS:    4254594  HIT %:    84.7385  MISS %:    15.2615   MPKI: 85.0919
L1D LOAD      ACCESS:   10767545  HIT:    8769886  MISS:    1997659  HIT %:    81.4474  MISS %:    18.5526   MPKI: 39.9532
L1D RFO       ACCESS:   11248759  HIT:   11118444  MISS:     130315  HIT %:    98.8415  MISS %:    1.15848   MPKI: 2.6063
L1D PREFETCH  ACCESS:    5861626  HIT:    3735006  MISS:    2126620  HIT %:    63.7196  MISS %:    36.2804   MPKI: 42.5324
L1D PREFETCH  REQUESTED:   13466545  ISSUED:   13461565  USEFUL:     721315  USELESS:    1405304
L1D USEFUL LOAD PREFETCHES:     721315 PREFETCH ISSUED TO LOWER LEVEL:    2788377  ACCURACY: 25.8686
L1D TIMELY PREFETCHES:     721315 LATE PREFETCHES: 660433 DROPPED PREFETCHES: 0
L1D PREFETCHES SAME FILL-ORIGIN LEVEL: 2788377 DIFFERENT FILL-ORIGIN LEVEL: 0
L1D AVERAGE MISS LATENCY: 1.30727e+07 cycles
L1D RQ	ACCESS:   17025551	FORWARD:          0	MERGED:    5911825	TO_CACHE:   11103666
L1D WQ	ACCESS:   11892813	FORWARD:      10061	MERGED:     245833	TO_CACHE:   11646980
L1D PQ	ACCESS:    6730783	FORWARD:          0	MERGED:          0	TO_CACHE:    6730782

L1D UNIQUE REGIONS ACCESSED: 0
L1D REGIONS CONFLICTS: 0
L1D Cross Page Prefetch Requests: 0
L1D Same Page Prefetch Requests: 8072964
L1D ROI Sum of L1D PQ occupancy: 102907366
L1D PREFETCHES PUSHED FROM L2C: 0
L1I TOTAL     ACCESS:   11282217  HIT:   11282217  MISS:          0  HIT %:        100  MISS %:          0   MPKI: 0
L1I LOAD      ACCESS:   11282217  HIT:   11282217  MISS:          0  HIT %:        100  MISS %:          0   MPKI: 0
L1I PREFETCH  REQUESTED:          0  ISSUED:          0  USEFUL:          0  USELESS:          0
L1I USEFUL LOAD PREFETCHES:          0 PREFETCH ISSUED TO LOWER LEVEL:          0  ACCURACY: -nan
L1I TIMELY PREFETCHES:          0 LATE PREFETCHES: 0 DROPPED PREFETCHES: 0
L1I PREFETCHES SAME FILL-ORIGIN LEVEL: 0 DIFFERENT FILL-ORIGIN LEVEL: 0
L1I AVERAGE MISS LATENCY: -nan cycles
L1I RQ	ACCESS:   15291711	FORWARD:          0	MERGED:    4009492	TO_CACHE:   11282219

BTB TOTAL     ACCESS:    5821401  HIT:    5821367  MISS:         34  HIT %:    99.9994  MISS %: 0.000584052   MPKI: 0.00068
BTB BRANCH_DIRECT_JUMP	ACCESS:     638582  HIT:     638576  MISS:          6
BTB BRANCH_INDIRECT	ACCESS:          0  HIT:          0  MISS:          0
BTB BRANCH_CONDITIONAL	ACCESS:    5182671  HIT:    5182647  MISS:         24
BTB BRANCH_DIRECT_CALL	ACCESS:         74  HIT:         72  MISS:          2
BTB BRANCH_INDIRECT_CALL	ACCESS:          0  HIT:          0  MISS:          0
BTB BRANCH_RETURN	ACCESS:         74  HIT:         72  MISS:          2
BTB BRANCH_OTHER ACCESS:          0  HIT:          0  MISS:          0

L2C TOTAL     ACCESS:    5256219  HIT:    1240745  MISS:    4015474  HIT %:    23.6053  MISS %:    76.3947   MPKI: 80.3095
L2C LOAD      ACCESS:    1337210  HIT:      60619  MISS:    1276591  HIT %:    4.53324  MISS %:    95.4668   MPKI: 25.5318
L2C DATA LOAD MPKI: 25.5318
L2C INSTRUCTION LOAD MPKI: 0
L2C RFO       ACCESS:     128989  HIT:       5292  MISS:     123697  HIT %:    4.10268  MISS %:    95.8973   MPKI: 2.47394
L2C PREFETCH  ACCESS:    3405968  HIT:     802913  MISS:    2603055  HIT %:    23.5737  MISS %:    76.4263   MPKI: 52.0611
L2C DATA PREFETCH MPKI: 52.0611
L2C INSTRUCTION PREFETCH MPKI: 0
L2C WRITEBACK ACCESS:     309737  HIT:     308221  MISS:       1516  HIT %:    99.5106  MISS %:   0.489447   MPKI: 0.03032
L2C LOAD TRANSLATION ACCESS:      74284  HIT:      63700  MISS:      10584  HIT %:     85.752  MISS %:     14.248   MPKI: 0.21168
L2C TRANSLATION FROM L1D PREFETCHER ACCESS:         31  HIT:          0  MISS:         31  HIT %:          0  MISS %:        100   MPKI: 0.00062
L2C PREFETCH  REQUESTED:     889119  ISSUED:     889119  USEFUL:      17215  USELESS:    2585729
L2C USEFUL LOAD PREFETCHES:      17215 PREFETCH ISSUED TO LOWER LEVEL:    2603329  ACCURACY: 0.661269
L2C TIMELY PREFETCHES:      17215 LATE PREFETCHES: 274 DROPPED PREFETCHES: 0
L2C PREFETCHES SAME FILL-ORIGIN LEVEL: 349544 DIFFERENT FILL-ORIGIN LEVEL: 0
L2C AVERAGE MISS LATENCY: 224.882 cycles
L2C RQ	ACCESS:    1540532	FORWARD:          0	MERGED:          0	TO_CACHE:    1540514
L2C WQ	ACCESS:     309737	FORWARD:         32	MERGED:          0	TO_CACHE:     309737
L2C PQ	ACCESS:    3677496	FORWARD:          0	MERGED:      26910	TO_CACHE:    3650572

L2C Instructions Evicting Data 0
L2C Translations Evicting Data 10606
L2C Data Evicting Data 3992807
L2C Instructions Evicting Instructions 0
L2C Translations Evicting Instructions 0
L2C Data Evicting Instructions 0
L2C Instructions Evicting Translations 0
L2C Translations Evicting Translations 9
L2C Data Evicting Translations 10536
L2C Dense regions hint from L2: 0
PSCL5 TOTAL     ACCESS:      74271  HIT:      74271  MISS:          0  HIT %:        100  MISS %:          0   MPKI: 0
PSCL5 LOAD TRANSLATION ACCESS:      74240  HIT:      74240  MISS:          0  HIT %:        100  MISS %:          0   MPKI: 0
PSCL5 TRANSLATION FROM L1D PREFETCHER ACCESS:         31  HIT:         31  MISS:          0  HIT %:        100  MISS %:          0   MPKI: 0
PSCL5 PREFETCH  REQUESTED:          0  ISSUED:          0  USEFUL:          0  USELESS:          0
PSCL5 USEFUL LOAD PREFETCHES:          0 PREFETCH ISSUED TO LOWER LEVEL:          0  ACCURACY: -nan
PSCL5 TIMELY PREFETCHES:          0 LATE PREFETCHES: 0 DROPPED PREFETCHES: 0
PSCL5 PREFETCHES SAME FILL-ORIGIN LEVEL: 0 DIFFERENT FILL-ORIGIN LEVEL: 0

PSCL4 TOTAL     ACCESS:      74271  HIT:      74271  MISS:          0  HIT %:        100  MISS %:          0   MPKI: 0
PSCL4 LOAD TRANSLATION ACCESS:      74240  HIT:      74240  MISS:          0  HIT %:        100  MISS %:          0   MPKI: 0
PSCL4 TRANSLATION FROM L1D PREFETCHER ACCESS:         31  HIT:         31  MISS:          0  HIT %:        100  MISS %:          0   MPKI: 0
PSCL4 PREFETCH  REQUESTED:          0  ISSUED:          0  USEFUL:          0  USELESS:          0
PSCL4 USEFUL LOAD PREFETCHES:          0 PREFETCH ISSUED TO LOWER LEVEL:          0  ACCURACY: -nan
PSCL4 TIMELY PREFETCHES:          0 LATE PREFETCHES: 0 DROPPED PREFETCHES: 0
PSCL4 PREFETCHES SAME FILL-ORIGIN LEVEL: 0 DIFFERENT FILL-ORIGIN LEVEL: 0

PSCL3 TOTAL     ACCESS:      74271  HIT:      74271  MISS:          0  HIT %:        100  MISS %:          0   MPKI: 0
PSCL3 LOAD TRANSLATION ACCESS:      74240  HIT:      74240  MISS:          0  HIT %:        100  MISS %:          0   MPKI: 0
PSCL3 TRANSLATION FROM L1D PREFETCHER ACCESS:         31  HIT:         31  MISS:          0  HIT %:        100  MISS %:          0   MPKI: 0
PSCL3 PREFETCH  REQUESTED:          0  ISSUED:          0  USEFUL:          0  USELESS:          0
PSCL3 USEFUL LOAD PREFETCHES:          0 PREFETCH ISSUED TO LOWER LEVEL:          0  ACCURACY: -nan
PSCL3 TIMELY PREFETCHES:          0 LATE PREFETCHES: 0 DROPPED PREFETCHES: 0
PSCL3 PREFETCHES SAME FILL-ORIGIN LEVEL: 0 DIFFERENT FILL-ORIGIN LEVEL: 0

PSCL2 TOTAL     ACCESS:      74271  HIT:      74195  MISS:         76  HIT %:    99.8977  MISS %:   0.102328   MPKI: 0.00152
PSCL2 LOAD TRANSLATION ACCESS:      74240  HIT:      74164  MISS:         76  HIT %:    99.8976  MISS %:   0.102371   MPKI: 0.00152
PSCL2 TRANSLATION FROM L1D PREFETCHER ACCESS:         31  HIT:         31  MISS:          0  HIT %:        100  MISS %:          0   MPKI: 0
PSCL2 PREFETCH  REQUESTED:          0  ISSUED:          0  USEFUL:          0  USELESS:          0
PSCL2 USEFUL LOAD PREFETCHES:          0 PREFETCH ISSUED TO LOWER LEVEL:          0  ACCURACY: -nan
PSCL2 TIMELY PREFETCHES:          0 LATE PREFETCHES: 0 DROPPED PREFETCHES: 0
PSCL2 PREFETCHES SAME FILL-ORIGIN LEVEL: 0 DIFFERENT FILL-ORIGIN LEVEL: 0

LLC TOTAL     ACCESS:    4273296  HIT:     276756  MISS:    3996540  HIT %:    6.47641  MISS %:    93.5236   MPKI: 79.9308
LLC LOAD      ACCESS:    1276317  HIT:       2689  MISS:    1273628  HIT %:   0.210684  MISS %:    99.7893   MPKI: 25.4726
LLC RFO       ACCESS:     123697  HIT:        145  MISS:     123552  HIT %:   0.117222  MISS %:    99.8828   MPKI: 2.47104
LLC PREFETCH  ACCESS:    2603329  HIT:      16095  MISS:    2587234  HIT %:   0.618247  MISS %:    99.3818   MPKI: 51.7447
LLC WRITEBACK ACCESS:     259338  HIT:     257461  MISS:       1877  HIT %:    99.2762  MISS %:   0.723766   MPKI: 0.03754
LLC LOAD TRANSLATION ACCESS:      10584  HIT:        366  MISS:      10218  HIT %:    3.45805  MISS %:     96.542   MPKI: 0.20436
LLC TRANSLATION FROM L1D PREFETCHER ACCESS:         31  HIT:          0  MISS:         31  HIT %:          0  MISS %:        100   MPKI: 0.00062
LLC PREFETCH  REQUESTED:          0  ISSUED:          0  USEFUL:       1543  USELESS:    2588648
LLC USEFUL LOAD PREFETCHES:       1543 PREFETCH ISSUED TO LOWER LEVEL:    2587234  ACCURACY: 0.059639
LLC TIMELY PREFETCHES:       1543 LATE PREFETCHES: 0 DROPPED PREFETCHES: 0
LLC PREFETCHES SAME FILL-ORIGIN LEVEL: 0 DIFFERENT FILL-ORIGIN LEVEL: 0
LLC AVERAGE MISS LATENCY: 195.763 cycles
LLC RQ	ACCESS:    1410629	FORWARD:          0	MERGED:          0	TO_CACHE:    1410629
LLC WQ	ACCESS:     259338	FORWARD:          0	MERGED:          0	TO_CACHE:     259338
LLC PQ	ACCESS:    2603329	FORWARD:          0	MERGED:          0	TO_CACHE:    2603329

LLC Dense regions hint to LLC: 0

RAW hits: 727374
Loads Generated: 17752925
Loads sent to L1D: 17025551
Stores Generated: 11892805
Stores sent to L1D: 11892813
Major fault: 0 Minor fault: 13946
Allocated PAGES: 13946

stream: 
stream:times selected: 8177890
stream:pref_filled: 1382909
stream:pref_useful: 168416
stream:pref_late: 205528
stream:misses: 201412
stream:misses_by_poll: 0

CS: 
CS:times selected: 543896
CS:pref_filled: 392478
CS:pref_useful: 390945
CS:pref_late: 3495
CS:misses: 9540
CS:misses_by_poll: 365

CPLX: 
CPLX:times selected: 7596584
CPLX:pref_filled: 659428
CPLX:pref_useful: 286852
CPLX:pref_late: 506785
CPLX:misses: 2229116
CPLX:misses_by_poll: 3728

NL_L1: 
NL:times selected: 45831
NL:pref_filled: 8331
NL:pref_useful: 4034
NL:pref_late: 1057
NL:misses: 21940
NL:misses_by_poll: 11

total selections: 16364201
total_filled: 2126620
total_useful: 721315
total_late: 729114
total_polluted: 4104
total_misses_after_warmup: 2333778
conflicts: 23922
Degree Incremented Times: 51636
Degree Decremented Times: 105001

L1 IP Table Write Accesses: 10977240
L1 IP Table Read Accesses: 10953318
L1 RST Write Accesses: 6900381
L1 RST Read Accesses: 13800762
L1 CSPT Write Accesses: 6900381
L1 CSPT Read Accesses: 13274736
L1 RR Filter Tag Write Accesses: 6735763
L1 RR Filter Tag Read Accesses: 328561901
L1 IP Table Tag Write Accesses: 11103664
L1 IP Table Tag Read Accesses: 11103664
L1 RST Tag Write Accesses: 0
L1 RST Tag Read Accesses: 65397140
L1 RR Filter Write Accesses: 0
L1 RR Filter Read Accesses: 11367458
test: 3227165
L2 IP Table Read Accesses: 8041416
L2 IP Table Write Accesses: 6749103
L2 IP Table Tag Read Accesses: 4044303
L2 IP Table Tag Write Accesses: 4044303

DRAM Statistics
 CHANNEL 0
 RQ ROW_BUFFER_HIT:    2644440  ROW_BUFFER_MISS:    1350199
 DBUS_CONGESTED:    3123797
 WQ ROW_BUFFER_HIT:      77683  ROW_BUFFER_MISS:     179530  FULL:          0

 AVG_CONGESTED_CYCLE: 13
 All warmup complete: 2
Channel 0 Bank busy for read cycles: 0
Channel 0 Bank busy for write cycles: 0
Channel 0
Rank 0
0banks busy for read cycles: 41874578
0banks busy for write cycles: 13270
1banks busy for read cycles: 28825369
1banks busy for write cycles: 2464422
2banks busy for read cycles: 18526614
2banks busy for write cycles: 1388548
3banks busy for read cycles: 13104125
3banks busy for write cycles: 933380
4banks busy for read cycles: 10080455
4banks busy for write cycles: 698855
5banks busy for read cycles: 9693208
5banks busy for write cycles: 575366
6banks busy for read cycles: 11090513
6banks busy for write cycles: 536041
7banks busy for read cycles: 13100311
7banks busy for write cycles: 809020
8banks busy for read cycles: 12416240
8banks busy for write cycles: 8114426

CPU 0 Branch Prediction Accuracy: 98.3401% MPKI: 1.96794 Average ROB Occupancy at Mispredict: 175.995
Branch types
NOT_BRANCH: 44071945 88.1439%
BRANCH_DIRECT_JUMP: 638582 1.27716%
BRANCH_INDIRECT: 0 0%
BRANCH_CONDITIONAL: 5289321 10.5786%
BRANCH_DIRECT_CALL: 74 0.000148%
BRANCH_INDIRECT_CALL: 0 0%
BRANCH_RETURN: 74 0.000148%
BRANCH_OTHER: 0 0%

@sumon_overall_L1D    721315    660433   1405304   2126620  13461565  13466545
@Sumon_Early_by_class_L1D    135987    353111    229273       968
@Sumon_Late_by_class_L1D    191547      3258    454665       968

@Sumon_Early_by_cycle_L1D    151799    110791    105198    118249     63806     81558     23253     21248     20539     15421      7403      2050
@Sumon_Late_by_cycle_L1D    169282    312704    161730     15056      1419       242         0         0         0         0         0         0
@Sumon_Early_stream_L1D     67008     33446     14425      1840       258      5174      3783      3168      3180      2445       720       540
@Sumon_Early_CS_L1D     25167     18732     51104    106316     60451     58601     11623     11505      9417       195         0         0
@Sumon_Early_CPLX_L1D     58312     57604     39290     10027      3092     17765      7825      6530      7896     12753      6673      1506
@Sumon_Late_stream_L1D     64685     97046     25628      3775       396        17         0         0         0         0         0         0
@Sumon_Late_CS_L1D      1741      1226       250        34         6         1         0         0         0         0         0         0
@Sumon_Late_CPLX_L1D     92262    214123    135799     11240      1017       224         0         0         0         0         0         0
@sumon_overall_L2C     17215       274   2585729   2603086    889119    889119
@Sumon_Early_by_class_L2C      2909      2404      9931         0
@Sumon_Late_by_class_L2C         0       239         0         0

@Sumon_Early_by_cycle_L2C       135       203       362       468       332       761       128       148       329      2016      3144      9189
@Sumon_Late_by_cycle_L2C        85       119        66         4         0         0         0         0         0         0         0         0
@Sumon_Early_stream_L2C         0         0         0         0         0         0         0         0        39       823       709      1338
@Sumon_Early_CS_L2C       135       202       362       468       331       716        63        14        22        88         3         0
@Sumon_Early_CPLX_L2C         0         0         0         0         0         0         0         1        27       625      2130      7148
@Sumon_Late_stream_L2C         0         0         0         0         0         0         0         0         0         0         0         0
@Sumon_Late_CS_L2C        75       108        52         4         0         0         0         0         0         0         0         0
@Sumon_Late_CPLX_L2C         0         0         0         0         0         0         0         0         0         0         0         0
DRAM PAGES: 1048576
Allocated PAGES: 13946
