
*** ChampSim Multicore Out-of-Order Simulator ***

Warmup Instructions: 10000000
Simulation Instructions: 50000000
Number of CPUs: 1
LLC sets: 2048
LLC ways: 16
Off-chip DRAM Size: 4096 MB Channels: 1 Width: 64-bit Data Rate: 1600 MT/s
CPU 0 runs traces/SPEC2017/605.mcf_s-484B.champsimtrace.xz
.xz
CPU 0 Bimodal branch predictor
BTB has LRU replacement policy
ITLB has LRU replacement policy
DTLB has LRU replacement policy
STLB has LRU replacement policy
L1I has LRU replacement policy
IP Table Entries: 256
L1D has LRU replacement policy
IP_Table L2 entries: 256
L2C has LRU replacement policy
LLC has LRU replacement policy
Heartbeat CPU 0 instructions: 10000001 cycles: 3165151 heartbeat IPC: 3.15941 cumulative IPC: 3.15941 (Simulation time: 0 hr 13 min 45 sec) 

Warmup complete CPU 0 instructions: 10000001 cycles: 3165151 (Simulation time: 0 hr 13 min 45 sec) 

Heartbeat CPU 0 instructions: 20000000 cycles: 32980439 heartbeat IPC: 0.335398 cumulative IPC: 0.335398 (Simulation time: 0 hr 31 min 9 sec) 
Heartbeat CPU 0 instructions: 30000000 cycles: 60011039 heartbeat IPC: 0.369951 cumulative IPC: 0.351828 (Simulation time: 0 hr 48 min 36 sec) 
Heartbeat CPU 0 instructions: 40000000 cycles: 86733447 heartbeat IPC: 0.374218 cumulative IPC: 0.358988 (Simulation time: 1 hr 1 min 37 sec) 
Heartbeat CPU 0 instructions: 50000000 cycles: 115112901 heartbeat IPC: 0.352368 cumulative IPC: 0.35731 (Simulation time: 1 hr 9 min 17 sec) 
Heartbeat CPU 0 instructions: 60000003 cycles: 142436543 heartbeat IPC: 0.365984 cumulative IPC: 0.359011 (Simulation time: 1 hr 13 min 26 sec) 
Finished CPU 0 instructions: 50000002 cycles: 139271392 cumulative IPC: 0.359011 (Simulation time: 1 hr 13 min 26 sec) 

ChampSim completed all CPUs

Region of Interest Statistics

CPU 0 cumulative IPC: 0.359011 instructions: 50000002 cycles: 139271392
ITLB TOTAL     ACCESS:    8211937  HIT:    8211937  MISS:          0  HIT %:        100  MISS %:          0   MPKI: 0
ITLB LOAD TRANSLATION ACCESS:    8211937  HIT:    8211937  MISS:          0  HIT %:        100  MISS %:          0   MPKI: 0
ITLB PREFETCH  REQUESTED:          0  ISSUED:          0  USEFUL:          0  USELESS:          0
ITLB USEFUL LOAD PREFETCHES:          0 PREFETCH ISSUED TO LOWER LEVEL:          0  ACCURACY: -nan
ITLB TIMELY PREFETCHES:          0 LATE PREFETCHES: 0 DROPPED PREFETCHES: 0
ITLB PREFETCHES SAME FILL-ORIGIN LEVEL: 0 DIFFERENT FILL-ORIGIN LEVEL: 0
ITLB AVERAGE MISS LATENCY: -nan cycles
ITLB RQ	ACCESS:   10693365	FORWARD:          0	MERGED:    2481429	TO_CACHE:    8211936

DTLB TOTAL     ACCESS:   13266369  HIT:   13159421  MISS:     106948  HIT %:    99.1938  MISS %:   0.806159   MPKI: 2.13896
DTLB LOAD TRANSLATION ACCESS:   13266369  HIT:   13159421  MISS:     106948  HIT %:    99.1938  MISS %:   0.806159   MPKI: 2.13896
DTLB PREFETCH  REQUESTED:          0  ISSUED:          0  USEFUL:          0  USELESS:          0
DTLB USEFUL LOAD PREFETCHES:          0 PREFETCH ISSUED TO LOWER LEVEL:          0  ACCURACY: -nan
DTLB TIMELY PREFETCHES:          0 LATE PREFETCHES: 0 DROPPED PREFETCHES: 0
DTLB PREFETCHES SAME FILL-ORIGIN LEVEL: 0 DIFFERENT FILL-ORIGIN LEVEL: 0
DTLB AVERAGE MISS LATENCY: 38.1938 cycles
DTLB RQ	ACCESS:   23542006	FORWARD:          0	MERGED:   10262805	TO_CACHE:   13279201

STLB TOTAL     ACCESS:    3972888  HIT:    3938440  MISS:      34448  HIT %:    99.1329  MISS %:   0.867077   MPKI: 0.68896
STLB LOAD TRANSLATION ACCESS:     106948  HIT:      72508  MISS:      34440  HIT %:    67.7974  MISS %:    32.2026   MPKI: 0.6888
STLB TRANSLATION FROM L1D PREFETCHER ACCESS:    3865940  HIT:    3865932  MISS:          8  HIT %:    99.9998  MISS %: 0.000206935   MPKI: 0.00016
STLB PREFETCH  REQUESTED:          0  ISSUED:          0  USEFUL:          4  USELESS:          4
STLB USEFUL LOAD PREFETCHES:          4 PREFETCH ISSUED TO LOWER LEVEL:          0  ACCURACY: inf
STLB TIMELY PREFETCHES:          4 LATE PREFETCHES: 0 DROPPED PREFETCHES: 0
STLB PREFETCHES SAME FILL-ORIGIN LEVEL: 0 DIFFERENT FILL-ORIGIN LEVEL: 0
STLB AVERAGE MISS LATENCY: 90.67 cycles
STLB RQ	ACCESS:    6340182	FORWARD:          0	MERGED:    2367294	TO_CACHE:    3972888

STLB Hit, L1D data hit: 0
STLB Hit, L2C data hit: 0
STLB Hit, LLC data hit: 0
STLB Hit, LLC data miss: 0
STLB STLB hints to L2: 0
L1D TOTAL     ACCESS:   29076340  HIT:   27146732  MISS:    1929608  HIT %:    93.3636  MISS %:    6.63635   MPKI: 38.5922
L1D LOAD      ACCESS:    8988451  HIT:    8202827  MISS:     785624  HIT %:    91.2596  MISS %:    8.74037   MPKI: 15.7125
L1D RFO       ACCESS:   14125790  HIT:   14024311  MISS:     101479  HIT %:    99.2816  MISS %:   0.718395   MPKI: 2.02958
L1D PREFETCH  ACCESS:    5962099  HIT:    4919594  MISS:    1042505  HIT %:    82.5145  MISS %:    17.4855   MPKI: 20.8501
L1D PREFETCH  REQUESTED:   12466594  ISSUED:   12466473  USEFUL:     343832  USELESS:     698804
L1D USEFUL LOAD PREFETCHES:     343832 PREFETCH ISSUED TO LOWER LEVEL:    1245255  ACCURACY: 27.6114
L1D TIMELY PREFETCHES:     343832 LATE PREFETCHES: 201046 DROPPED PREFETCHES: 0
L1D PREFETCHES SAME FILL-ORIGIN LEVEL: 1245255 DIFFERENT FILL-ORIGIN LEVEL: 0
L1D AVERAGE MISS LATENCY: 7.29179e+06 cycles
L1D RQ	ACCESS:   15557971	FORWARD:          0	MERGED:    6471524	TO_CACHE:    9082169
L1D WQ	ACCESS:   14570723	FORWARD:       4283	MERGED:     110886	TO_CACHE:   14459837
L1D PQ	ACCESS:    6233239	FORWARD:          0	MERGED:          0	TO_CACHE:    6233234

L1D UNIQUE REGIONS ACCESSED: 0
L1D REGIONS CONFLICTS: 0
L1D Cross Page Prefetch Requests: 0
L1D Same Page Prefetch Requests: 7430884
L1D ROI Sum of L1D PQ occupancy: 82605435
L1D PREFETCHES PUSHED FROM L2C: 0
L1I TOTAL     ACCESS:   10693364  HIT:   10693364  MISS:          0  HIT %:        100  MISS %:          0   MPKI: 0
L1I LOAD      ACCESS:   10693364  HIT:   10693364  MISS:          0  HIT %:        100  MISS %:          0   MPKI: 0
L1I PREFETCH  REQUESTED:          0  ISSUED:          0  USEFUL:          0  USELESS:          0
L1I USEFUL LOAD PREFETCHES:          0 PREFETCH ISSUED TO LOWER LEVEL:          0  ACCURACY: -nan
L1I TIMELY PREFETCHES:          0 LATE PREFETCHES: 0 DROPPED PREFETCHES: 0
L1I PREFETCHES SAME FILL-ORIGIN LEVEL: 0 DIFFERENT FILL-ORIGIN LEVEL: 0
L1I AVERAGE MISS LATENCY: -nan cycles
L1I RQ	ACCESS:   14487980	FORWARD:          0	MERGED:    3794615	TO_CACHE:   10693365

BTB TOTAL     ACCESS:    4772229  HIT:    4772195  MISS:         34  HIT %:    99.9993  MISS %: 0.000712455   MPKI: 0.00068
BTB BRANCH_DIRECT_JUMP	ACCESS:     215829  HIT:     215823  MISS:          6
BTB BRANCH_INDIRECT	ACCESS:          0  HIT:          0  MISS:          0
BTB BRANCH_CONDITIONAL	ACCESS:    4556360  HIT:    4556336  MISS:         24
BTB BRANCH_DIRECT_CALL	ACCESS:         20  HIT:         18  MISS:          2
BTB BRANCH_INDIRECT_CALL	ACCESS:          0  HIT:          0  MISS:          0
BTB BRANCH_RETURN	ACCESS:         20  HIT:         18  MISS:          2
BTB BRANCH_OTHER ACCESS:          0  HIT:          0  MISS:          0

L2C TOTAL     ACCESS:    2564504  HIT:     874088  MISS:    1690416  HIT %:    34.0841  MISS %:    65.9159   MPKI: 33.8083
L2C LOAD      ACCESS:     584567  HIT:      41941  MISS:     542626  HIT %:    7.17471  MISS %:    92.8253   MPKI: 10.8525
L2C DATA LOAD MPKI: 10.8525
L2C INSTRUCTION LOAD MPKI: 0
L2C RFO       ACCESS:      99778  HIT:       1894  MISS:      97884  HIT %:    1.89821  MISS %:    98.1018   MPKI: 1.95768
L2C PREFETCH  ACCESS:    1518254  HIT:     474455  MISS:    1043799  HIT %:      31.25  MISS %:      68.75   MPKI: 20.876
L2C DATA PREFETCH MPKI: 20.876
L2C INSTRUCTION PREFETCH MPKI: 0
L2C WRITEBACK ACCESS:     327374  HIT:     326349  MISS:       1025  HIT %:    99.6869  MISS %:   0.313098   MPKI: 0.0205
L2C LOAD TRANSLATION ACCESS:      34523  HIT:      29448  MISS:       5075  HIT %:    85.2997  MISS %:    14.7003   MPKI: 0.1015
L2C TRANSLATION FROM L1D PREFETCHER ACCESS:          8  HIT:          1  MISS:          7  HIT %:       12.5  MISS %:       87.5   MPKI: 0.00014
L2C PREFETCH  REQUESTED:     354912  ISSUED:     354912  USEFUL:      18973  USELESS:    1024276
L2C USEFUL LOAD PREFETCHES:      18973 PREFETCH ISSUED TO LOWER LEVEL:    1043914  ACCURACY: 1.81749
L2C TIMELY PREFETCHES:      18973 LATE PREFETCHES: 109 DROPPED PREFETCHES: 0
L2C PREFETCHES SAME FILL-ORIGIN LEVEL: 129205 DIFFERENT FILL-ORIGIN LEVEL: 0
L2C AVERAGE MISS LATENCY: 217.816 cycles
L2C RQ	ACCESS:     718892	FORWARD:          0	MERGED:          0	TO_CACHE:     718878
L2C WQ	ACCESS:     327374	FORWARD:         27	MERGED:          0	TO_CACHE:     327374
L2C PQ	ACCESS:    1600167	FORWARD:          0	MERGED:      14653	TO_CACHE:    1585501

L2C Instructions Evicting Data 0
L2C Translations Evicting Data 5077
L2C Data Evicting Data 1679236
L2C Instructions Evicting Instructions 0
L2C Translations Evicting Instructions 0
L2C Data Evicting Instructions 0
L2C Instructions Evicting Translations 0
L2C Translations Evicting Translations 5
L2C Data Evicting Translations 5073
L2C Dense regions hint from L2: 0
PSCL5 TOTAL     ACCESS:      34448  HIT:      34448  MISS:          0  HIT %:        100  MISS %:          0   MPKI: 0
PSCL5 LOAD TRANSLATION ACCESS:      34440  HIT:      34440  MISS:          0  HIT %:        100  MISS %:          0   MPKI: 0
PSCL5 TRANSLATION FROM L1D PREFETCHER ACCESS:          8  HIT:          8  MISS:          0  HIT %:        100  MISS %:          0   MPKI: 0
PSCL5 PREFETCH  REQUESTED:          0  ISSUED:          0  USEFUL:          0  USELESS:          0
PSCL5 USEFUL LOAD PREFETCHES:          0 PREFETCH ISSUED TO LOWER LEVEL:          0  ACCURACY: -nan
PSCL5 TIMELY PREFETCHES:          0 LATE PREFETCHES: 0 DROPPED PREFETCHES: 0
PSCL5 PREFETCHES SAME FILL-ORIGIN LEVEL: 0 DIFFERENT FILL-ORIGIN LEVEL: 0

PSCL4 TOTAL     ACCESS:      34448  HIT:      34448  MISS:          0  HIT %:        100  MISS %:          0   MPKI: 0
PSCL4 LOAD TRANSLATION ACCESS:      34440  HIT:      34440  MISS:          0  HIT %:        100  MISS %:          0   MPKI: 0
PSCL4 TRANSLATION FROM L1D PREFETCHER ACCESS:          8  HIT:          8  MISS:          0  HIT %:        100  MISS %:          0   MPKI: 0
PSCL4 PREFETCH  REQUESTED:          0  ISSUED:          0  USEFUL:          0  USELESS:          0
PSCL4 USEFUL LOAD PREFETCHES:          0 PREFETCH ISSUED TO LOWER LEVEL:          0  ACCURACY: -nan
PSCL4 TIMELY PREFETCHES:          0 LATE PREFETCHES: 0 DROPPED PREFETCHES: 0
PSCL4 PREFETCHES SAME FILL-ORIGIN LEVEL: 0 DIFFERENT FILL-ORIGIN LEVEL: 0

PSCL3 TOTAL     ACCESS:      34448  HIT:      34448  MISS:          0  HIT %:        100  MISS %:          0   MPKI: 0
PSCL3 LOAD TRANSLATION ACCESS:      34440  HIT:      34440  MISS:          0  HIT %:        100  MISS %:          0   MPKI: 0
PSCL3 TRANSLATION FROM L1D PREFETCHER ACCESS:          8  HIT:          8  MISS:          0  HIT %:        100  MISS %:          0   MPKI: 0
PSCL3 PREFETCH  REQUESTED:          0  ISSUED:          0  USEFUL:          0  USELESS:          0
PSCL3 USEFUL LOAD PREFETCHES:          0 PREFETCH ISSUED TO LOWER LEVEL:          0  ACCURACY: -nan
PSCL3 TIMELY PREFETCHES:          0 LATE PREFETCHES: 0 DROPPED PREFETCHES: 0
PSCL3 PREFETCHES SAME FILL-ORIGIN LEVEL: 0 DIFFERENT FILL-ORIGIN LEVEL: 0

PSCL2 TOTAL     ACCESS:      34448  HIT:      34334  MISS:        114  HIT %:    99.6691  MISS %:   0.330934   MPKI: 0.00228
PSCL2 LOAD TRANSLATION ACCESS:      34440  HIT:      34326  MISS:        114  HIT %:     99.669  MISS %:    0.33101   MPKI: 0.00228
PSCL2 TRANSLATION FROM L1D PREFETCHER ACCESS:          8  HIT:          8  MISS:          0  HIT %:        100  MISS %:          0   MPKI: 0
PSCL2 PREFETCH  REQUESTED:          0  ISSUED:          0  USEFUL:          0  USELESS:          0
PSCL2 USEFUL LOAD PREFETCHES:          0 PREFETCH ISSUED TO LOWER LEVEL:          0  ACCURACY: -nan
PSCL2 TIMELY PREFETCHES:          0 LATE PREFETCHES: 0 DROPPED PREFETCHES: 0
PSCL2 PREFETCHES SAME FILL-ORIGIN LEVEL: 0 DIFFERENT FILL-ORIGIN LEVEL: 0

LLC TOTAL     ACCESS:    1987781  HIT:     316727  MISS:    1671054  HIT %:    15.9337  MISS %:    84.0663   MPKI: 33.4211
LLC LOAD      ACCESS:     542517  HIT:       2048  MISS:     540469  HIT %:     0.3775  MISS %:    99.6225   MPKI: 10.8094
LLC RFO       ACCESS:      97884  HIT:         54  MISS:      97830  HIT %:  0.0551673  MISS %:    99.9448   MPKI: 1.9566
LLC PREFETCH  ACCESS:    1043908  HIT:      17262  MISS:    1026646  HIT %:    1.65359  MISS %:    98.3464   MPKI: 20.5329
LLC WRITEBACK ACCESS:     298390  HIT:     297107  MISS:       1283  HIT %:      99.57  MISS %:   0.429974   MPKI: 0.02566
LLC LOAD TRANSLATION ACCESS:       5075  HIT:        256  MISS:       4819  HIT %:    5.04433  MISS %:    94.9557   MPKI: 0.09638
LLC TRANSLATION FROM L1D PREFETCHER ACCESS:          7  HIT:          0  MISS:          7  HIT %:          0  MISS %:        100   MPKI: 0.00014
LLC PREFETCH  REQUESTED:          0  ISSUED:          0  USEFUL:       1352  USELESS:    1022224
LLC USEFUL LOAD PREFETCHES:       1352 PREFETCH ISSUED TO LOWER LEVEL:    1026652  ACCURACY: 0.13169
LLC TIMELY PREFETCHES:       1352 LATE PREFETCHES: 0 DROPPED PREFETCHES: 0
LLC PREFETCHES SAME FILL-ORIGIN LEVEL: 0 DIFFERENT FILL-ORIGIN LEVEL: 0
LLC AVERAGE MISS LATENCY: 189.894 cycles
LLC RQ	ACCESS:     645485	FORWARD:          0	MERGED:          0	TO_CACHE:     645485
LLC WQ	ACCESS:     298390	FORWARD:          0	MERGED:          0	TO_CACHE:     298390
LLC PQ	ACCESS:    1043914	FORWARD:          0	MERGED:          0	TO_CACHE:    1043914

LLC Dense regions hint to LLC: 0

RAW hits: 263604
Loads Generated: 15821575
Loads sent to L1D: 15557971
Stores Generated: 14570745
Stores sent to L1D: 14570723
Major fault: 0 Minor fault: 18248
Allocated PAGES: 18248

stream: 
stream:times selected: 6996884
stream:pref_filled: 566195
stream:pref_useful: 117504
stream:pref_late: 77435
stream:misses: 113629
stream:misses_by_poll: 0

CS: 
CS:times selected: 209695
CS:pref_filled: 134550
CS:pref_useful: 133705
CS:pref_late: 755
CS:misses: 1404
CS:misses_by_poll: 152

CPLX: 
CPLX:times selected: 6728011
CPLX:pref_filled: 513140
CPLX:pref_useful: 151256
CPLX:pref_late: 138815
CPLX:misses: 786094
CPLX:misses_by_poll: 3699

NL_L1: 
NL:times selected: 75741
NL:pref_filled: 7815
NL:pref_useful: 3953
NL:pref_late: 953
NL:misses: 16602
NL:misses_by_poll: 2

total selections: 14010331
total_filled: 1042505
total_useful: 343832
total_late: 221393
total_polluted: 3853
total_misses_after_warmup: 879343
conflicts: 19209
Degree Incremented Times: 43001
Degree Decremented Times: 118068

L1 IP Table Write Accesses: 9001495
L1 IP Table Read Accesses: 8982286
L1 RST Write Accesses: 5809841
L1 RST Read Accesses: 11619682
L1 CSPT Write Accesses: 5809841
L1 CSPT Read Accesses: 11391998
L1 RR Filter Tag Write Accesses: 6233360
L1 RR Filter Tag Read Accesses: 280710726
L1 IP Table Tag Write Accesses: 9082170
L1 IP Table Tag Read Accesses: 9082170
L1 RST Tag Write Accesses: 0
L1 RST Tag Read Accesses: 57380418
L1 RR Filter Write Accesses: 0
L1 RR Filter Read Accesses: 9202545
test: 3967369
L2 IP Table Read Accesses: 3548447
L2 IP Table Write Accesses: 3019284
L2 IP Table Tag Read Accesses: 1801840
L2 IP Table Tag Write Accesses: 1801840

DRAM Statistics
 CHANNEL 0
 RQ ROW_BUFFER_HIT:     826425  ROW_BUFFER_MISS:     843336
 DBUS_CONGESTED:    1139601
 WQ ROW_BUFFER_HIT:      91934  ROW_BUFFER_MISS:     212568  FULL:          0

 AVG_CONGESTED_CYCLE: 13
 All warmup complete: 2
Channel 0 Bank busy for read cycles: 0
Channel 0 Bank busy for write cycles: 0
Channel 0
Rank 0
0banks busy for read cycles: 39333113
0banks busy for write cycles: 50369
1banks busy for read cycles: 29240407
1banks busy for write cycles: 7150311
2banks busy for read cycles: 17473918
2banks busy for write cycles: 4935230
3banks busy for read cycles: 9833004
3banks busy for write cycles: 3638309
4banks busy for read cycles: 4813735
4banks busy for write cycles: 2523915
5banks busy for read cycles: 3354736
5banks busy for write cycles: 1604837
6banks busy for read cycles: 3322274
6banks busy for write cycles: 990447
7banks busy for read cycles: 3627886
7banks busy for write cycles: 731380
8banks busy for read cycles: 3293559
8banks busy for write cycles: 3353963

CPU 0 Branch Prediction Accuracy: 98.133% MPKI: 1.81274 Average ROB Occupancy at Mispredict: 211.367
Branch types
NOT_BRANCH: 45145344 90.2907%
BRANCH_DIRECT_JUMP: 215829 0.431658%
BRANCH_INDIRECT: 0 0%
BRANCH_CONDITIONAL: 4638791 9.27758%
BRANCH_DIRECT_CALL: 20 4e-05%
BRANCH_INDIRECT_CALL: 0 0%
BRANCH_RETURN: 20 4e-05%
BRANCH_OTHER: 0 0%

@sumon_overall_L1D    343832    201046    698804   1042505  12466473  12466594
@Sumon_Early_by_class_L1D     93661    120044    126786       908
@Sumon_Late_by_class_L1D     72112       739    124203       908

@Sumon_Early_by_cycle_L1D     68263     41981     30530     30547     17128     40625     15710     21493     36423     26112     11653      3367
@Sumon_Late_by_cycle_L1D     57847     93142     42775      6452       683       146         0         0         0         0         0         0
@Sumon_Early_stream_L1D     43001     19634      5902       643        85      6163      4457      4417      4128      3386      1060       785
@Sumon_Early_CS_L1D      6092      4601     12764     26895     16001     21394      4885      9031     17980       399         1         1
@Sumon_Early_CPLX_L1D     17460     16956     11638      2958      1034     12994      6307      7922     14172     22229     10559      2557
@Sumon_Late_stream_L1D     27909     34943      7240      1809       196        15         0         0         0         0         0         0
@Sumon_Late_CS_L1D       381       282        61        11         4         0         0         0         0         0         0         0
@Sumon_Late_CPLX_L1D     25903     57637     35423      4626       483       131         0         0         0         0         0         0
@sumon_overall_L2C     18973       109   1024276   1043806    354912    354912
@Sumon_Early_by_class_L2C      2349       660     13541         0
@Sumon_Late_by_class_L2C         0        94         0         0

@Sumon_Early_by_cycle_L2C        42        58        99       116        98       222       124       221       404      1581      3539     12469
@Sumon_Late_by_cycle_L2C        36        50        20         2         1         0         0         0         0         0         0         0
@Sumon_Early_stream_L2C         0         0         0         0         0         0         0         1        30       295       535      1488
@Sumon_Early_CS_L2C        41        58        99       116        98       137        49        11        24        26         0         1
@Sumon_Early_CPLX_L2C         0         0         0         0         0         0         0         1        23       644      2655     10218
@Sumon_Late_stream_L2C         0         0         0         0         0         0         0         0         0         0         0         0
@Sumon_Late_CS_L2C        31        42        18         2         1         0         0         0         0         0         0         0
@Sumon_Late_CPLX_L2C         0         0         0         0         0         0         0         0         0         0         0         0
DRAM PAGES: 1048576
Allocated PAGES: 18248
