
*** ChampSim Multicore Out-of-Order Simulator ***

Warmup Instructions: 10000000
Simulation Instructions: 50000000
Number of CPUs: 1
LLC sets: 2048
LLC ways: 16
Off-chip DRAM Size: 4096 MB Channels: 1 Width: 64-bit Data Rate: 1600 MT/s
CPU 0 runs traces/SPEC2017/619.lbm_s-4268B.champsimtrace.xz
.xz
CPU 0 Bimodal branch predictor
BTB has LRU replacement policy
ITLB has LRU replacement policy
DTLB has LRU replacement policy
STLB has LRU replacement policy
L1I has LRU replacement policy
IP Table Entries: 256
L1D has LRU replacement policy
IP_Table L2 entries: 256
L2C has LRU replacement policy
LLC has LRU replacement policy
Heartbeat CPU 0 instructions: 10000000 cycles: 2905130 heartbeat IPC: 3.44219 cumulative IPC: 3.44219 (Simulation time: 0 hr 10 min 13 sec) 

Warmup complete CPU 0 instructions: 10000004 cycles: 2905131 (Simulation time: 0 hr 10 min 13 sec) 

Heartbeat CPU 0 instructions: 20000001 cycles: 27507410 heartbeat IPC: 0.406466 cumulative IPC: 0.406466 (Simulation time: 0 hr 38 min 2 sec) 
Heartbeat CPU 0 instructions: 30000001 cycles: 51994925 heartbeat IPC: 0.408371 cumulative IPC: 0.407417 (Simulation time: 1 hr 2 min 7 sec) 
Heartbeat CPU 0 instructions: 40000002 cycles: 76897899 heartbeat IPC: 0.401559 cumulative IPC: 0.405445 (Simulation time: 1 hr 12 min 0 sec) 
Heartbeat CPU 0 instructions: 50000001 cycles: 101997815 heartbeat IPC: 0.398408 cumulative IPC: 0.403662 (Simulation time: 1 hr 17 min 4 sec) 
Heartbeat CPU 0 instructions: 60000001 cycles: 127679610 heartbeat IPC: 0.389381 cumulative IPC: 0.400723 (Simulation time: 1 hr 19 min 46 sec) 
Finished CPU 0 instructions: 50000001 cycles: 124774480 cumulative IPC: 0.400723 (Simulation time: 1 hr 19 min 46 sec) 

ChampSim completed all CPUs

Region of Interest Statistics

CPU 0 cumulative IPC: 0.400723 instructions: 50000001 cycles: 124774480
ITLB TOTAL     ACCESS:    6756156  HIT:    6756156  MISS:          0  HIT %:        100  MISS %:          0   MPKI: 0
ITLB LOAD TRANSLATION ACCESS:    6756156  HIT:    6756156  MISS:          0  HIT %:        100  MISS %:          0   MPKI: 0
ITLB PREFETCH  REQUESTED:          0  ISSUED:          0  USEFUL:          0  USELESS:          0
ITLB USEFUL LOAD PREFETCHES:          0 PREFETCH ISSUED TO LOWER LEVEL:          0  ACCURACY: -nan
ITLB TIMELY PREFETCHES:          0 LATE PREFETCHES: 0 DROPPED PREFETCHES: 0
ITLB PREFETCHES SAME FILL-ORIGIN LEVEL: 0 DIFFERENT FILL-ORIGIN LEVEL: 0
ITLB AVERAGE MISS LATENCY: -nan cycles
ITLB RQ	ACCESS:    8720325	FORWARD:          0	MERGED:    1964170	TO_CACHE:    6756155

DTLB TOTAL     ACCESS:    8447302  HIT:    8379266  MISS:      68036  HIT %:    99.1946  MISS %:   0.805417   MPKI: 1.36072
DTLB LOAD TRANSLATION ACCESS:    8447302  HIT:    8379266  MISS:      68036  HIT %:    99.1946  MISS %:   0.805417   MPKI: 1.36072
DTLB PREFETCH  REQUESTED:          0  ISSUED:          0  USEFUL:          0  USELESS:          0
DTLB USEFUL LOAD PREFETCHES:          0 PREFETCH ISSUED TO LOWER LEVEL:          0  ACCURACY: -nan
DTLB TIMELY PREFETCHES:          0 LATE PREFETCHES: 0 DROPPED PREFETCHES: 0
DTLB PREFETCHES SAME FILL-ORIGIN LEVEL: 0 DIFFERENT FILL-ORIGIN LEVEL: 0
DTLB AVERAGE MISS LATENCY: 137.218 cycles
DTLB RQ	ACCESS:   11869324	FORWARD:          0	MERGED:    3391838	TO_CACHE:    8477486

STLB TOTAL     ACCESS:     428891  HIT:     391976  MISS:      36915  HIT %:    91.3929  MISS %:    8.60708   MPKI: 0.7383
STLB LOAD TRANSLATION ACCESS:      68036  HIT:      31121  MISS:      36915  HIT %:     45.742  MISS %:     54.258   MPKI: 0.7383
STLB TRANSLATION FROM L1D PREFETCHER ACCESS:     360855  HIT:     360855  MISS:          0  HIT %:        100  MISS %:          0   MPKI: 0
STLB PREFETCH  REQUESTED:          0  ISSUED:          0  USEFUL:          0  USELESS:          0
STLB USEFUL LOAD PREFETCHES:          0 PREFETCH ISSUED TO LOWER LEVEL:          0  ACCURACY: -nan
STLB TIMELY PREFETCHES:          0 LATE PREFETCHES: 0 DROPPED PREFETCHES: 0
STLB PREFETCHES SAME FILL-ORIGIN LEVEL: 0 DIFFERENT FILL-ORIGIN LEVEL: 0
STLB AVERAGE MISS LATENCY: 233.549 cycles
STLB RQ	ACCESS:     670202	FORWARD:          0	MERGED:     241311	TO_CACHE:     428891

STLB Hit, L1D data hit: 0
STLB Hit, L2C data hit: 0
STLB Hit, LLC data hit: 0
STLB Hit, LLC data miss: 0
STLB STLB hints to L2: 0
L1D TOTAL     ACCESS:   12182256  HIT:    8284889  MISS:    3897367  HIT %:    68.0078  MISS %:    31.9922   MPKI: 77.9473
L1D LOAD      ACCESS:    3830452  HIT:    3602621  MISS:     227831  HIT %:    94.0521  MISS %:    5.94789   MPKI: 4.55662
L1D RFO       ACCESS:    7882368  HIT:    4575620  MISS:    3306748  HIT %:    58.0488  MISS %:    41.9512   MPKI: 66.135
L1D PREFETCH  ACCESS:     469436  HIT:     106648  MISS:     362788  HIT %:    22.7183  MISS %:    77.2817   MPKI: 7.25576
L1D PREFETCH  REQUESTED:    1232344  ISSUED:    1204354  USEFUL:     362784  USELESS:          0
L1D USEFUL LOAD PREFETCHES:     362784 PREFETCH ISSUED TO LOWER LEVEL:     410805  ACCURACY: 88.3105
L1D TIMELY PREFETCHES:     362784 LATE PREFETCHES: 47878 DROPPED PREFETCHES: 0
L1D PREFETCHES SAME FILL-ORIGIN LEVEL: 410805 DIFFERENT FILL-ORIGIN LEVEL: 0
L1D AVERAGE MISS LATENCY: 807627 cycles
L1D RQ	ACCESS:   12341147	FORWARD:          0	MERGED:    5837279	TO_CACHE:    3882345
L1D WQ	ACCESS:    9189920	FORWARD:    2621523	MERGED:    1202941	TO_CACHE:    7986979
L1D PQ	ACCESS:     602188	FORWARD:          0	MERGED:         22	TO_CACHE:     602166

L1D UNIQUE REGIONS ACCESSED: 0
L1D REGIONS CONFLICTS: 0
L1D Cross Page Prefetch Requests: 0
L1D Same Page Prefetch Requests: 729096
L1D ROI Sum of L1D PQ occupancy: 818365603
L1D PREFETCHES PUSHED FROM L2C: 0
L1I TOTAL     ACCESS:    8720325  HIT:    8720325  MISS:          0  HIT %:        100  MISS %:          0   MPKI: 0
L1I LOAD      ACCESS:    8720325  HIT:    8720325  MISS:          0  HIT %:        100  MISS %:          0   MPKI: 0
L1I PREFETCH  REQUESTED:          0  ISSUED:          0  USEFUL:          0  USELESS:          0
L1I USEFUL LOAD PREFETCHES:          0 PREFETCH ISSUED TO LOWER LEVEL:          0  ACCURACY: -nan
L1I TIMELY PREFETCHES:          0 LATE PREFETCHES: 0 DROPPED PREFETCHES: 0
L1I PREFETCHES SAME FILL-ORIGIN LEVEL: 0 DIFFERENT FILL-ORIGIN LEVEL: 0
L1I AVERAGE MISS LATENCY: -nan cycles
L1I RQ	ACCESS:   12501842	FORWARD:          0	MERGED:    3781517	TO_CACHE:    8720325

BTB TOTAL     ACCESS:     892946  HIT:     892940  MISS:          6  HIT %:    99.9993  MISS %: 0.000671933   MPKI: 0.00012
BTB BRANCH_DIRECT_JUMP	ACCESS:     143974  HIT:     143973  MISS:          1
BTB BRANCH_INDIRECT	ACCESS:          0  HIT:          0  MISS:          0
BTB BRANCH_CONDITIONAL	ACCESS:     748972  HIT:     748967  MISS:          5
BTB BRANCH_DIRECT_CALL	ACCESS:          0  HIT:          0  MISS:          0
BTB BRANCH_INDIRECT_CALL	ACCESS:          0  HIT:          0  MISS:          0
BTB BRANCH_RETURN	ACCESS:          0  HIT:          0  MISS:          0
BTB BRANCH_OTHER ACCESS:          0  HIT:          0  MISS:          0

L2C TOTAL     ACCESS:    7773179  HIT:    5377710  MISS:    2395469  HIT %:    69.1829  MISS %:    30.8171   MPKI: 47.9094
L2C LOAD      ACCESS:     179953  HIT:      94016  MISS:      85937  HIT %:    52.2448  MISS %:    47.7552   MPKI: 1.71874
L2C DATA LOAD MPKI: 1.71874
L2C INSTRUCTION LOAD MPKI: 0
L2C RFO       ACCESS:    3306748  HIT:    1506622  MISS:    1800126  HIT %:     45.562  MISS %:     54.438   MPKI: 36.0025
L2C PREFETCH  ACCESS:     942808  HIT:     438203  MISS:     504605  HIT %:    46.4785  MISS %:    53.5215   MPKI: 10.0921
L2C DATA PREFETCH MPKI: 10.0921
L2C INSTRUCTION PREFETCH MPKI: 0
L2C WRITEBACK ACCESS:    3306753  HIT:    3306615  MISS:        138  HIT %:    99.9958  MISS %: 0.00417328   MPKI: 0.00276
L2C LOAD TRANSLATION ACCESS:      36917  HIT:      32254  MISS:       4663  HIT %:     87.369  MISS %:     12.631   MPKI: 0.09326
L2C PREFETCH  REQUESTED:     860061  ISSUED:     860047  USEFUL:      93939  USELESS:     410715
L2C USEFUL LOAD PREFETCHES:      93939 PREFETCH ISSUED TO LOWER LEVEL:     521854  ACCURACY: 18.001
L2C TIMELY PREFETCHES:      93939 LATE PREFETCHES: 17249 DROPPED PREFETCHES: 0
L2C PREFETCHES SAME FILL-ORIGIN LEVEL: 343309 DIFFERENT FILL-ORIGIN LEVEL: 0
L2C AVERAGE MISS LATENCY: 858.214 cycles
L2C RQ	ACCESS:    3523624	FORWARD:          0	MERGED:          0	TO_CACHE:    3523624
L2C WQ	ACCESS:    3306753	FORWARD:          0	MERGED:          0	TO_CACHE:    3306753
L2C PQ	ACCESS:    1270713	FORWARD:          0	MERGED:     120692	TO_CACHE:    1150021

L2C Instructions Evicting Data 0
L2C Translations Evicting Data 4632
L2C Data Evicting Data 2386039
L2C Instructions Evicting Instructions 0
L2C Translations Evicting Instructions 0
L2C Data Evicting Instructions 0
L2C Instructions Evicting Translations 0
L2C Translations Evicting Translations 31
L2C Data Evicting Translations 4629
L2C Dense regions hint from L2: 0
PSCL5 TOTAL     ACCESS:      36915  HIT:      36915  MISS:          0  HIT %:        100  MISS %:          0   MPKI: 0
PSCL5 LOAD TRANSLATION ACCESS:      36915  HIT:      36915  MISS:          0  HIT %:        100  MISS %:          0   MPKI: 0
PSCL5 PREFETCH  REQUESTED:          0  ISSUED:          0  USEFUL:          0  USELESS:          0
PSCL5 USEFUL LOAD PREFETCHES:          0 PREFETCH ISSUED TO LOWER LEVEL:          0  ACCURACY: -nan
PSCL5 TIMELY PREFETCHES:          0 LATE PREFETCHES: 0 DROPPED PREFETCHES: 0
PSCL5 PREFETCHES SAME FILL-ORIGIN LEVEL: 0 DIFFERENT FILL-ORIGIN LEVEL: 0

PSCL4 TOTAL     ACCESS:      36915  HIT:      36915  MISS:          0  HIT %:        100  MISS %:          0   MPKI: 0
PSCL4 LOAD TRANSLATION ACCESS:      36915  HIT:      36915  MISS:          0  HIT %:        100  MISS %:          0   MPKI: 0
PSCL4 PREFETCH  REQUESTED:          0  ISSUED:          0  USEFUL:          0  USELESS:          0
PSCL4 USEFUL LOAD PREFETCHES:          0 PREFETCH ISSUED TO LOWER LEVEL:          0  ACCURACY: -nan
PSCL4 TIMELY PREFETCHES:          0 LATE PREFETCHES: 0 DROPPED PREFETCHES: 0
PSCL4 PREFETCHES SAME FILL-ORIGIN LEVEL: 0 DIFFERENT FILL-ORIGIN LEVEL: 0

PSCL3 TOTAL     ACCESS:      36915  HIT:      36915  MISS:          0  HIT %:        100  MISS %:          0   MPKI: 0
PSCL3 LOAD TRANSLATION ACCESS:      36915  HIT:      36915  MISS:          0  HIT %:        100  MISS %:          0   MPKI: 0
PSCL3 PREFETCH  REQUESTED:          0  ISSUED:          0  USEFUL:          0  USELESS:          0
PSCL3 USEFUL LOAD PREFETCHES:          0 PREFETCH ISSUED TO LOWER LEVEL:          0  ACCURACY: -nan
PSCL3 TIMELY PREFETCHES:          0 LATE PREFETCHES: 0 DROPPED PREFETCHES: 0
PSCL3 PREFETCHES SAME FILL-ORIGIN LEVEL: 0 DIFFERENT FILL-ORIGIN LEVEL: 0

PSCL2 TOTAL     ACCESS:      36915  HIT:      36877  MISS:         38  HIT %:    99.8971  MISS %:   0.102939   MPKI: 0.00076
PSCL2 LOAD TRANSLATION ACCESS:      36915  HIT:      36877  MISS:         38  HIT %:    99.8971  MISS %:   0.102939   MPKI: 0.00076
PSCL2 PREFETCH  REQUESTED:          0  ISSUED:          0  USEFUL:          0  USELESS:          0
PSCL2 USEFUL LOAD PREFETCHES:          0 PREFETCH ISSUED TO LOWER LEVEL:          0  ACCURACY: -nan
PSCL2 TIMELY PREFETCHES:          0 LATE PREFETCHES: 0 DROPPED PREFETCHES: 0
PSCL2 PREFETCHES SAME FILL-ORIGIN LEVEL: 0 DIFFERENT FILL-ORIGIN LEVEL: 0

LLC TOTAL     ACCESS:    4196162  HIT:    1829558  MISS:    2366604  HIT %:    43.6007  MISS %:    56.3993   MPKI: 47.3321
LLC LOAD      ACCESS:      68688  HIT:         42  MISS:      68646  HIT %:  0.0611461  MISS %:    99.9389   MPKI: 1.37292
LLC RFO       ACCESS:    1800119  HIT:      28778  MISS:    1771341  HIT %:    1.59867  MISS %:    98.4013   MPKI: 35.4268
LLC PREFETCH  ACCESS:     521854  HIT:          0  MISS:     521854  HIT %:          0  MISS %:        100   MPKI: 10.4371
LLC WRITEBACK ACCESS:    1800838  HIT:    1800738  MISS:        100  HIT %:    99.9944  MISS %: 0.00555297   MPKI: 0.002
LLC LOAD TRANSLATION ACCESS:       4663  HIT:          0  MISS:       4663  HIT %:          0  MISS %:        100   MPKI: 0.09326
LLC PREFETCH  REQUESTED:          0  ISSUED:          0  USEFUL:          0  USELESS:     518672
LLC USEFUL LOAD PREFETCHES:          0 PREFETCH ISSUED TO LOWER LEVEL:     521854  ACCURACY: 0
LLC TIMELY PREFETCHES:          0 LATE PREFETCHES: 0 DROPPED PREFETCHES: 0
LLC PREFETCHES SAME FILL-ORIGIN LEVEL: 0 DIFFERENT FILL-ORIGIN LEVEL: 0
LLC AVERAGE MISS LATENCY: 841.273 cycles
LLC RQ	ACCESS:    1873483	FORWARD:          0	MERGED:          0	TO_CACHE:    1873475
LLC WQ	ACCESS:    1800839	FORWARD:          8	MERGED:          0	TO_CACHE:    1800839
LLC PQ	ACCESS:     521854	FORWARD:          0	MERGED:          0	TO_CACHE:     521854

LLC Dense regions hint to LLC: 0

RAW hits: 680955
Loads Generated: 13022104
Loads sent to L1D: 12341147
Stores Generated: 9189899
Stores sent to L1D: 9189920
Major fault: 0 Minor fault: 25334
Allocated PAGES: 25334

stream: 
stream:times selected: 2144268
stream:pref_filled: 82020
stream:pref_useful: 82020
stream:pref_late: 16771
stream:misses: 33566
stream:misses_by_poll: 0

CS: 
CS:times selected: 388656
CS:pref_filled: 205175
CS:pref_useful: 205171
CS:pref_late: 12241
CS:misses: 78813
CS:misses_by_poll: 1384

CPLX: 
CPLX:times selected: 1753178
CPLX:pref_filled: 186950
CPLX:pref_useful: 186942
CPLX:pref_late: 20255
CPLX:misses: 162827
CPLX:misses_by_poll: 978

NL_L1: 
NL:times selected: 1048
NL:pref_filled: 34
NL:pref_useful: 34
NL:pref_late: 23
NL:misses: 149
NL:misses_by_poll: 0

total selections: 4287150
total_filled: 362788
total_useful: 362784
total_late: 50304
total_polluted: 2362
total_misses_after_warmup: 279722
conflicts: 77894
Degree Incremented Times: 62747
Degree Decremented Times: 0

L1 IP Table Write Accesses: 3518547
L1 IP Table Read Accesses: 3440653
L1 RST Write Accesses: 1749691
L1 RST Read Accesses: 3499382
L1 CSPT Write Accesses: 1749691
L1 CSPT Read Accesses: 5521946
L1 RR Filter Tag Write Accesses: 630178
L1 RR Filter Tag Read Accesses: 285058906
L1 IP Table Tag Write Accesses: 3882343
L1 IP Table Tag Read Accesses: 3882343
L1 RST Tag Write Accesses: 0
L1 RST Tag Read Accesses: 15737557
L1 RR Filter Write Accesses: 0
L1 RR Filter Read Accesses: 12813317
test: 342992
L2 IP Table Read Accesses: 954665
L2 IP Table Write Accesses: 774876
L2 IP Table Tag Read Accesses: 477541
L2 IP Table Tag Write Accesses: 477541

DRAM Statistics
 CHANNEL 0
 RQ ROW_BUFFER_HIT:     278244  ROW_BUFFER_MISS:    2088260
 DBUS_CONGESTED:    3154541
 WQ ROW_BUFFER_HIT:     294958  ROW_BUFFER_MISS:    1481009  FULL:          0

 AVG_CONGESTED_CYCLE: 14
 All warmup complete: 2
Channel 0 Bank busy for read cycles: 0
Channel 0 Bank busy for write cycles: 0
Channel 0
Rank 0
0banks busy for read cycles: 6080
0banks busy for write cycles: 0
1banks busy for read cycles: 544577
1banks busy for write cycles: 186735
2banks busy for read cycles: 643205
2banks busy for write cycles: 186734
3banks busy for read cycles: 998895
3banks busy for write cycles: 186732
4banks busy for read cycles: 1454812
4banks busy for write cycles: 186731
5banks busy for read cycles: 4855283
5banks busy for write cycles: 186731
6banks busy for read cycles: 14608601
6banks busy for write cycles: 186899
7banks busy for read cycles: 23424930
7banks busy for write cycles: 1965692
8banks busy for read cycles: 24873863
8banks busy for write cycles: 50277981

CPU 0 Branch Prediction Accuracy: 94.9708% MPKI: 0.89816 Average ROB Occupancy at Mispredict: 161.274
Branch types
NOT_BRANCH: 49106710 98.2134%
BRANCH_DIRECT_JUMP: 143974 0.287948%
BRANCH_INDIRECT: 0 0%
BRANCH_CONDITIONAL: 748973 1.49795%
BRANCH_DIRECT_CALL: 0 0%
BRANCH_INDIRECT_CALL: 0 0%
BRANCH_RETURN: 0 0%
BRANCH_OTHER: 0 0%

@sumon_overall_L1D    362784     47878         0    362788   1204354   1232344
@Sumon_Early_by_class_L1D     59021    170912    132785        16
@Sumon_Late_by_class_L1D     14861     12165     20017        16

@Sumon_Early_by_cycle_L1D     23744     30208     19692     49753     35128    144446     47896     11452       465         0         0         0
@Sumon_Late_by_cycle_L1D     10359      5324     11196     12842      2001      5993       163         0         0         0         0         0
@Sumon_Early_stream_L1D      6965      9964      6091     13132      8423     14278       168         0         0         0         0         0
@Sumon_Early_CS_L1D      9238     10969      6429     21677     15307     85888     21231       172         1         0         0         0
@Sumon_Early_CPLX_L1D      7533      9268      7165     14936     11389     44256     26494     11280       464         0         0         0
@Sumon_Late_stream_L1D      3066      1476      3646      3984       609      2024        56         0         0         0         0         0
@Sumon_Late_CS_L1D      2781      1361      2464      3114       530      1837        78         0         0         0         0         0
@Sumon_Late_CPLX_L1D      3695      2483      5078      5741       862      2129        29         0         0         0         0         0
@sumon_overall_L2C     93939     17249    410715    504605    860047    860061
@Sumon_Early_by_class_L2C     32073     61833         0         0
@Sumon_Late_by_class_L2C     12415      3869         0         0

@Sumon_Early_by_cycle_L2C      3283      3594      1289     14153      5056     34400     29628      2534         2         0         0         0
@Sumon_Late_by_cycle_L2C      4587      1707       953      6436       721      2782        63         0         0         0         0         0
@Sumon_Early_stream_L2C      2580      2786       910     10664      3003     11468       662         0         0         0         0         0
@Sumon_Early_CS_L2C       703       808       379      3486      2053     22925     28955      2524         0         0         0         0
@Sumon_Early_CPLX_L2C         0         0         0         0         0         0         0         0         0         0         0         0
@Sumon_Late_stream_L2C      2756      1352       728      4968       533      2029        49         0         0         0         0         0
@Sumon_Late_CS_L2C       869       355       225      1467       188       751        14         0         0         0         0         0
@Sumon_Late_CPLX_L2C         0         0         0         0         0         0         0         0         0         0         0         0
DRAM PAGES: 1048576
Allocated PAGES: 25334
