
*** ChampSim Multicore Out-of-Order Simulator ***

Warmup Instructions: 10000000
Simulation Instructions: 50000000
Number of CPUs: 1
LLC sets: 2048
LLC ways: 16
Off-chip DRAM Size: 4096 MB Channels: 1 Width: 64-bit Data Rate: 1600 MT/s
CPU 0 runs traces/SPEC2017/619.lbm_s-2677B.champsimtrace.xz
.xz
CPU 0 Bimodal branch predictor
BTB has LRU replacement policy
ITLB has LRU replacement policy
DTLB has LRU replacement policy
STLB has LRU replacement policy
L1I has LRU replacement policy
IP Table Entries: 256
L1D has LRU replacement policy
IP_Table L2 entries: 256
L2C has LRU replacement policy
LLC has LRU replacement policy
Heartbeat CPU 0 instructions: 10000001 cycles: 2911371 heartbeat IPC: 3.43481 cumulative IPC: 3.43481 (Simulation time: 0 hr 10 min 19 sec) 

Warmup complete CPU 0 instructions: 10000001 cycles: 2911371 (Simulation time: 0 hr 10 min 19 sec) 

Heartbeat CPU 0 instructions: 20000002 cycles: 27174916 heartbeat IPC: 0.412141 cumulative IPC: 0.412141 (Simulation time: 0 hr 37 min 32 sec) 
Heartbeat CPU 0 instructions: 30000001 cycles: 52245337 heartbeat IPC: 0.398876 cumulative IPC: 0.4054 (Simulation time: 1 hr 2 min 4 sec) 
Heartbeat CPU 0 instructions: 40000001 cycles: 76951160 heartbeat IPC: 0.404763 cumulative IPC: 0.405188 (Simulation time: 1 hr 12 min 4 sec) 
Heartbeat CPU 0 instructions: 50000002 cycles: 102293225 heartbeat IPC: 0.394601 cumulative IPC: 0.402488 (Simulation time: 1 hr 17 min 16 sec) 
Heartbeat CPU 0 instructions: 60000001 cycles: 127387043 heartbeat IPC: 0.398504 cumulative IPC: 0.401685 (Simulation time: 1 hr 19 min 50 sec) 
Finished CPU 0 instructions: 50000000 cycles: 124475672 cumulative IPC: 0.401685 (Simulation time: 1 hr 19 min 50 sec) 

ChampSim completed all CPUs

Region of Interest Statistics

CPU 0 cumulative IPC: 0.401685 instructions: 50000000 cycles: 124475672
ITLB TOTAL     ACCESS:    6754917  HIT:    6754917  MISS:          0  HIT %:        100  MISS %:          0   MPKI: 0
ITLB LOAD TRANSLATION ACCESS:    6754917  HIT:    6754917  MISS:          0  HIT %:        100  MISS %:          0   MPKI: 0
ITLB PREFETCH  REQUESTED:          0  ISSUED:          0  USEFUL:          0  USELESS:          0
ITLB USEFUL LOAD PREFETCHES:          0 PREFETCH ISSUED TO LOWER LEVEL:          0  ACCURACY: -nan
ITLB TIMELY PREFETCHES:          0 LATE PREFETCHES: 0 DROPPED PREFETCHES: 0
ITLB PREFETCHES SAME FILL-ORIGIN LEVEL: 0 DIFFERENT FILL-ORIGIN LEVEL: 0
ITLB AVERAGE MISS LATENCY: -nan cycles
ITLB RQ	ACCESS:    8717898	FORWARD:          0	MERGED:    1962982	TO_CACHE:    6754916

DTLB TOTAL     ACCESS:    8488642  HIT:    8420626  MISS:      68016  HIT %:    99.1987  MISS %:   0.801259   MPKI: 1.36032
DTLB LOAD TRANSLATION ACCESS:    8488642  HIT:    8420626  MISS:      68016  HIT %:    99.1987  MISS %:   0.801259   MPKI: 1.36032
DTLB PREFETCH  REQUESTED:          0  ISSUED:          0  USEFUL:          0  USELESS:          0
DTLB USEFUL LOAD PREFETCHES:          0 PREFETCH ISSUED TO LOWER LEVEL:          0  ACCURACY: -nan
DTLB TIMELY PREFETCHES:          0 LATE PREFETCHES: 0 DROPPED PREFETCHES: 0
DTLB PREFETCHES SAME FILL-ORIGIN LEVEL: 0 DIFFERENT FILL-ORIGIN LEVEL: 0
DTLB AVERAGE MISS LATENCY: 135.961 cycles
DTLB RQ	ACCESS:   11904527	FORWARD:          0	MERGED:    3385361	TO_CACHE:    8519166

STLB TOTAL     ACCESS:     429735  HIT:     392827  MISS:      36908  HIT %:    91.4115  MISS %:    8.58855   MPKI: 0.73816
STLB LOAD TRANSLATION ACCESS:      68016  HIT:      31108  MISS:      36908  HIT %:    45.7363  MISS %:    54.2637   MPKI: 0.73816
STLB TRANSLATION FROM L1D PREFETCHER ACCESS:     361719  HIT:     361719  MISS:          0  HIT %:        100  MISS %:          0   MPKI: 0
STLB PREFETCH  REQUESTED:          0  ISSUED:          0  USEFUL:          0  USELESS:          0
STLB USEFUL LOAD PREFETCHES:          0 PREFETCH ISSUED TO LOWER LEVEL:          0  ACCURACY: -nan
STLB TIMELY PREFETCHES:          0 LATE PREFETCHES: 0 DROPPED PREFETCHES: 0
STLB PREFETCHES SAME FILL-ORIGIN LEVEL: 0 DIFFERENT FILL-ORIGIN LEVEL: 0
STLB AVERAGE MISS LATENCY: 231.642 cycles
STLB RQ	ACCESS:     671069	FORWARD:          0	MERGED:     241334	TO_CACHE:     429735

STLB Hit, L1D data hit: 0
STLB Hit, L2C data hit: 0
STLB Hit, LLC data hit: 0
STLB Hit, LLC data miss: 0
STLB STLB hints to L2: 0
L1D TOTAL     ACCESS:   12217247  HIT:    8320921  MISS:    3896326  HIT %:     68.108  MISS %:     31.892   MPKI: 77.9265
L1D LOAD      ACCESS:    3869465  HIT:    3641904  MISS:     227561  HIT %:    94.1191  MISS %:    5.88094   MPKI: 4.55122
L1D RFO       ACCESS:    7878320  HIT:    4572388  MISS:    3305932  HIT %:    58.0376  MISS %:    41.9624   MPKI: 66.1186
L1D PREFETCH  ACCESS:     469462  HIT:     106629  MISS:     362833  HIT %:     22.713  MISS %:     77.287   MPKI: 7.25666
L1D PREFETCH  REQUESTED:    1232881  ISSUED:    1206136  USEFUL:     362830  USELESS:          0
L1D USEFUL LOAD PREFETCHES:     362830 PREFETCH ISSUED TO LOWER LEVEL:     411450  ACCURACY: 88.1833
L1D TIMELY PREFETCHES:     362830 LATE PREFETCHES: 48385 DROPPED PREFETCHES: 0
L1D PREFETCHES SAME FILL-ORIGIN LEVEL: 411450 DIFFERENT FILL-ORIGIN LEVEL: 0
L1D AVERAGE MISS LATENCY: 807840 cycles
L1D RQ	ACCESS:   12345759	FORWARD:          0	MERGED:    5795533	TO_CACHE:    3921355
L1D WQ	ACCESS:    9189247	FORWARD:    2628871	MERGED:    1206075	TO_CACHE:    7983172
L1D PQ	ACCESS:     603083	FORWARD:          0	MERGED:         30	TO_CACHE:     603053

L1D UNIQUE REGIONS ACCESSED: 0
L1D REGIONS CONFLICTS: 0
L1D Cross Page Prefetch Requests: 0
L1D Same Page Prefetch Requests: 731099
L1D ROI Sum of L1D PQ occupancy: 817376386
L1D PREFETCHES PUSHED FROM L2C: 0
L1I TOTAL     ACCESS:    8717899  HIT:    8717899  MISS:          0  HIT %:        100  MISS %:          0   MPKI: 0
L1I LOAD      ACCESS:    8717899  HIT:    8717899  MISS:          0  HIT %:        100  MISS %:          0   MPKI: 0
L1I PREFETCH  REQUESTED:          0  ISSUED:          0  USEFUL:          0  USELESS:          0
L1I USEFUL LOAD PREFETCHES:          0 PREFETCH ISSUED TO LOWER LEVEL:          0  ACCURACY: -nan
L1I TIMELY PREFETCHES:          0 LATE PREFETCHES: 0 DROPPED PREFETCHES: 0
L1I PREFETCHES SAME FILL-ORIGIN LEVEL: 0 DIFFERENT FILL-ORIGIN LEVEL: 0
L1I AVERAGE MISS LATENCY: -nan cycles
L1I RQ	ACCESS:   12499327	FORWARD:          0	MERGED:    3781429	TO_CACHE:    8717898

BTB TOTAL     ACCESS:     892808  HIT:     892802  MISS:          6  HIT %:    99.9993  MISS %: 0.000672037   MPKI: 0.00012
BTB BRANCH_DIRECT_JUMP	ACCESS:     143919  HIT:     143918  MISS:          1
BTB BRANCH_INDIRECT	ACCESS:          0  HIT:          0  MISS:          0
BTB BRANCH_CONDITIONAL	ACCESS:     748889  HIT:     748884  MISS:          5
BTB BRANCH_DIRECT_CALL	ACCESS:          0  HIT:          0  MISS:          0
BTB BRANCH_INDIRECT_CALL	ACCESS:          0  HIT:          0  MISS:          0
BTB BRANCH_RETURN	ACCESS:          0  HIT:          0  MISS:          0
BTB BRANCH_OTHER ACCESS:          0  HIT:          0  MISS:          0

L2C TOTAL     ACCESS:    7773301  HIT:    5392468  MISS:    2380833  HIT %:    69.3717  MISS %:    30.6283   MPKI: 47.6167
L2C LOAD      ACCESS:     179176  HIT:      92814  MISS:      86362  HIT %:    51.8005  MISS %:    48.1995   MPKI: 1.72724
L2C DATA LOAD MPKI: 1.72724
L2C INSTRUCTION LOAD MPKI: 0
L2C RFO       ACCESS:    3305930  HIT:    1520253  MISS:    1785677  HIT %:    45.9856  MISS %:    54.0144   MPKI: 35.7135
L2C PREFETCH  ACCESS:     945347  HIT:     441324  MISS:     504023  HIT %:    46.6838  MISS %:    53.3162   MPKI: 10.0805
L2C DATA PREFETCH MPKI: 10.0805
L2C INSTRUCTION PREFETCH MPKI: 0
L2C WRITEBACK ACCESS:    3305938  HIT:    3305829  MISS:        109  HIT %:    99.9967  MISS %:  0.0032971   MPKI: 0.00218
L2C LOAD TRANSLATION ACCESS:      36910  HIT:      32248  MISS:       4662  HIT %:    87.3693  MISS %:    12.6307   MPKI: 0.09324
L2C PREFETCH  REQUESTED:     863289  ISSUED:     863279  USEFUL:      92809  USELESS:     411378
L2C USEFUL LOAD PREFETCHES:      92809 PREFETCH ISSUED TO LOWER LEVEL:     521682  ACCURACY: 17.7903
L2C TIMELY PREFETCHES:      92809 LATE PREFETCHES: 17652 DROPPED PREFETCHES: 0
L2C PREFETCHES SAME FILL-ORIGIN LEVEL: 343457 DIFFERENT FILL-ORIGIN LEVEL: 0
L2C AVERAGE MISS LATENCY: 861.191 cycles
L2C RQ	ACCESS:    3522028	FORWARD:          0	MERGED:          0	TO_CACHE:    3522027
L2C WQ	ACCESS:    3305938	FORWARD:          1	MERGED:          0	TO_CACHE:    3305938
L2C PQ	ACCESS:    1274499	FORWARD:          0	MERGED:     121079	TO_CACHE:    1153420

L2C Instructions Evicting Data 0
L2C Translations Evicting Data 4662
L2C Data Evicting Data 2371403
L2C Instructions Evicting Instructions 0
L2C Translations Evicting Instructions 0
L2C Data Evicting Instructions 0
L2C Instructions Evicting Translations 0
L2C Translations Evicting Translations 0
L2C Data Evicting Translations 4659
L2C Dense regions hint from L2: 0
PSCL5 TOTAL     ACCESS:      36908  HIT:      36908  MISS:          0  HIT %:        100  MISS %:          0   MPKI: 0
PSCL5 LOAD TRANSLATION ACCESS:      36908  HIT:      36908  MISS:          0  HIT %:        100  MISS %:          0   MPKI: 0
PSCL5 PREFETCH  REQUESTED:          0  ISSUED:          0  USEFUL:          0  USELESS:          0
PSCL5 USEFUL LOAD PREFETCHES:          0 PREFETCH ISSUED TO LOWER LEVEL:          0  ACCURACY: -nan
PSCL5 TIMELY PREFETCHES:          0 LATE PREFETCHES: 0 DROPPED PREFETCHES: 0
PSCL5 PREFETCHES SAME FILL-ORIGIN LEVEL: 0 DIFFERENT FILL-ORIGIN LEVEL: 0

PSCL4 TOTAL     ACCESS:      36908  HIT:      36908  MISS:          0  HIT %:        100  MISS %:          0   MPKI: 0
PSCL4 LOAD TRANSLATION ACCESS:      36908  HIT:      36908  MISS:          0  HIT %:        100  MISS %:          0   MPKI: 0
PSCL4 PREFETCH  REQUESTED:          0  ISSUED:          0  USEFUL:          0  USELESS:          0
PSCL4 USEFUL LOAD PREFETCHES:          0 PREFETCH ISSUED TO LOWER LEVEL:          0  ACCURACY: -nan
PSCL4 TIMELY PREFETCHES:          0 LATE PREFETCHES: 0 DROPPED PREFETCHES: 0
PSCL4 PREFETCHES SAME FILL-ORIGIN LEVEL: 0 DIFFERENT FILL-ORIGIN LEVEL: 0

PSCL3 TOTAL     ACCESS:      36908  HIT:      36908  MISS:          0  HIT %:        100  MISS %:          0   MPKI: 0
PSCL3 LOAD TRANSLATION ACCESS:      36908  HIT:      36908  MISS:          0  HIT %:        100  MISS %:          0   MPKI: 0
PSCL3 PREFETCH  REQUESTED:          0  ISSUED:          0  USEFUL:          0  USELESS:          0
PSCL3 USEFUL LOAD PREFETCHES:          0 PREFETCH ISSUED TO LOWER LEVEL:          0  ACCURACY: -nan
PSCL3 TIMELY PREFETCHES:          0 LATE PREFETCHES: 0 DROPPED PREFETCHES: 0
PSCL3 PREFETCHES SAME FILL-ORIGIN LEVEL: 0 DIFFERENT FILL-ORIGIN LEVEL: 0

PSCL2 TOTAL     ACCESS:      36908  HIT:      36870  MISS:         38  HIT %:     99.897  MISS %:   0.102959   MPKI: 0.00076
PSCL2 LOAD TRANSLATION ACCESS:      36908  HIT:      36870  MISS:         38  HIT %:     99.897  MISS %:   0.102959   MPKI: 0.00076
PSCL2 PREFETCH  REQUESTED:          0  ISSUED:          0  USEFUL:          0  USELESS:          0
PSCL2 USEFUL LOAD PREFETCHES:          0 PREFETCH ISSUED TO LOWER LEVEL:          0  ACCURACY: -nan
PSCL2 TIMELY PREFETCHES:          0 LATE PREFETCHES: 0 DROPPED PREFETCHES: 0
PSCL2 PREFETCHES SAME FILL-ORIGIN LEVEL: 0 DIFFERENT FILL-ORIGIN LEVEL: 0

LLC TOTAL     ACCESS:    4166840  HIT:    1800752  MISS:    2366088  HIT %:    43.2163  MISS %:    56.7837   MPKI: 47.3218
LLC LOAD      ACCESS:      68710  HIT:         15  MISS:      68695  HIT %:  0.0218309  MISS %:    99.9782   MPKI: 1.3739
LLC RFO       ACCESS:    1785668  HIT:      14703  MISS:    1770965  HIT %:   0.823389  MISS %:    99.1766   MPKI: 35.4193
LLC PREFETCH  ACCESS:     521675  HIT:          0  MISS:     521675  HIT %:          0  MISS %:        100   MPKI: 10.4335
LLC WRITEBACK ACCESS:    1786125  HIT:    1786034  MISS:         91  HIT %:    99.9949  MISS %: 0.00509483   MPKI: 0.00182
LLC LOAD TRANSLATION ACCESS:       4662  HIT:          0  MISS:       4662  HIT %:          0  MISS %:        100   MPKI: 0.09324
LLC PREFETCH  REQUESTED:          0  ISSUED:          0  USEFUL:          0  USELESS:     522442
LLC USEFUL LOAD PREFETCHES:          0 PREFETCH ISSUED TO LOWER LEVEL:     521682  ACCURACY: 0
LLC TIMELY PREFETCHES:          0 LATE PREFETCHES: 0 DROPPED PREFETCHES: 0
LLC PREFETCHES SAME FILL-ORIGIN LEVEL: 0 DIFFERENT FILL-ORIGIN LEVEL: 0
LLC AVERAGE MISS LATENCY: 839.468 cycles
LLC RQ	ACCESS:    1859060	FORWARD:          0	MERGED:          0	TO_CACHE:    1859051
LLC WQ	ACCESS:    1786126	FORWARD:          9	MERGED:          0	TO_CACHE:    1786126
LLC PQ	ACCESS:     521682	FORWARD:          0	MERGED:          0	TO_CACHE:     521682

LLC Dense regions hint to LLC: 0

RAW hits: 675827
Loads Generated: 13021587
Loads sent to L1D: 12345759
Stores Generated: 9189225
Stores sent to L1D: 9189247
Major fault: 0 Minor fault: 25372
Allocated PAGES: 25372

stream: 
stream:times selected: 2137371
stream:pref_filled: 82231
stream:pref_useful: 82231
stream:pref_late: 17220
stream:misses: 33670
stream:misses_by_poll: 0

CS: 
CS:times selected: 387663
CS:pref_filled: 206304
CS:pref_useful: 206299
CS:pref_late: 11884
CS:misses: 77640
CS:misses_by_poll: 1237

CPLX: 
CPLX:times selected: 1747371
CPLX:pref_filled: 186806
CPLX:pref_useful: 186801
CPLX:pref_late: 20737
CPLX:misses: 163984
CPLX:misses_by_poll: 951

NL_L1: 
NL:times selected: 1022
NL:pref_filled: 44
NL:pref_useful: 44
NL:pref_late: 22
NL:misses: 150
NL:misses_by_poll: 0

total selections: 4273427
total_filled: 362833
total_useful: 362830
total_late: 50911
total_polluted: 2188
total_misses_after_warmup: 279450
conflicts: 80724
Degree Incremented Times: 62704
Degree Decremented Times: 0

L1 IP Table Write Accesses: 3560661
L1 IP Table Read Accesses: 3479937
L1 RST Write Accesses: 1744698
L1 RST Read Accesses: 3489396
L1 CSPT Write Accesses: 1744698
L1 CSPT Read Accesses: 5513640
L1 RR Filter Tag Write Accesses: 629828
L1 RR Filter Tag Read Accesses: 284829244
L1 IP Table Tag Write Accesses: 3921354
L1 IP Table Tag Read Accesses: 3921354
L1 RST Tag Write Accesses: 0
L1 RST Tag Read Accesses: 15776066
L1 RR Filter Write Accesses: 0
L1 RR Filter Read Accesses: 12775104
test: 341064
L2 IP Table Read Accesses: 954208
L2 IP Table Write Accesses: 775189
L2 IP Table Tag Read Accesses: 477306
L2 IP Table Tag Write Accesses: 477306

DRAM Statistics
 CHANNEL 0
 RQ ROW_BUFFER_HIT:     277344  ROW_BUFFER_MISS:    2088653
 DBUS_CONGESTED:    3148215
 WQ ROW_BUFFER_HIT:     294397  ROW_BUFFER_MISS:    1476543  FULL:          0

 AVG_CONGESTED_CYCLE: 14
 All warmup complete: 2
Channel 0 Bank busy for read cycles: 0
Channel 0 Bank busy for write cycles: 0
Channel 0
Rank 0
0banks busy for read cycles: 6082
0banks busy for write cycles: 0
1banks busy for read cycles: 538980
1banks busy for write cycles: 186355
2banks busy for read cycles: 649967
2banks busy for write cycles: 186354
3banks busy for read cycles: 976885
3banks busy for write cycles: 186354
4banks busy for read cycles: 1430802
4banks busy for write cycles: 186353
5banks busy for read cycles: 4724028
5banks busy for write cycles: 186353
6banks busy for read cycles: 14484301
6banks busy for write cycles: 186507
7banks busy for read cycles: 23430247
7banks busy for write cycles: 1959899
8banks busy for read cycles: 25005043
8banks busy for write cycles: 50151163

CPU 0 Branch Prediction Accuracy: 94.966% MPKI: 0.89888 Average ROB Occupancy at Mispredict: 161.16
Branch types
NOT_BRANCH: 49106854 98.2137%
BRANCH_DIRECT_JUMP: 143919 0.287838%
BRANCH_INDIRECT: 0 0%
BRANCH_CONDITIONAL: 748891 1.49778%
BRANCH_DIRECT_CALL: 0 0%
BRANCH_INDIRECT_CALL: 0 0%
BRANCH_RETURN: 0 0%
BRANCH_OTHER: 0 0%

@sumon_overall_L1D    362830     48385         0    362833   1206136   1232881
@Sumon_Early_by_class_L1D     59622    170713    132433        17
@Sumon_Late_by_class_L1D     15182     11814     20501        17

@Sumon_Early_by_cycle_L1D     24087     30668     19558     49591     35527    143509     48127     11320       443         0         0         0
@Sumon_Late_by_cycle_L1D     10515      5494     11210     13238      2020      5757       151         0         0         0         0         0
@Sumon_Early_stream_L1D      7208     10132      6273     13381      8477     14005       146         0         0         0         0         0
@Sumon_Early_CS_L1D      9487     11000      6125     21369     15581     85079     21921       151         0         0         0         0
@Sumon_Early_CPLX_L1D      7384      9524      7156     14832     11465     44404     26056     11169       443         0         0         0
@Sumon_Late_stream_L1D      3115      1527      3710      4187       577      2010        56         0         0         0         0         0
@Sumon_Late_CS_L1D      2726      1337      2384      3122       519      1669        57         0         0         0         0         0
@Sumon_Late_CPLX_L1D      3805      2625      5111      5922       923      2077        38         0         0         0         0         0
@sumon_overall_L2C     92809     17652    411378    504023    863279    863289
@Sumon_Early_by_class_L2C     32285     60505         0         0
@Sumon_Late_by_class_L2C     12747      3886         0         0

@Sumon_Early_by_cycle_L2C      3282      3698      1100     14129      5020     33794     29415      2371         0         0         0         0
@Sumon_Late_by_cycle_L2C      4905      1728       931      6605       797      2627        59         0         0         0         0         0
@Sumon_Early_stream_L2C      2578      2917       797     10737      3048     11538       670         0         0         0         0         0
@Sumon_Early_CS_L2C       703       781       303      3389      1972     22251     28741      2365         0         0         0         0
@Sumon_Early_CPLX_L2C         0         0         0         0         0         0         0         0         0         0         0         0
@Sumon_Late_stream_L2C      2965      1362       729      5133       621      1902        35         0         0         0         0         0
@Sumon_Late_CS_L2C       921       366       202      1472       176       725        24         0         0         0         0         0
@Sumon_Late_CPLX_L2C         0         0         0         0         0         0         0         0         0         0         0         0
DRAM PAGES: 1048576
Allocated PAGES: 25372
