
*** ChampSim Multicore Out-of-Order Simulator ***

Warmup Instructions: 10000000
Simulation Instructions: 50000000
Number of CPUs: 1
LLC sets: 2048
LLC ways: 16
Off-chip DRAM Size: 4096 MB Channels: 1 Width: 64-bit Data Rate: 1600 MT/s
CPU 0 runs traces/SPEC2017/620.omnetpp_s-141B.champsimtrace.xz
.xz
CPU 0 Bimodal branch predictor
BTB has LRU replacement policy
ITLB has LRU replacement policy
DTLB has LRU replacement policy
STLB has LRU replacement policy
L1I has LRU replacement policy
IP Table Entries: 256
L1D has LRU replacement policy
IP_Table L2 entries: 256
L2C has LRU replacement policy
LLC has LRU replacement policy
Heartbeat CPU 0 instructions: 10000001 cycles: 3919490 heartbeat IPC: 2.55135 cumulative IPC: 2.55135 (Simulation time: 0 hr 14 min 23 sec) 

Warmup complete CPU 0 instructions: 10000001 cycles: 3919490 (Simulation time: 0 hr 14 min 23 sec) 

Heartbeat CPU 0 instructions: 20000003 cycles: 53874510 heartbeat IPC: 0.20018 cumulative IPC: 0.20018 (Simulation time: 0 hr 28 min 39 sec) 
Heartbeat CPU 0 instructions: 30000000 cycles: 103429531 heartbeat IPC: 0.201796 cumulative IPC: 0.200985 (Simulation time: 0 hr 42 min 55 sec) 
Heartbeat CPU 0 instructions: 40000002 cycles: 153335306 heartbeat IPC: 0.200378 cumulative IPC: 0.200782 (Simulation time: 0 hr 56 min 21 sec) 
Heartbeat CPU 0 instructions: 50000001 cycles: 203164674 heartbeat IPC: 0.200685 cumulative IPC: 0.200758 (Simulation time: 1 hr 4 min 56 sec) 
Heartbeat CPU 0 instructions: 60000001 cycles: 251869249 heartbeat IPC: 0.20532 cumulative IPC: 0.201654 (Simulation time: 1 hr 10 min 19 sec) 
Finished CPU 0 instructions: 50000000 cycles: 247949759 cumulative IPC: 0.201654 (Simulation time: 1 hr 10 min 19 sec) 

ChampSim completed all CPUs

Region of Interest Statistics

CPU 0 cumulative IPC: 0.201654 instructions: 50000000 cycles: 247949759
ITLB TOTAL     ACCESS:    8422854  HIT:    8343398  MISS:      79456  HIT %:    99.0567  MISS %:   0.943338   MPKI: 1.58912
ITLB LOAD TRANSLATION ACCESS:    8422854  HIT:    8343398  MISS:      79456  HIT %:    99.0567  MISS %:   0.943338   MPKI: 1.58912
ITLB PREFETCH  REQUESTED:          0  ISSUED:          0  USEFUL:          0  USELESS:          0
ITLB USEFUL LOAD PREFETCHES:          0 PREFETCH ISSUED TO LOWER LEVEL:          0  ACCURACY: -nan
ITLB TIMELY PREFETCHES:          0 LATE PREFETCHES: 0 DROPPED PREFETCHES: 0
ITLB PREFETCHES SAME FILL-ORIGIN LEVEL: 0 DIFFERENT FILL-ORIGIN LEVEL: 0
ITLB AVERAGE MISS LATENCY: 9.97338 cycles
ITLB RQ	ACCESS:    9471888	FORWARD:          0	MERGED:    1027565	TO_CACHE:    8444323

DTLB TOTAL     ACCESS:   19774341  HIT:   18738228  MISS:    1036113  HIT %:    94.7603  MISS %:    5.23968   MPKI: 20.7223
DTLB LOAD TRANSLATION ACCESS:   19774341  HIT:   18738228  MISS:    1036113  HIT %:    94.7603  MISS %:    5.23968   MPKI: 20.7223
DTLB PREFETCH  REQUESTED:          0  ISSUED:          0  USEFUL:          0  USELESS:          0
DTLB USEFUL LOAD PREFETCHES:          0 PREFETCH ISSUED TO LOWER LEVEL:          0  ACCURACY: -nan
DTLB TIMELY PREFETCHES:          0 LATE PREFETCHES: 0 DROPPED PREFETCHES: 0
DTLB PREFETCHES SAME FILL-ORIGIN LEVEL: 0 DIFFERENT FILL-ORIGIN LEVEL: 0
DTLB AVERAGE MISS LATENCY: 36.7713 cycles
DTLB RQ	ACCESS:   22316555	FORWARD:          0	MERGED:    2522392	TO_CACHE:   19794163

STLB TOTAL     ACCESS:    2931774  HIT:    2686937  MISS:     244837  HIT %:    91.6488  MISS %:    8.35116   MPKI: 4.89674
STLB LOAD TRANSLATION ACCESS:    1115569  HIT:     870732  MISS:     244837  HIT %:    78.0527  MISS %:    21.9473   MPKI: 4.89674
STLB TRANSLATION FROM L1D PREFETCHER ACCESS:    1816205  HIT:    1816205  MISS:          0  HIT %:        100  MISS %:          0   MPKI: 0
STLB PREFETCH  REQUESTED:          0  ISSUED:          0  USEFUL:          0  USELESS:          0
STLB USEFUL LOAD PREFETCHES:          0 PREFETCH ISSUED TO LOWER LEVEL:          0  ACCURACY: -nan
STLB TIMELY PREFETCHES:          0 LATE PREFETCHES: 0 DROPPED PREFETCHES: 0
STLB PREFETCHES SAME FILL-ORIGIN LEVEL: 0 DIFFERENT FILL-ORIGIN LEVEL: 0
STLB AVERAGE MISS LATENCY: 117.512 cycles
STLB RQ	ACCESS:    3296509	FORWARD:          0	MERGED:     364733	TO_CACHE:    2931776

STLB Hit, L1D data hit: 0
STLB Hit, L2C data hit: 0
STLB Hit, LLC data hit: 0
STLB Hit, LLC data miss: 0
STLB STLB hints to L2: 0
L1D TOTAL     ACCESS:   24137552  HIT:   22470306  MISS:    1667246  HIT %:    93.0927  MISS %:    6.90727   MPKI: 33.3449
L1D LOAD      ACCESS:   13054325  HIT:   12271544  MISS:     782781  HIT %:    94.0037  MISS %:    5.99633   MPKI: 15.6556
L1D RFO       ACCESS:    8972207  HIT:    8868434  MISS:     103773  HIT %:    98.8434  MISS %:    1.15661   MPKI: 2.07546
L1D PREFETCH  ACCESS:    2111020  HIT:    1330328  MISS:     780692  HIT %:    63.0183  MISS %:    36.9817   MPKI: 15.6138
L1D PREFETCH  REQUESTED:    4362225  ISSUED:    4362225  USEFUL:     108797  USELESS:     671928
L1D USEFUL LOAD PREFETCHES:     108797 PREFETCH ISSUED TO LOWER LEVEL:     793905  ACCURACY: 13.704
L1D TIMELY PREFETCHES:     108797 LATE PREFETCHES: 11247 DROPPED PREFETCHES: 0
L1D PREFETCHES SAME FILL-ORIGIN LEVEL: 793905 DIFFERENT FILL-ORIGIN LEVEL: 0
L1D AVERAGE MISS LATENCY: 1.00754e+06 cycles
L1D RQ	ACCESS:   16100942	FORWARD:          0	MERGED:    2336894	TO_CACHE:   13149414
L1D WQ	ACCESS:    9244293	FORWARD:     614979	MERGED:      77152	TO_CACHE:    9167141
L1D PQ	ACCESS:    2181285	FORWARD:          0	MERGED:          0	TO_CACHE:    2180940

L1D UNIQUE REGIONS ACCESSED: 0
L1D REGIONS CONFLICTS: 0
L1D Cross Page Prefetch Requests: 0
L1D Same Page Prefetch Requests: 2591906
L1D ROI Sum of L1D PQ occupancy: 28270593
L1D PREFETCHES PUSHED FROM L2C: 0
L1I TOTAL     ACCESS:    9462647  HIT:    9434517  MISS:      28130  HIT %:    99.7027  MISS %:   0.297274   MPKI: 0.5626
L1I LOAD      ACCESS:    9462647  HIT:    9434517  MISS:      28130  HIT %:    99.7027  MISS %:   0.297274   MPKI: 0.5626
L1I PREFETCH  REQUESTED:          0  ISSUED:          0  USEFUL:          0  USELESS:          0
L1I USEFUL LOAD PREFETCHES:          0 PREFETCH ISSUED TO LOWER LEVEL:          0  ACCURACY: -nan
L1I TIMELY PREFETCHES:          0 LATE PREFETCHES: 0 DROPPED PREFETCHES: 0
L1I PREFETCHES SAME FILL-ORIGIN LEVEL: 0 DIFFERENT FILL-ORIGIN LEVEL: 0
L1I AVERAGE MISS LATENCY: 33.4907 cycles
L1I RQ	ACCESS:   14252087	FORWARD:          0	MERGED:    4780199	TO_CACHE:    9471888

BTB TOTAL     ACCESS:    8225391  HIT:    7750603  MISS:     474788  HIT %:    94.2278  MISS %:    5.77222   MPKI: 9.49576
BTB BRANCH_DIRECT_JUMP	ACCESS:     579052  HIT:     578930  MISS:        122
BTB BRANCH_INDIRECT	ACCESS:     167557  HIT:     143171  MISS:      24386
BTB BRANCH_CONDITIONAL	ACCESS:    4432757  HIT:    4432296  MISS:        461
BTB BRANCH_DIRECT_CALL	ACCESS:     933677  HIT:     933435  MISS:        242
BTB BRANCH_INDIRECT_CALL	ACCESS:     589336  HIT:     587040  MISS:       2296
BTB BRANCH_RETURN	ACCESS:    1523012  HIT:    1075731  MISS:     447281
BTB BRANCH_OTHER ACCESS:          0  HIT:          0  MISS:          0

L2C TOTAL     ACCESS:    2612226  HIT:    1219535  MISS:    1392691  HIT %:    46.6857  MISS %:    53.3143   MPKI: 27.8538
L2C LOAD      ACCESS:     799634  HIT:     261715  MISS:     537919  HIT %:    32.7293  MISS %:    67.2707   MPKI: 10.7584
L2C DATA LOAD MPKI: 10.6157
L2C INSTRUCTION LOAD MPKI: 0.14264
L2C RFO       ACCESS:     101803  HIT:      18426  MISS:      83377  HIT %:    18.0997  MISS %:    81.9003   MPKI: 1.66754
L2C PREFETCH  ACCESS:     881657  HIT:     280173  MISS:     601484  HIT %:     31.778  MISS %:     68.222   MPKI: 12.0297
L2C DATA PREFETCH MPKI: 12.0297
L2C INSTRUCTION PREFETCH MPKI: 0
L2C WRITEBACK ACCESS:     478784  HIT:     476828  MISS:       1956  HIT %:    99.5915  MISS %:   0.408535   MPKI: 0.03912
L2C LOAD TRANSLATION ACCESS:     350348  HIT:     182393  MISS:     167955  HIT %:    52.0605  MISS %:    47.9395   MPKI: 3.3591
L2C PREFETCH  REQUESTED:      95218  ISSUED:      95218  USEFUL:      34048  USELESS:     567403
L2C USEFUL LOAD PREFETCHES:      34048 PREFETCH ISSUED TO LOWER LEVEL:     602320  ACCURACY: 5.65281
L2C TIMELY PREFETCHES:      34048 LATE PREFETCHES: 835 DROPPED PREFETCHES: 0
L2C PREFETCHES SAME FILL-ORIGIN LEVEL: 49064 DIFFERENT FILL-ORIGIN LEVEL: 0
L2C AVERAGE MISS LATENCY: 152.846 cycles
L2C RQ	ACCESS:    1251820	FORWARD:          0	MERGED:          0	TO_CACHE:    1251785
L2C WQ	ACCESS:     478784	FORWARD:         55	MERGED:          0	TO_CACHE:     478784
L2C PQ	ACCESS:     889123	FORWARD:          0	MERGED:       2289	TO_CACHE:     886814

L2C Instructions Evicting Data 6301
L2C Translations Evicting Data 147016
L2C Data Evicting Data 1062538
L2C Instructions Evicting Instructions 103
L2C Translations Evicting Instructions 744
L2C Data Evicting Instructions 6255
L2C Instructions Evicting Translations 728
L2C Translations Evicting Translations 20195
L2C Data Evicting Translations 146855
L2C Dense regions hint from L2: 0
PSCL5 TOTAL     ACCESS:     244837  HIT:     244837  MISS:          0  HIT %:        100  MISS %:          0   MPKI: 0
PSCL5 LOAD TRANSLATION ACCESS:     244837  HIT:     244837  MISS:          0  HIT %:        100  MISS %:          0   MPKI: 0
PSCL5 PREFETCH  REQUESTED:          0  ISSUED:          0  USEFUL:          0  USELESS:          0
PSCL5 USEFUL LOAD PREFETCHES:          0 PREFETCH ISSUED TO LOWER LEVEL:          0  ACCURACY: -nan
PSCL5 TIMELY PREFETCHES:          0 LATE PREFETCHES: 0 DROPPED PREFETCHES: 0
PSCL5 PREFETCHES SAME FILL-ORIGIN LEVEL: 0 DIFFERENT FILL-ORIGIN LEVEL: 0

PSCL4 TOTAL     ACCESS:     244837  HIT:     244837  MISS:          0  HIT %:        100  MISS %:          0   MPKI: 0
PSCL4 LOAD TRANSLATION ACCESS:     244837  HIT:     244837  MISS:          0  HIT %:        100  MISS %:          0   MPKI: 0
PSCL4 PREFETCH  REQUESTED:          0  ISSUED:          0  USEFUL:          0  USELESS:          0
PSCL4 USEFUL LOAD PREFETCHES:          0 PREFETCH ISSUED TO LOWER LEVEL:          0  ACCURACY: -nan
PSCL4 TIMELY PREFETCHES:          0 LATE PREFETCHES: 0 DROPPED PREFETCHES: 0
PSCL4 PREFETCHES SAME FILL-ORIGIN LEVEL: 0 DIFFERENT FILL-ORIGIN LEVEL: 0

PSCL3 TOTAL     ACCESS:     244837  HIT:     244837  MISS:          0  HIT %:        100  MISS %:          0   MPKI: 0
PSCL3 LOAD TRANSLATION ACCESS:     244837  HIT:     244837  MISS:          0  HIT %:        100  MISS %:          0   MPKI: 0
PSCL3 PREFETCH  REQUESTED:          0  ISSUED:          0  USEFUL:          0  USELESS:          0
PSCL3 USEFUL LOAD PREFETCHES:          0 PREFETCH ISSUED TO LOWER LEVEL:          0  ACCURACY: -nan
PSCL3 TIMELY PREFETCHES:          0 LATE PREFETCHES: 0 DROPPED PREFETCHES: 0
PSCL3 PREFETCHES SAME FILL-ORIGIN LEVEL: 0 DIFFERENT FILL-ORIGIN LEVEL: 0

PSCL2 TOTAL     ACCESS:     244837  HIT:     139326  MISS:     105511  HIT %:    56.9056  MISS %:    43.0944   MPKI: 2.11022
PSCL2 LOAD TRANSLATION ACCESS:     244837  HIT:     139326  MISS:     105511  HIT %:    56.9056  MISS %:    43.0944   MPKI: 2.11022
PSCL2 PREFETCH  REQUESTED:          0  ISSUED:          0  USEFUL:          0  USELESS:          0
PSCL2 USEFUL LOAD PREFETCHES:          0 PREFETCH ISSUED TO LOWER LEVEL:          0  ACCURACY: -nan
PSCL2 TIMELY PREFETCHES:          0 LATE PREFETCHES: 0 DROPPED PREFETCHES: 0
PSCL2 PREFETCHES SAME FILL-ORIGIN LEVEL: 0 DIFFERENT FILL-ORIGIN LEVEL: 0

LLC TOTAL     ACCESS:    1759333  HIT:     748308  MISS:    1011025  HIT %:    42.5336  MISS %:    57.4664   MPKI: 20.2205
LLC LOAD      ACCESS:     537144  HIT:     133161  MISS:     403983  HIT %:    24.7906  MISS %:    75.2094   MPKI: 8.07966
LLC RFO       ACCESS:      83315  HIT:      27254  MISS:      56061  HIT %:     32.712  MISS %:     67.288   MPKI: 1.12122
LLC PREFETCH  ACCESS:     602319  HIT:     123563  MISS:     478756  HIT %:    20.5145  MISS %:    79.4855   MPKI: 9.57512
LLC WRITEBACK ACCESS:     368600  HIT:     365970  MISS:       2630  HIT %:    99.2865  MISS %:   0.713511   MPKI: 0.0526
LLC LOAD TRANSLATION ACCESS:     167955  HIT:      98360  MISS:      69595  HIT %:    58.5633  MISS %:    41.4367   MPKI: 1.3919
LLC PREFETCH  REQUESTED:          0  ISSUED:          0  USEFUL:      20573  USELESS:     457953
LLC USEFUL LOAD PREFETCHES:      20573 PREFETCH ISSUED TO LOWER LEVEL:     478757  ACCURACY: 4.29717
LLC TIMELY PREFETCHES:      20573 LATE PREFETCHES: 0 DROPPED PREFETCHES: 0
LLC PREFETCHES SAME FILL-ORIGIN LEVEL: 0 DIFFERENT FILL-ORIGIN LEVEL: 0
LLC AVERAGE MISS LATENCY: 168.967 cycles
LLC RQ	ACCESS:     788416	FORWARD:          0	MERGED:          0	TO_CACHE:     788414
LLC WQ	ACCESS:     368600	FORWARD:          2	MERGED:          0	TO_CACHE:     368600
LLC PQ	ACCESS:     602320	FORWARD:          0	MERGED:          0	TO_CACHE:     602320

LLC Dense regions hint to LLC: 0

RAW hits: 606837
Loads Generated: 16707774
Loads sent to L1D: 16100942
Stores Generated: 9244296
Stores sent to L1D: 9244293
Major fault: 0 Minor fault: 47196
Allocated PAGES: 47196

stream: 
stream:times selected: 4091523
stream:pref_filled: 635061
stream:pref_useful: 110047
stream:pref_late: 13257
stream:misses: 148961
stream:misses_by_poll: 0

CS: 
CS:times selected: 21736
CS:pref_filled: 7145
CS:pref_useful: 1756
CS:pref_late: 0
CS:misses: 433
CS:misses_by_poll: 0

CPLX: 
CPLX:times selected: 4063074
CPLX:pref_filled: 274095
CPLX:pref_useful: 13357
CPLX:pref_late: 606
CPLX:misses: 479471
CPLX:misses_by_poll: 577

NL_L1: 
NL:times selected: 21126
NL:pref_filled: 6715
NL:pref_useful: 1244
NL:pref_late: 177
NL:misses: 5567
NL:misses_by_poll: 1

total selections: 8197459
total_filled: 780692
total_useful: 108797
total_late: 14240
total_polluted: 578
total_misses_after_warmup: 877875
conflicts: 1903288
Degree Incremented Times: 0
Degree Decremented Times: 289278

L1 IP Table Write Accesses: 9728698
L1 IP Table Read Accesses: 7825410
L1 RST Write Accesses: 3522058
L1 RST Read Accesses: 7044116
L1 CSPT Write Accesses: 3522058
L1 CSPT Read Accesses: 7021038
L1 RR Filter Tag Write Accesses: 2181285
L1 RR Filter Tag Read Accesses: 126512544
L1 IP Table Tag Write Accesses: 13149419
L1 IP Table Tag Read Accesses: 13149419
L1 RST Tag Write Accesses: 0
L1 RST Tag Read Accesses: 38463277
L1 RR Filter Write Accesses: 0
L1 RR Filter Read Accesses: 4381142
test: 1915534
L2 IP Table Read Accesses: 3026832
L2 IP Table Write Accesses: 2371985
L2 IP Table Tag Read Accesses: 1561559
L2 IP Table Tag Write Accesses: 1561559

DRAM Statistics
 CHANNEL 0
 RQ ROW_BUFFER_HIT:      94588  ROW_BUFFER_MISS:     913798
 DBUS_CONGESTED:     385642
 WQ ROW_BUFFER_HIT:      68059  ROW_BUFFER_MISS:     202360  FULL:          0

 AVG_CONGESTED_CYCLE: 9
 All warmup complete: 2
Channel 0 Bank busy for read cycles: 0
Channel 0 Bank busy for write cycles: 0
Channel 0
Rank 0
0banks busy for read cycles: 123436408
0banks busy for write cycles: 139457
1banks busy for read cycles: 49233847
1banks busy for write cycles: 21465188
2banks busy for read cycles: 26898979
2banks busy for write cycles: 8885586
3banks busy for read cycles: 8331877
3banks busy for write cycles: 3476289
4banks busy for read cycles: 2923241
4banks busy for write cycles: 1344136
5banks busy for read cycles: 812067
5banks busy for write cycles: 532719
6banks busy for read cycles: 167026
6banks busy for write cycles: 205749
7banks busy for read cycles: 22388
7banks busy for write cycles: 63144
8banks busy for read cycles: 1987
8banks busy for write cycles: 9672

CPU 0 Branch Prediction Accuracy: 94.7385% MPKI: 11.0762 Average ROB Occupancy at Mispredict: 24.643
Branch types
NOT_BRANCH: 39473974 78.9479%
BRANCH_DIRECT_JUMP: 579052 1.1581%
BRANCH_INDIRECT: 167557 0.335114%
BRANCH_CONDITIONAL: 6733127 13.4663%
BRANCH_DIRECT_CALL: 933677 1.86735%
BRANCH_INDIRECT_CALL: 589336 1.17867%
BRANCH_RETURN: 1523012 3.04602%
BRANCH_OTHER: 0 0%

@sumon_overall_L1D    108797     11247    671928    780692   4362225   4362225
@Sumon_Early_by_class_L1D     93678      1353     11422       134
@Sumon_Late_by_class_L1D     10430         0       525       134

@Sumon_Early_by_cycle_L1D     18492      7228      5937      3332      2854     15365     13671      9131      4834     11926      9341      6686
@Sumon_Late_by_cycle_L1D      2259      8954        34         0         0         0         0         0         0         0         0         0
@Sumon_Early_stream_L1D     17176      6342      5215      2850      2535     13625     11770      7600      3928      9693      7382      5562
@Sumon_Early_CS_L1D         1         6         3         5         9         6       707       401        81        74        24        36
@Sumon_Early_CPLX_L1D       544       407       630       394       265      1473      1014      1026       756      2017      1855      1041
@Sumon_Late_stream_L1D      1870      8530        30         0         0         0         0         0         0         0         0         0
@Sumon_Late_CS_L1D         0         0         0         0         0         0         0         0         0         0         0         0
@Sumon_Late_CPLX_L1D       211       310         4         0         0         0         0         0         0         0         0         0
@sumon_overall_L2C     34048       835    567403    601484     95218     95218
@Sumon_Early_by_class_L2C     15939        14      6265         0
@Sumon_Late_by_class_L2C         0         0         0         0

@Sumon_Early_by_cycle_L2C      1508       976       324       377       752      2468      2840       784       536       407      1508     21568
@Sumon_Late_by_cycle_L2C       472       351        12         0         0         0         0         0         0         0         0         0
@Sumon_Early_stream_L2C         0         0         0         0         0         0         0         0         2       106       851     14980
@Sumon_Early_CS_L2C         0         0         0         0         0         0         0         0         0         0         2        12
@Sumon_Early_CPLX_L2C         0         0         0         0         0         0         0         0         1        28       343      5893
@Sumon_Late_stream_L2C         0         0         0         0         0         0         0         0         0         0         0         0
@Sumon_Late_CS_L2C         0         0         0         0         0         0         0         0         0         0         0         0
@Sumon_Late_CPLX_L2C         0         0         0         0         0         0         0         0         0         0         0         0
DRAM PAGES: 1048576
Allocated PAGES: 47196
