
*** ChampSim Multicore Out-of-Order Simulator ***

Warmup Instructions: 10000000
Simulation Instructions: 50000000
Number of CPUs: 1
LLC sets: 2048
LLC ways: 16
Off-chip DRAM Size: 4096 MB Channels: 1 Width: 64-bit Data Rate: 1600 MT/s
CPU 0 runs traces/SPEC2017/623.xalancbmk_s-202B.champsimtrace.xz
.xz
CPU 0 Bimodal branch predictor
BTB has LRU replacement policy
ITLB has LRU replacement policy
DTLB has LRU replacement policy
STLB has LRU replacement policy
L1I has LRU replacement policy
IP Table Entries: 256
L1D has LRU replacement policy
IP_Table L2 entries: 256
L2C has LRU replacement policy
LLC has LRU replacement policy
Heartbeat CPU 0 instructions: 10000001 cycles: 2831128 heartbeat IPC: 3.53216 cumulative IPC: 3.53216 (Simulation time: 0 hr 10 min 57 sec) 

Warmup complete CPU 0 instructions: 10000001 cycles: 2831128 (Simulation time: 0 hr 10 min 57 sec) 

Heartbeat CPU 0 instructions: 20000002 cycles: 19869752 heartbeat IPC: 0.586902 cumulative IPC: 0.586902 (Simulation time: 0 hr 19 min 45 sec) 
Heartbeat CPU 0 instructions: 30000000 cycles: 36878219 heartbeat IPC: 0.587942 cumulative IPC: 0.587422 (Simulation time: 0 hr 28 min 37 sec) 
Heartbeat CPU 0 instructions: 40000002 cycles: 53907493 heartbeat IPC: 0.587224 cumulative IPC: 0.587356 (Simulation time: 0 hr 37 min 31 sec) 
Heartbeat CPU 0 instructions: 50000002 cycles: 70848481 heartbeat IPC: 0.590284 cumulative IPC: 0.588085 (Simulation time: 0 hr 46 min 24 sec) 
Heartbeat CPU 0 instructions: 60000002 cycles: 87844549 heartbeat IPC: 0.588371 cumulative IPC: 0.588142 (Simulation time: 0 hr 54 min 47 sec) 
Finished CPU 0 instructions: 50000001 cycles: 85013421 cumulative IPC: 0.588142 (Simulation time: 0 hr 54 min 47 sec) 

ChampSim completed all CPUs

Region of Interest Statistics

CPU 0 cumulative IPC: 0.588142 instructions: 50000001 cycles: 85013421
ITLB TOTAL     ACCESS:    7300092  HIT:    7300092  MISS:          0  HIT %:        100  MISS %:          0   MPKI: 0
ITLB LOAD TRANSLATION ACCESS:    7300092  HIT:    7300092  MISS:          0  HIT %:        100  MISS %:          0   MPKI: 0
ITLB PREFETCH  REQUESTED:          0  ISSUED:          0  USEFUL:          0  USELESS:          0
ITLB USEFUL LOAD PREFETCHES:          0 PREFETCH ISSUED TO LOWER LEVEL:          0  ACCURACY: -nan
ITLB TIMELY PREFETCHES:          0 LATE PREFETCHES: 0 DROPPED PREFETCHES: 0
ITLB PREFETCHES SAME FILL-ORIGIN LEVEL: 0 DIFFERENT FILL-ORIGIN LEVEL: 0
ITLB AVERAGE MISS LATENCY: -nan cycles
ITLB RQ	ACCESS:    8664070	FORWARD:          0	MERGED:    1363979	TO_CACHE:    7300091

DTLB TOTAL     ACCESS:    8340914  HIT:    8318893  MISS:      22021  HIT %:     99.736  MISS %:   0.264012   MPKI: 0.44042
DTLB LOAD TRANSLATION ACCESS:    8340914  HIT:    8318893  MISS:      22021  HIT %:     99.736  MISS %:   0.264012   MPKI: 0.44042
DTLB PREFETCH  REQUESTED:          0  ISSUED:          0  USEFUL:          0  USELESS:          0
DTLB USEFUL LOAD PREFETCHES:          0 PREFETCH ISSUED TO LOWER LEVEL:          0  ACCURACY: -nan
DTLB TIMELY PREFETCHES:          0 LATE PREFETCHES: 0 DROPPED PREFETCHES: 0
DTLB PREFETCHES SAME FILL-ORIGIN LEVEL: 0 DIFFERENT FILL-ORIGIN LEVEL: 0
DTLB AVERAGE MISS LATENCY: 10.9694 cycles
DTLB RQ	ACCESS:    9355590	FORWARD:          0	MERGED:    1014504	TO_CACHE:    8341086

STLB TOTAL     ACCESS:     706744  HIT:     706487  MISS:        257  HIT %:    99.9636  MISS %:  0.0363639   MPKI: 0.00514
STLB LOAD TRANSLATION ACCESS:      22021  HIT:      21764  MISS:        257  HIT %:    98.8329  MISS %:    1.16707   MPKI: 0.00514
STLB TRANSLATION FROM L1D PREFETCHER ACCESS:     684723  HIT:     684723  MISS:          0  HIT %:        100  MISS %:          0   MPKI: 0
STLB PREFETCH  REQUESTED:          0  ISSUED:          0  USEFUL:          0  USELESS:          0
STLB USEFUL LOAD PREFETCHES:          0 PREFETCH ISSUED TO LOWER LEVEL:          0  ACCURACY: -nan
STLB TIMELY PREFETCHES:          0 LATE PREFETCHES: 0 DROPPED PREFETCHES: 0
STLB PREFETCHES SAME FILL-ORIGIN LEVEL: 0 DIFFERENT FILL-ORIGIN LEVEL: 0
STLB AVERAGE MISS LATENCY: 167.611 cycles
STLB RQ	ACCESS:    1862645	FORWARD:          0	MERGED:    1155901	TO_CACHE:     706744

STLB Hit, L1D data hit: 0
STLB Hit, L2C data hit: 0
STLB Hit, LLC data hit: 0
STLB Hit, LLC data miss: 0
STLB STLB hints to L2: 0
L1D TOTAL     ACCESS:   11150986  HIT:    9785363  MISS:    1365623  HIT %:    87.7533  MISS %:    12.2467   MPKI: 27.3125
L1D LOAD      ACCESS:    8468995  HIT:    8397987  MISS:      71008  HIT %:    99.1616  MISS %:   0.838447   MPKI: 1.42016
L1D RFO       ACCESS:     885861  HIT:     885861  MISS:          0  HIT %:        100  MISS %:          0   MPKI: 0
L1D PREFETCH  ACCESS:    1796130  HIT:     501515  MISS:    1294615  HIT %:     27.922  MISS %:     72.078   MPKI: 25.8923
L1D PREFETCH  REQUESTED:    3683853  ISSUED:    3681248  USEFUL:    1186472  USELESS:     108145
L1D USEFUL LOAD PREFETCHES:    1186472 PREFETCH ISSUED TO LOWER LEVEL:    1319098  ACCURACY: 89.9457
L1D TIMELY PREFETCHES:    1186472 LATE PREFETCHES: 24430 DROPPED PREFETCHES: 0
L1D PREFETCHES SAME FILL-ORIGIN LEVEL: 1319098 DIFFERENT FILL-ORIGIN LEVEL: 0
L1D AVERAGE MISS LATENCY: 814147 cycles
L1D RQ	ACCESS:   14945450	FORWARD:          0	MERGED:    6475722	TO_CACHE:    8469727
L1D WQ	ACCESS:     885863	FORWARD:          1	MERGED:          0	TO_CACHE:     885863
L1D PQ	ACCESS:    1840624	FORWARD:          0	MERGED:          0	TO_CACHE:    1840624

L1D UNIQUE REGIONS ACCESSED: 0
L1D REGIONS CONFLICTS: 0
L1D Cross Page Prefetch Requests: 0
L1D Same Page Prefetch Requests: 2257845
L1D ROI Sum of L1D PQ occupancy: 25100289
L1D PREFETCHES PUSHED FROM L2C: 0
L1I TOTAL     ACCESS:    8664071  HIT:    8664071  MISS:          0  HIT %:        100  MISS %:          0   MPKI: 0
L1I LOAD      ACCESS:    8664071  HIT:    8664071  MISS:          0  HIT %:        100  MISS %:          0   MPKI: 0
L1I PREFETCH  REQUESTED:          0  ISSUED:          0  USEFUL:          0  USELESS:          0
L1I USEFUL LOAD PREFETCHES:          0 PREFETCH ISSUED TO LOWER LEVEL:          0  ACCURACY: -nan
L1I TIMELY PREFETCHES:          0 LATE PREFETCHES: 0 DROPPED PREFETCHES: 0
L1I PREFETCHES SAME FILL-ORIGIN LEVEL: 0 DIFFERENT FILL-ORIGIN LEVEL: 0
L1I AVERAGE MISS LATENCY: -nan cycles
L1I RQ	ACCESS:   15861091	FORWARD:          0	MERGED:    7197021	TO_CACHE:    8664070

BTB TOTAL     ACCESS:    8732391  HIT:    8732374  MISS:         17  HIT %:    99.9998  MISS %: 0.000194677   MPKI: 0.00034
BTB BRANCH_DIRECT_JUMP	ACCESS:         40  HIT:         39  MISS:          1
BTB BRANCH_INDIRECT	ACCESS:          0  HIT:          0  MISS:          0
BTB BRANCH_CONDITIONAL	ACCESS:    7846775  HIT:    7846766  MISS:          9
BTB BRANCH_DIRECT_CALL	ACCESS:     221414  HIT:     221412  MISS:          2
BTB BRANCH_INDIRECT_CALL	ACCESS:     221374  HIT:     221373  MISS:          1
BTB BRANCH_RETURN	ACCESS:     442788  HIT:     442784  MISS:          4
BTB BRANCH_OTHER ACCESS:          0  HIT:          0  MISS:          0

L2C TOTAL     ACCESS:    3082077  HIT:    1753773  MISS:    1328304  HIT %:    56.9023  MISS %:    43.0977   MPKI: 26.5661
L2C LOAD      ACCESS:      46578  HIT:       3051  MISS:      43527  HIT %:     6.5503  MISS %:    93.4497   MPKI: 0.87054
L2C DATA LOAD MPKI: 0.87054
L2C INSTRUCTION LOAD MPKI: 0
L2C PREFETCH  ACCESS:    3035202  HIT:    1750492  MISS:    1284710  HIT %:     57.673  MISS %:     42.327   MPKI: 25.6942
L2C DATA PREFETCH MPKI: 25.6942
L2C INSTRUCTION PREFETCH MPKI: 0
L2C WRITEBACK ACCESS:         40  HIT:         40  MISS:          0  HIT %:        100  MISS %:          0   MPKI: 0
L2C LOAD TRANSLATION ACCESS:        257  HIT:        190  MISS:         67  HIT %:      73.93  MISS %:      26.07   MPKI: 0.00134
L2C PREFETCH  REQUESTED:    2145801  ISSUED:    2145772  USEFUL:       1917  USELESS:    1282696
L2C USEFUL LOAD PREFETCHES:       1917 PREFETCH ISSUED TO LOWER LEVEL:    1284710  ACCURACY: 0.149217
L2C TIMELY PREFETCHES:       1917 LATE PREFETCHES: 0 DROPPED PREFETCHES: 0
L2C PREFETCHES SAME FILL-ORIGIN LEVEL: 706255 DIFFERENT FILL-ORIGIN LEVEL: 0
L2C AVERAGE MISS LATENCY: 165.983 cycles
L2C RQ	ACCESS:      46835	FORWARD:          0	MERGED:          0	TO_CACHE:      46835
L2C WQ	ACCESS:         40	FORWARD:          0	MERGED:          0	TO_CACHE:         40
L2C PQ	ACCESS:    3464819	FORWARD:          0	MERGED:     380007	TO_CACHE:    3084812

L2C Instructions Evicting Data 0
L2C Translations Evicting Data 67
L2C Data Evicting Data 1328170
L2C Instructions Evicting Instructions 0
L2C Translations Evicting Instructions 0
L2C Data Evicting Instructions 0
L2C Instructions Evicting Translations 0
L2C Translations Evicting Translations 0
L2C Data Evicting Translations 67
L2C Dense regions hint from L2: 0
PSCL5 TOTAL     ACCESS:        257  HIT:        257  MISS:          0  HIT %:        100  MISS %:          0   MPKI: 0
PSCL5 LOAD TRANSLATION ACCESS:        257  HIT:        257  MISS:          0  HIT %:        100  MISS %:          0   MPKI: 0
PSCL5 PREFETCH  REQUESTED:          0  ISSUED:          0  USEFUL:          0  USELESS:          0
PSCL5 USEFUL LOAD PREFETCHES:          0 PREFETCH ISSUED TO LOWER LEVEL:          0  ACCURACY: -nan
PSCL5 TIMELY PREFETCHES:          0 LATE PREFETCHES: 0 DROPPED PREFETCHES: 0
PSCL5 PREFETCHES SAME FILL-ORIGIN LEVEL: 0 DIFFERENT FILL-ORIGIN LEVEL: 0

PSCL4 TOTAL     ACCESS:        257  HIT:        257  MISS:          0  HIT %:        100  MISS %:          0   MPKI: 0
PSCL4 LOAD TRANSLATION ACCESS:        257  HIT:        257  MISS:          0  HIT %:        100  MISS %:          0   MPKI: 0
PSCL4 PREFETCH  REQUESTED:          0  ISSUED:          0  USEFUL:          0  USELESS:          0
PSCL4 USEFUL LOAD PREFETCHES:          0 PREFETCH ISSUED TO LOWER LEVEL:          0  ACCURACY: -nan
PSCL4 TIMELY PREFETCHES:          0 LATE PREFETCHES: 0 DROPPED PREFETCHES: 0
PSCL4 PREFETCHES SAME FILL-ORIGIN LEVEL: 0 DIFFERENT FILL-ORIGIN LEVEL: 0

PSCL3 TOTAL     ACCESS:        257  HIT:        257  MISS:          0  HIT %:        100  MISS %:          0   MPKI: 0
PSCL3 LOAD TRANSLATION ACCESS:        257  HIT:        257  MISS:          0  HIT %:        100  MISS %:          0   MPKI: 0
PSCL3 PREFETCH  REQUESTED:          0  ISSUED:          0  USEFUL:          0  USELESS:          0
PSCL3 USEFUL LOAD PREFETCHES:          0 PREFETCH ISSUED TO LOWER LEVEL:          0  ACCURACY: -nan
PSCL3 TIMELY PREFETCHES:          0 LATE PREFETCHES: 0 DROPPED PREFETCHES: 0
PSCL3 PREFETCHES SAME FILL-ORIGIN LEVEL: 0 DIFFERENT FILL-ORIGIN LEVEL: 0

PSCL2 TOTAL     ACCESS:        257  HIT:        257  MISS:          0  HIT %:        100  MISS %:          0   MPKI: 0
PSCL2 LOAD TRANSLATION ACCESS:        257  HIT:        257  MISS:          0  HIT %:        100  MISS %:          0   MPKI: 0
PSCL2 PREFETCH  REQUESTED:          0  ISSUED:          0  USEFUL:          0  USELESS:          0
PSCL2 USEFUL LOAD PREFETCHES:          0 PREFETCH ISSUED TO LOWER LEVEL:          0  ACCURACY: -nan
PSCL2 TIMELY PREFETCHES:          0 LATE PREFETCHES: 0 DROPPED PREFETCHES: 0
PSCL2 PREFETCHES SAME FILL-ORIGIN LEVEL: 0 DIFFERENT FILL-ORIGIN LEVEL: 0

LLC TOTAL     ACCESS:    1328338  HIT:     232461  MISS:    1095877  HIT %:    17.5001  MISS %:    82.4999   MPKI: 21.9175
LLC LOAD      ACCESS:      43527  HIT:       7980  MISS:      35547  HIT %:    18.3334  MISS %:    81.6666   MPKI: 0.71094
LLC PREFETCH  ACCESS:    1284710  HIT:     224439  MISS:    1060271  HIT %:      17.47  MISS %:      82.53   MPKI: 21.2054
LLC WRITEBACK ACCESS:         34  HIT:         34  MISS:          0  HIT %:        100  MISS %:          0   MPKI: 0
LLC LOAD TRANSLATION ACCESS:         67  HIT:          8  MISS:         59  HIT %:    11.9403  MISS %:    88.0597   MPKI: 0.00118
LLC PREFETCH  REQUESTED:          0  ISSUED:          0  USEFUL:        694  USELESS:    1059701
LLC USEFUL LOAD PREFETCHES:        694 PREFETCH ISSUED TO LOWER LEVEL:    1060271  ACCURACY: 0.065455
LLC TIMELY PREFETCHES:        694 LATE PREFETCHES: 0 DROPPED PREFETCHES: 0
LLC PREFETCHES SAME FILL-ORIGIN LEVEL: 0 DIFFERENT FILL-ORIGIN LEVEL: 0
LLC AVERAGE MISS LATENCY: 164.816 cycles
LLC RQ	ACCESS:      43594	FORWARD:          0	MERGED:          0	TO_CACHE:      43594
LLC WQ	ACCESS:         34	FORWARD:          0	MERGED:          0	TO_CACHE:         34
LLC PQ	ACCESS:    1284710	FORWARD:          0	MERGED:          0	TO_CACHE:    1284710

LLC Dense regions hint to LLC: 0

RAW hits: 0
Loads Generated: 14945450
Loads sent to L1D: 14945450
Stores Generated: 885863
Stores sent to L1D: 885863
Major fault: 0 Minor fault: 1315
Allocated PAGES: 1315

stream: 
stream:times selected: 2874365
stream:pref_filled: 303836
stream:pref_useful: 183148
stream:pref_late: 26330
stream:misses: 75759
stream:misses_by_poll: 0

CS: 
CS:times selected: 2566298
CS:pref_filled: 1216429
CS:pref_useful: 1209256
CS:pref_late: 197
CS:misses: 9360
CS:misses_by_poll: 6266

CPLX: 
CPLX:times selected: 307935
CPLX:pref_filled: 33588
CPLX:pref_useful: 32269
CPLX:pref_late: 34
CPLX:misses: 2566
CPLX:misses_by_poll: 40

NL_L1: 
NL:times selected: 41
NL:pref_filled: 13
NL:pref_useful: 8
NL:pref_late: 2
NL:misses: 4
NL:misses_by_poll: 0

total selections: 5748639
total_filled: 1294615
total_useful: 1186472
total_late: 28338
total_polluted: 6306
total_misses_after_warmup: 71743
conflicts: 6
Degree Incremented Times: 86205
Degree Decremented Times: 0

L1 IP Table Write Accesses: 8234917
L1 IP Table Read Accesses: 8234911
L1 RST Write Accesses: 2354469
L1 RST Read Accesses: 4708938
L1 CSPT Write Accesses: 2354469
L1 CSPT Read Accesses: 2916813
L1 RR Filter Tag Write Accesses: 1843229
L1 RR Filter Tag Read Accesses: 392129549
L1 IP Table Tag Write Accesses: 8469730
L1 IP Table Tag Read Accesses: 8469730
L1 RST Tag Write Accesses: 0
L1 RST Tag Read Accesses: 21220394
L1 RR Filter Write Accesses: 0
L1 RR Filter Read Accesses: 18938636
test: 287257
L2 IP Table Read Accesses: 2482663
L2 IP Table Write Accesses: 2436101
L2 IP Table Tag Read Accesses: 1241339
L2 IP Table Tag Write Accesses: 1241339

DRAM Statistics
 CHANNEL 0
 RQ ROW_BUFFER_HIT:    1044511  ROW_BUFFER_MISS:      51366
 DBUS_CONGESTED:     912686
 WQ ROW_BUFFER_HIT:          3  ROW_BUFFER_MISS:         17  FULL:          0

 AVG_CONGESTED_CYCLE: 14
 All warmup complete: 2
Channel 0 Bank busy for read cycles: 0
Channel 0 Bank busy for write cycles: 0
Channel 0
Rank 0
0banks busy for read cycles: 60474607
0banks busy for write cycles: 20
1banks busy for read cycles: 6058088
1banks busy for write cycles: 3133
2banks busy for read cycles: 2449648
2banks busy for write cycles: 0
3banks busy for read cycles: 2252944
3banks busy for write cycles: 0
4banks busy for read cycles: 3124169
4banks busy for write cycles: 0
5banks busy for read cycles: 2643692
5banks busy for write cycles: 0
6banks busy for read cycles: 2519215
6banks busy for write cycles: 0
7banks busy for read cycles: 2277079
7banks busy for write cycles: 0
8banks busy for read cycles: 3210827
8banks busy for write cycles: 0

CPU 0 Branch Prediction Accuracy: 95.2006% MPKI: 13.2833 Average ROB Occupancy at Mispredict: 41.2358
Branch types
NOT_BRANCH: 36161174 72.3223%
BRANCH_DIRECT_JUMP: 40 8e-05%
BRANCH_INDIRECT: 0 0%
BRANCH_CONDITIONAL: 12952871 25.9057%
BRANCH_DIRECT_CALL: 221414 0.442828%
BRANCH_INDIRECT_CALL: 221374 0.442748%
BRANCH_RETURN: 442788 0.885576%
BRANCH_OTHER: 0 0%

@sumon_overall_L1D   1186472     24430    108145   1294615   3681248   3683853
@Sumon_Early_by_class_L1D    148628   1016988     20850         1
@Sumon_Late_by_class_L1D     22702       197        18         1

@Sumon_Early_by_cycle_L1D     17336     44472    117420     98509    111917    765118      2880      1371     26423      1026         0         0
@Sumon_Late_by_cycle_L1D     16638      7526       266         0         0         0         0         0         0         0         0         0
@Sumon_Early_stream_L1D     15866     37343     66203      1783        41       125       477       898     25728       164         0         0
@Sumon_Early_CS_L1D      1445      6932     50217     92586    108772    754755       423       469       684       705         0         0
@Sumon_Early_CPLX_L1D        22       196       998      4140      3104     10238      1980         4        11       157         0         0
@Sumon_Late_stream_L1D     14930      7507       265         0         0         0         0         0         0         0         0         0
@Sumon_Late_CS_L1D       187        10         0         0         0         0         0         0         0         0         0         0
@Sumon_Late_CPLX_L1D         9         8         1         0         0         0         0         0         0         0         0         0
@sumon_overall_L2C      1917         0   1282696   1284710   2145772   2145801
@Sumon_Early_by_class_L2C       239      1664        13         0
@Sumon_Late_by_class_L2C         0         0         0         0

@Sumon_Early_by_cycle_L2C         0         1        31        20       109      1310         0         0         0         5       116       325
@Sumon_Late_by_cycle_L2C         0         0         0         0         0         0         0         0         0         0         0         0
@Sumon_Early_stream_L2C         0         0         0         0         0         0         0         0         0         0        89       150
@Sumon_Early_CS_L2C         0         0        31        20       109      1310         0         0         0         5        27       162
@Sumon_Early_CPLX_L2C         0         0         0         0         0         0         0         0         0         0         0        13
@Sumon_Late_stream_L2C         0         0         0         0         0         0         0         0         0         0         0         0
@Sumon_Late_CS_L2C         0         0         0         0         0         0         0         0         0         0         0         0
@Sumon_Late_CPLX_L2C         0         0         0         0         0         0         0         0         0         0         0         0
DRAM PAGES: 1048576
Allocated PAGES: 1315
