
*** ChampSim Multicore Out-of-Order Simulator ***

Warmup Instructions: 10000000
Simulation Instructions: 50000000
Number of CPUs: 1
LLC sets: 2048
LLC ways: 16
Off-chip DRAM Size: 4096 MB Channels: 1 Width: 64-bit Data Rate: 1600 MT/s
CPU 0 runs traces/SPEC2017/649.fotonik3d_s-1176B.champsimtrace.xz
.xz
CPU 0 Bimodal branch predictor
BTB has LRU replacement policy
ITLB has LRU replacement policy
DTLB has LRU replacement policy
STLB has LRU replacement policy
L1I has LRU replacement policy
IP Table Entries: 256
L1D has LRU replacement policy
IP_Table L2 entries: 256
L2C has LRU replacement policy
LLC has LRU replacement policy
Heartbeat CPU 0 instructions: 10000000 cycles: 2902852 heartbeat IPC: 3.44489 cumulative IPC: 3.44489 (Simulation time: 0 hr 11 min 25 sec) 

Warmup complete CPU 0 instructions: 10000004 cycles: 2902853 (Simulation time: 0 hr 11 min 25 sec) 

Heartbeat CPU 0 instructions: 20000002 cycles: 12883708 heartbeat IPC: 1.00192 cumulative IPC: 1.00192 (Simulation time: 0 hr 19 min 43 sec) 
Heartbeat CPU 0 instructions: 30000001 cycles: 22866580 heartbeat IPC: 1.00172 cumulative IPC: 1.00182 (Simulation time: 0 hr 27 min 57 sec) 
Heartbeat CPU 0 instructions: 40000000 cycles: 32846789 heartbeat IPC: 1.00198 cumulative IPC: 1.00187 (Simulation time: 0 hr 36 min 10 sec) 
Heartbeat CPU 0 instructions: 50000002 cycles: 42831475 heartbeat IPC: 1.00153 cumulative IPC: 1.00179 (Simulation time: 0 hr 44 min 18 sec) 
Heartbeat CPU 0 instructions: 60000003 cycles: 52811630 heartbeat IPC: 1.00199 cumulative IPC: 1.00183 (Simulation time: 0 hr 52 min 24 sec) 
Finished CPU 0 instructions: 50000003 cycles: 49908778 cumulative IPC: 1.00183 (Simulation time: 0 hr 52 min 24 sec) 

ChampSim completed all CPUs

Region of Interest Statistics

CPU 0 cumulative IPC: 1.00183 instructions: 50000003 cycles: 49908778
ITLB TOTAL     ACCESS:    7017701  HIT:    7017701  MISS:          0  HIT %:        100  MISS %:          0   MPKI: 0
ITLB LOAD TRANSLATION ACCESS:    7017701  HIT:    7017701  MISS:          0  HIT %:        100  MISS %:          0   MPKI: 0
ITLB PREFETCH  REQUESTED:          0  ISSUED:          0  USEFUL:          0  USELESS:          0
ITLB USEFUL LOAD PREFETCHES:          0 PREFETCH ISSUED TO LOWER LEVEL:          0  ACCURACY: -nan
ITLB TIMELY PREFETCHES:          0 LATE PREFETCHES: 0 DROPPED PREFETCHES: 0
ITLB PREFETCHES SAME FILL-ORIGIN LEVEL: 0 DIFFERENT FILL-ORIGIN LEVEL: 0
ITLB AVERAGE MISS LATENCY: -nan cycles
ITLB RQ	ACCESS:    8772750	FORWARD:          0	MERGED:    1755049	TO_CACHE:    7017701

DTLB TOTAL     ACCESS:    8127923  HIT:    8116246  MISS:      11677  HIT %:    99.8563  MISS %:   0.143665   MPKI: 0.23354
DTLB LOAD TRANSLATION ACCESS:    8127923  HIT:    8116246  MISS:      11677  HIT %:    99.8563  MISS %:   0.143665   MPKI: 0.23354
DTLB PREFETCH  REQUESTED:          0  ISSUED:          0  USEFUL:          0  USELESS:          0
DTLB USEFUL LOAD PREFETCHES:          0 PREFETCH ISSUED TO LOWER LEVEL:          0  ACCURACY: -nan
DTLB TIMELY PREFETCHES:          0 LATE PREFETCHES: 0 DROPPED PREFETCHES: 0
DTLB PREFETCHES SAME FILL-ORIGIN LEVEL: 0 DIFFERENT FILL-ORIGIN LEVEL: 0
DTLB AVERAGE MISS LATENCY: 89.5304 cycles
DTLB RQ	ACCESS:   12578775	FORWARD:          0	MERGED:    4450056	TO_CACHE:    8128719

STLB TOTAL     ACCESS:     609044  HIT:     602181  MISS:       6863  HIT %:    98.8732  MISS %:    1.12685   MPKI: 0.13726
STLB LOAD TRANSLATION ACCESS:      11677  HIT:       4814  MISS:       6863  HIT %:    41.2263  MISS %:    58.7737   MPKI: 0.13726
STLB TRANSLATION FROM L1D PREFETCHER ACCESS:     597367  HIT:     597367  MISS:          0  HIT %:        100  MISS %:          0   MPKI: 0
STLB PREFETCH  REQUESTED:          0  ISSUED:          0  USEFUL:          0  USELESS:          0
STLB USEFUL LOAD PREFETCHES:          0 PREFETCH ISSUED TO LOWER LEVEL:          0  ACCURACY: -nan
STLB TIMELY PREFETCHES:          0 LATE PREFETCHES: 0 DROPPED PREFETCHES: 0
STLB PREFETCHES SAME FILL-ORIGIN LEVEL: 0 DIFFERENT FILL-ORIGIN LEVEL: 0
STLB AVERAGE MISS LATENCY: 136.842 cycles
STLB RQ	ACCESS:     671577	FORWARD:          0	MERGED:      62533	TO_CACHE:     609044

STLB Hit, L1D data hit: 0
STLB Hit, L2C data hit: 0
STLB Hit, LLC data hit: 0
STLB Hit, LLC data miss: 0
STLB STLB hints to L2: 0
L1D TOTAL     ACCESS:   13216649  HIT:   12551857  MISS:     664792  HIT %:      94.97  MISS %:    5.02996   MPKI: 13.2958
L1D LOAD      ACCESS:    9053071  HIT:    9031923  MISS:      21148  HIT %:    99.7664  MISS %:     0.2336   MPKI: 0.42296
L1D RFO       ACCESS:    3508880  HIT:    3508117  MISS:        763  HIT %:    99.9783  MISS %:  0.0217448   MPKI: 0.01526
L1D PREFETCH  ACCESS:     654698  HIT:      11817  MISS:     642881  HIT %:    1.80495  MISS %:     98.195   MPKI: 12.8576
L1D PREFETCH  REQUESTED:    1319800  ISSUED:    1319800  USEFUL:     639765  USELESS:       3118
L1D USEFUL LOAD PREFETCHES:     639765 PREFETCH ISSUED TO LOWER LEVEL:     647413  ACCURACY: 98.8187
L1D TIMELY PREFETCHES:     639765 LATE PREFETCHES: 4047 DROPPED PREFETCHES: 0
L1D PREFETCHES SAME FILL-ORIGIN LEVEL: 647413 DIFFERENT FILL-ORIGIN LEVEL: 0
L1D AVERAGE MISS LATENCY: 169729 cycles
L1D RQ	ACCESS:   17541474	FORWARD:          0	MERGED:    8472857	TO_CACHE:    9068509
L1D WQ	ACCESS:    3510266	FORWARD:        108	MERGED:          0	TO_CACHE:    3510266
L1D PQ	ACCESS:     659900	FORWARD:          0	MERGED:          0	TO_CACHE:     659900

L1D UNIQUE REGIONS ACCESSED: 0
L1D REGIONS CONFLICTS: 0
L1D Cross Page Prefetch Requests: 0
L1D Same Page Prefetch Requests: 790977
L1D ROI Sum of L1D PQ occupancy: 8672267
L1D PREFETCHES PUSHED FROM L2C: 0
L1I TOTAL     ACCESS:    8772748  HIT:    8772748  MISS:          0  HIT %:        100  MISS %:          0   MPKI: 0
L1I LOAD      ACCESS:    8772748  HIT:    8772748  MISS:          0  HIT %:        100  MISS %:          0   MPKI: 0
L1I PREFETCH  REQUESTED:          0  ISSUED:          0  USEFUL:          0  USELESS:          0
L1I USEFUL LOAD PREFETCHES:          0 PREFETCH ISSUED TO LOWER LEVEL:          0  ACCURACY: -nan
L1I TIMELY PREFETCHES:          0 LATE PREFETCHES: 0 DROPPED PREFETCHES: 0
L1I PREFETCHES SAME FILL-ORIGIN LEVEL: 0 DIFFERENT FILL-ORIGIN LEVEL: 0
L1I AVERAGE MISS LATENCY: -nan cycles
L1I RQ	ACCESS:   11406833	FORWARD:          0	MERGED:    2634083	TO_CACHE:    8772750

BTB TOTAL     ACCESS:     877289  HIT:     877280  MISS:          9  HIT %:     99.999  MISS %: 0.00102589   MPKI: 0.00018
BTB BRANCH_DIRECT_JUMP	ACCESS:        218  HIT:        216  MISS:          2
BTB BRANCH_INDIRECT	ACCESS:          0  HIT:          0  MISS:          0
BTB BRANCH_CONDITIONAL	ACCESS:     876635  HIT:     876632  MISS:          3
BTB BRANCH_DIRECT_CALL	ACCESS:        218  HIT:        216  MISS:          2
BTB BRANCH_INDIRECT_CALL	ACCESS:          0  HIT:          0  MISS:          0
BTB BRANCH_RETURN	ACCESS:        218  HIT:        216  MISS:          2
BTB BRANCH_OTHER ACCESS:          0  HIT:          0  MISS:          0

L2C TOTAL     ACCESS:    3895802  HIT:    3455439  MISS:     440363  HIT %:    88.6965  MISS %:    11.3035   MPKI: 8.80726
L2C LOAD      ACCESS:      17101  HIT:       9579  MISS:       7522  HIT %:    56.0143  MISS %:    43.9857   MPKI: 0.15044
L2C DATA LOAD MPKI: 0.15044
L2C INSTRUCTION LOAD MPKI: 0
L2C RFO       ACCESS:        763  HIT:        761  MISS:          2  HIT %:    99.7379  MISS %:   0.262123   MPKI: 4e-05
L2C PREFETCH  ACCESS:    3431828  HIT:    2999873  MISS:     431955  HIT %:    87.4133  MISS %:    12.5867   MPKI: 8.6391
L2C DATA PREFETCH MPKI: 8.6391
L2C INSTRUCTION PREFETCH MPKI: 0
L2C WRITEBACK ACCESS:     439247  HIT:     439247  MISS:          0  HIT %:        100  MISS %:          0   MPKI: 0
L2C LOAD TRANSLATION ACCESS:       6863  HIT:       5979  MISS:        884  HIT %:    87.1193  MISS %:    12.8807   MPKI: 0.01768
L2C PREFETCH  REQUESTED:    3276871  ISSUED:    3276693  USEFUL:       2319  USELESS:     430236
L2C USEFUL LOAD PREFETCHES:       2319 PREFETCH ISSUED TO LOWER LEVEL:     431967  ACCURACY: 0.536847
L2C TIMELY PREFETCHES:       2319 LATE PREFETCHES: 11 DROPPED PREFETCHES: 0
L2C PREFETCHES SAME FILL-ORIGIN LEVEL: 383513 DIFFERENT FILL-ORIGIN LEVEL: 0
L2C AVERAGE MISS LATENCY: 211.119 cycles
L2C RQ	ACCESS:      24727	FORWARD:          0	MERGED:          0	TO_CACHE:      24727
L2C WQ	ACCESS:     439247	FORWARD:          0	MERGED:          0	TO_CACHE:     439247
L2C PQ	ACCESS:    3923622	FORWARD:          0	MERGED:      80105	TO_CACHE:    3843517

L2C Instructions Evicting Data 0
L2C Translations Evicting Data 884
L2C Data Evicting Data 438594
L2C Instructions Evicting Instructions 0
L2C Translations Evicting Instructions 0
L2C Data Evicting Instructions 0
L2C Instructions Evicting Translations 0
L2C Translations Evicting Translations 0
L2C Data Evicting Translations 885
L2C Dense regions hint from L2: 0
PSCL5 TOTAL     ACCESS:       6863  HIT:       6863  MISS:          0  HIT %:        100  MISS %:          0   MPKI: 0
PSCL5 LOAD TRANSLATION ACCESS:       6863  HIT:       6863  MISS:          0  HIT %:        100  MISS %:          0   MPKI: 0
PSCL5 PREFETCH  REQUESTED:          0  ISSUED:          0  USEFUL:          0  USELESS:          0
PSCL5 USEFUL LOAD PREFETCHES:          0 PREFETCH ISSUED TO LOWER LEVEL:          0  ACCURACY: -nan
PSCL5 TIMELY PREFETCHES:          0 LATE PREFETCHES: 0 DROPPED PREFETCHES: 0
PSCL5 PREFETCHES SAME FILL-ORIGIN LEVEL: 0 DIFFERENT FILL-ORIGIN LEVEL: 0

PSCL4 TOTAL     ACCESS:       6863  HIT:       6863  MISS:          0  HIT %:        100  MISS %:          0   MPKI: 0
PSCL4 LOAD TRANSLATION ACCESS:       6863  HIT:       6863  MISS:          0  HIT %:        100  MISS %:          0   MPKI: 0
PSCL4 PREFETCH  REQUESTED:          0  ISSUED:          0  USEFUL:          0  USELESS:          0
PSCL4 USEFUL LOAD PREFETCHES:          0 PREFETCH ISSUED TO LOWER LEVEL:          0  ACCURACY: -nan
PSCL4 TIMELY PREFETCHES:          0 LATE PREFETCHES: 0 DROPPED PREFETCHES: 0
PSCL4 PREFETCHES SAME FILL-ORIGIN LEVEL: 0 DIFFERENT FILL-ORIGIN LEVEL: 0

PSCL3 TOTAL     ACCESS:       6863  HIT:       6863  MISS:          0  HIT %:        100  MISS %:          0   MPKI: 0
PSCL3 LOAD TRANSLATION ACCESS:       6863  HIT:       6863  MISS:          0  HIT %:        100  MISS %:          0   MPKI: 0
PSCL3 PREFETCH  REQUESTED:          0  ISSUED:          0  USEFUL:          0  USELESS:          0
PSCL3 USEFUL LOAD PREFETCHES:          0 PREFETCH ISSUED TO LOWER LEVEL:          0  ACCURACY: -nan
PSCL3 TIMELY PREFETCHES:          0 LATE PREFETCHES: 0 DROPPED PREFETCHES: 0
PSCL3 PREFETCHES SAME FILL-ORIGIN LEVEL: 0 DIFFERENT FILL-ORIGIN LEVEL: 0

PSCL2 TOTAL     ACCESS:       6863  HIT:       6841  MISS:         22  HIT %:    99.6794  MISS %:    0.32056   MPKI: 0.00044
PSCL2 LOAD TRANSLATION ACCESS:       6863  HIT:       6841  MISS:         22  HIT %:    99.6794  MISS %:    0.32056   MPKI: 0.00044
PSCL2 PREFETCH  REQUESTED:          0  ISSUED:          0  USEFUL:          0  USELESS:          0
PSCL2 USEFUL LOAD PREFETCHES:          0 PREFETCH ISSUED TO LOWER LEVEL:          0  ACCURACY: -nan
PSCL2 TIMELY PREFETCHES:          0 LATE PREFETCHES: 0 DROPPED PREFETCHES: 0
PSCL2 PREFETCHES SAME FILL-ORIGIN LEVEL: 0 DIFFERENT FILL-ORIGIN LEVEL: 0

LLC TOTAL     ACCESS:     878646  HIT:     438643  MISS:     440003  HIT %:    49.9226  MISS %:    50.0774   MPKI: 8.80006
LLC LOAD      ACCESS:       7511  HIT:         13  MISS:       7498  HIT %:   0.173079  MISS %:    99.8269   MPKI: 0.14996
LLC RFO       ACCESS:          2  HIT:          2  MISS:          0  HIT %:        100  MISS %:          0   MPKI: 0
LLC PREFETCH  ACCESS:     431966  HIT:        347  MISS:     431619  HIT %:  0.0803304  MISS %:    99.9197   MPKI: 8.63238
LLC WRITEBACK ACCESS:     438283  HIT:     438281  MISS:          2  HIT %:    99.9995  MISS %: 0.000456326   MPKI: 4e-05
LLC LOAD TRANSLATION ACCESS:        884  HIT:          0  MISS:        884  HIT %:          0  MISS %:        100   MPKI: 0.01768
LLC PREFETCH  REQUESTED:          0  ISSUED:          0  USEFUL:          7  USELESS:     431645
LLC USEFUL LOAD PREFETCHES:          7 PREFETCH ISSUED TO LOWER LEVEL:     431620  ACCURACY: 0.0016218
LLC TIMELY PREFETCHES:          7 LATE PREFETCHES: 0 DROPPED PREFETCHES: 0
LLC PREFETCHES SAME FILL-ORIGIN LEVEL: 0 DIFFERENT FILL-ORIGIN LEVEL: 0
LLC AVERAGE MISS LATENCY: 181.261 cycles
LLC RQ	ACCESS:       8397	FORWARD:          0	MERGED:          0	TO_CACHE:       8397
LLC WQ	ACCESS:     438284	FORWARD:          0	MERGED:          0	TO_CACHE:     438284
LLC PQ	ACCESS:     431967	FORWARD:          0	MERGED:          0	TO_CACHE:     431967

LLC Dense regions hint to LLC: 0

RAW hits: 787
Loads Generated: 17542256
Loads sent to L1D: 17541474
Stores Generated: 3510266
Stores sent to L1D: 3510266
Major fault: 0 Minor fault: 8337
Allocated PAGES: 8337

stream: 
stream:times selected: 1871001
stream:pref_filled: 764326
stream:pref_useful: 760878
stream:pref_late: 4097
stream:misses: 76
stream:misses_by_poll: 0

CS: 
CS:times selected: 1720101
CS:pref_filled: 3126
CS:pref_useful: 2903
CS:pref_late: 2
CS:misses: 33933
CS:misses_by_poll: 12

CPLX: 
CPLX:times selected: 150808
CPLX:pref_filled: 5042
CPLX:pref_useful: 4966
CPLX:pref_late: 0
CPLX:misses: 2521
CPLX:misses_by_poll: 8

NL_L1: 
NL:times selected: 12
NL:pref_filled: 1
NL:pref_useful: 1
NL:pref_late: 0
NL:misses: 0
NL:misses_by_poll: 0

total selections: 3741922
total_filled: 642881
total_useful: 639765
total_late: 4108
total_polluted: 20
total_misses_after_warmup: 36589
conflicts: 485
Degree Incremented Times: 164563
Degree Decremented Times: 0

L1 IP Table Write Accesses: 9066707
L1 IP Table Read Accesses: 9066222
L1 RST Write Accesses: 1492547
L1 RST Read Accesses: 2985094
L1 CSPT Write Accesses: 1492547
L1 CSPT Read Accesses: 1765445
L1 RR Filter Tag Write Accesses: 659900
L1 RR Filter Tag Read Accesses: 336030939
L1 IP Table Tag Write Accesses: 9068512
L1 IP Table Tag Read Accesses: 9068512
L1 RST Tag Write Accesses: 0
L1 RST Tag Read Accesses: 13464744
L1 RR Filter Write Accesses: 0
L1 RR Filter Read Accesses: 12759393
test: 47606
L2 IP Table Read Accesses: 1172346
L2 IP Table Write Accesses: 1155781
L2 IP Table Tag Read Accesses: 586466
L2 IP Table Tag Write Accesses: 586466

DRAM Statistics
 CHANNEL 0
 RQ ROW_BUFFER_HIT:      56077  ROW_BUFFER_MISS:     383924
 DBUS_CONGESTED:     542187
 WQ ROW_BUFFER_HIT:     316838  ROW_BUFFER_MISS:     121424  FULL:          0

 AVG_CONGESTED_CYCLE: 14
 All warmup complete: 2
Channel 0 Bank busy for read cycles: 0
Channel 0 Bank busy for write cycles: 0
Channel 0
Rank 0
0banks busy for read cycles: 3289797
0banks busy for write cycles: 7078
1banks busy for read cycles: 19851884
1banks busy for write cycles: 346645
2banks busy for read cycles: 10596934
2banks busy for write cycles: 191720
3banks busy for read cycles: 1764444
3banks busy for write cycles: 204206
4banks busy for read cycles: 575708
4banks busy for write cycles: 284328
5banks busy for read cycles: 515324
5banks busy for write cycles: 464266
6banks busy for read cycles: 252774
6banks busy for write cycles: 482411
7banks busy for read cycles: 1127685
7banks busy for write cycles: 1401998
8banks busy for read cycles: 651565
8banks busy for write cycles: 7900012

CPU 0 Branch Prediction Accuracy: 99.9751% MPKI: 0.00438 Average ROB Occupancy at Mispredict: 49.0228
Branch types
NOT_BRANCH: 49121612 98.2432%
BRANCH_DIRECT_JUMP: 218 0.000436%
BRANCH_INDIRECT: 0 0%
BRANCH_CONDITIONAL: 877399 1.7548%
BRANCH_DIRECT_CALL: 218 0.000436%
BRANCH_INDIRECT_CALL: 0 0%
BRANCH_RETURN: 218 0.000436%
BRANCH_OTHER: 0 0%

@sumon_overall_L1D    639765      4047      3118    642881   1319800   1319800
@Sumon_Early_by_class_L1D    637427      1049      1264         0
@Sumon_Late_by_class_L1D      4036         2         0         0

@Sumon_Early_by_cycle_L1D      7813     26019     25834    375638      4193    200261         7         0         0         0         0         0
@Sumon_Late_by_cycle_L1D        16      4031         0         0         0         0         0         0         0         0         0         0
@Sumon_Early_stream_L1D      7787     25366     25535    375231      3681    199826         1         0         0         0         0         0
@Sumon_Early_CS_L1D        13       529       238       164        48        57         0         0         0         0         0         0
@Sumon_Early_CPLX_L1D         0       117        58       241       464       378         6         0         0         0         0         0
@Sumon_Late_stream_L1D        15      4021         0         0         0         0         0         0         0         0         0         0
@Sumon_Late_CS_L1D         0         2         0         0         0         0         0         0         0         0         0         0
@Sumon_Late_CPLX_L1D         0         0         0         0         0         0         0         0         0         0         0         0
@sumon_overall_L2C      2319        11    430236    431955   3276693   3276871
@Sumon_Early_by_class_L2C      2313         0         5         0
@Sumon_Late_by_class_L2C        11         0         0         0

@Sumon_Early_by_cycle_L2C        21        64       739        92        53       218         0         0         0         0         0      1132
@Sumon_Late_by_cycle_L2C         1        10         0         0         0         0         0         0         0         0         0         0
@Sumon_Early_stream_L2C        21        64       739        92        53       218         0         0         0         0         0      1126
@Sumon_Early_CS_L2C         0         0         0         0         0         0         0         0         0         0         0         0
@Sumon_Early_CPLX_L2C         0         0         0         0         0         0         0         0         0         0         0         5
@Sumon_Late_stream_L2C         1        10         0         0         0         0         0         0         0         0         0         0
@Sumon_Late_CS_L2C         0         0         0         0         0         0         0         0         0         0         0         0
@Sumon_Late_CPLX_L2C         0         0         0         0         0         0         0         0         0         0         0         0
DRAM PAGES: 1048576
Allocated PAGES: 8337
