
*** ChampSim Multicore Out-of-Order Simulator ***

Warmup Instructions: 10000000
Simulation Instructions: 50000000
Number of CPUs: 1
LLC sets: 2048
LLC ways: 16
Off-chip DRAM Size: 4096 MB Channels: 1 Width: 64-bit Data Rate: 6400 MT/s
CPU 0 runs traces/SPEC2017/600.perlbench_s-570B.champsimtrace.xz
.xz
CPU 0 Bimodal branch predictor
BTB has LRU replacement policy
ITLB has LRU replacement policy
DTLB has LRU replacement policy
STLB has LRU replacement policy
L1I has LRU replacement policy
IP Table Entries: 256
L1D has LRU replacement policy
IP_Table L2 entries: 256
L2C has LRU replacement policy
Initialize SRRIP state
Heartbeat CPU 0 instructions: 10000003 cycles: 2893542 heartbeat IPC: 3.45597 cumulative IPC: 3.45597 (Simulation time: 0 hr 19 min 56 sec) 

Warmup complete CPU 0 instructions: 10000003 cycles: 2893542 (Simulation time: 0 hr 19 min 56 sec) 

Heartbeat CPU 0 instructions: 20000003 cycles: 18672333 heartbeat IPC: 0.633762 cumulative IPC: 0.633762 (Simulation time: 0 hr 38 min 9 sec) 
Heartbeat CPU 0 instructions: 30000002 cycles: 35026263 heartbeat IPC: 0.611474 cumulative IPC: 0.622418 (Simulation time: 0 hr 57 min 4 sec) 
Heartbeat CPU 0 instructions: 40000000 cycles: 51071483 heartbeat IPC: 0.623238 cumulative IPC: 0.622692 (Simulation time: 1 hr 15 min 5 sec) 
Heartbeat CPU 0 instructions: 50000003 cycles: 66519092 heartbeat IPC: 0.64735 cumulative IPC: 0.628678 (Simulation time: 1 hr 33 min 20 sec) 
Heartbeat CPU 0 instructions: 60000000 cycles: 81719727 heartbeat IPC: 0.657867 cumulative IPC: 0.634307 (Simulation time: 1 hr 48 min 56 sec) 
Finished CPU 0 instructions: 50000001 cycles: 78826186 cumulative IPC: 0.634307 (Simulation time: 1 hr 48 min 56 sec) 

ChampSim completed all CPUs

Region of Interest Statistics

CPU 0 cumulative IPC: 0.634307 instructions: 50000001 cycles: 78826186
ITLB TOTAL     ACCESS:    7354569  HIT:    7354380  MISS:        189  HIT %:    99.9974  MISS %: 0.00256983   MPKI: 0.00378
ITLB LOAD TRANSLATION ACCESS:    7354569  HIT:    7354380  MISS:        189  HIT %:    99.9974  MISS %: 0.00256983   MPKI: 0.00378
ITLB PREFETCH  REQUESTED:          0  ISSUED:          0  USEFUL:          0  USELESS:          0
ITLB USEFUL LOAD PREFETCHES:          0 PREFETCH ISSUED TO LOWER LEVEL:          0  ACCURACY: -nan
ITLB TIMELY PREFETCHES:          0 LATE PREFETCHES: 0 DROPPED PREFETCHES: 0
ITLB PREFETCHES SAME FILL-ORIGIN LEVEL: 0 DIFFERENT FILL-ORIGIN LEVEL: 0
ITLB AVERAGE MISS LATENCY: 11.1323 cycles
ITLB RQ	ACCESS:    8343807	FORWARD:          0	MERGED:     989195	TO_CACHE:    7354612

DTLB TOTAL     ACCESS:   12653414  HIT:   12619504  MISS:      33910  HIT %:     99.732  MISS %:   0.267991   MPKI: 0.6782
DTLB LOAD TRANSLATION ACCESS:   12653414  HIT:   12619504  MISS:      33910  HIT %:     99.732  MISS %:   0.267991   MPKI: 0.6782
DTLB PREFETCH  REQUESTED:          0  ISSUED:          0  USEFUL:          0  USELESS:          0
DTLB USEFUL LOAD PREFETCHES:          0 PREFETCH ISSUED TO LOWER LEVEL:          0  ACCURACY: -nan
DTLB TIMELY PREFETCHES:          0 LATE PREFETCHES: 0 DROPPED PREFETCHES: 0
DTLB PREFETCHES SAME FILL-ORIGIN LEVEL: 0 DIFFERENT FILL-ORIGIN LEVEL: 0
DTLB AVERAGE MISS LATENCY: 10.5142 cycles
DTLB RQ	ACCESS:   19242785	FORWARD:          0	MERGED:    6589186	TO_CACHE:   12653599

STLB TOTAL     ACCESS:     101602  HIT:     101293  MISS:        309  HIT %:    99.6959  MISS %:   0.304128   MPKI: 0.00618
STLB LOAD TRANSLATION ACCESS:      34099  HIT:      33790  MISS:        309  HIT %:    99.0938  MISS %:   0.906185   MPKI: 0.00618
STLB TRANSLATION FROM L1D PREFETCHER ACCESS:      67503  HIT:      67503  MISS:          0  HIT %:        100  MISS %:          0   MPKI: 0
STLB PREFETCH  REQUESTED:          0  ISSUED:          0  USEFUL:          0  USELESS:          0
STLB USEFUL LOAD PREFETCHES:          0 PREFETCH ISSUED TO LOWER LEVEL:          0  ACCURACY: -nan
STLB TIMELY PREFETCHES:          0 LATE PREFETCHES: 0 DROPPED PREFETCHES: 0
STLB PREFETCHES SAME FILL-ORIGIN LEVEL: 0 DIFFERENT FILL-ORIGIN LEVEL: 0
STLB AVERAGE MISS LATENCY: 165.887 cycles
STLB RQ	ACCESS:     116387	FORWARD:          0	MERGED:      14785	TO_CACHE:     101602

STLB Hit, L1D data hit: 0
STLB Hit, L2C data hit: 0
STLB Hit, LLC data hit: 0
STLB Hit, LLC data miss: 0
STLB STLB hints to L2: 0
L1D TOTAL     ACCESS:   19324279  HIT:   19316989  MISS:       7290  HIT %:    99.9623  MISS %:  0.0377246   MPKI: 0.1458
L1D LOAD      ACCESS:    8507447  HIT:    8504272  MISS:       3175  HIT %:    99.9627  MISS %:  0.0373202   MPKI: 0.0635
L1D RFO       ACCESS:   10734580  HIT:   10734396  MISS:        184  HIT %:    99.9983  MISS %: 0.00171409   MPKI: 0.00368
L1D PREFETCH  ACCESS:      82252  HIT:      78321  MISS:       3931  HIT %:    95.2208  MISS %:    4.77922   MPKI: 0.07862
L1D PREFETCH  REQUESTED:     164576  ISSUED:     164576  USEFUL:       1308  USELESS:       2582
L1D USEFUL LOAD PREFETCHES:       1308 PREFETCH ISSUED TO LOWER LEVEL:       3931  ACCURACY: 33.274
L1D TIMELY PREFETCHES:       1308 LATE PREFETCHES: 94 DROPPED PREFETCHES: 0
L1D PREFETCHES SAME FILL-ORIGIN LEVEL: 3931 DIFFERENT FILL-ORIGIN LEVEL: 0
L1D AVERAGE MISS LATENCY: 141.262 cycles
L1D RQ	ACCESS:   10818816	FORWARD:          0	MERGED:    1977730	TO_CACHE:    8507912
L1D WQ	ACCESS:   10830029	FORWARD:     333174	MERGED:      95156	TO_CACHE:   10734873
L1D PQ	ACCESS:      82288	FORWARD:          0	MERGED:          0	TO_CACHE:      82288

L1D UNIQUE REGIONS ACCESSED: 0
L1D REGIONS CONFLICTS: 0
L1D Cross Page Prefetch Requests: 0
L1D Same Page Prefetch Requests: 175666
L1D ROI Sum of L1D PQ occupancy: 1071868
L1D PREFETCHES PUSHED FROM L2C: 0
L1I TOTAL     ACCESS:    8343317  HIT:    8341431  MISS:       1886  HIT %:    99.9774  MISS %:  0.0226049   MPKI: 0.03772
L1I LOAD      ACCESS:    8343317  HIT:    8341431  MISS:       1886  HIT %:    99.9774  MISS %:  0.0226049   MPKI: 0.03772
L1I PREFETCH  REQUESTED:          0  ISSUED:          0  USEFUL:          0  USELESS:          0
L1I USEFUL LOAD PREFETCHES:          0 PREFETCH ISSUED TO LOWER LEVEL:          0  ACCURACY: -nan
L1I TIMELY PREFETCHES:          0 LATE PREFETCHES: 0 DROPPED PREFETCHES: 0
L1I PREFETCHES SAME FILL-ORIGIN LEVEL: 0 DIFFERENT FILL-ORIGIN LEVEL: 0
L1I AVERAGE MISS LATENCY: 27.4242 cycles
L1I RQ	ACCESS:   13352833	FORWARD:          0	MERGED:    5009026	TO_CACHE:    8343807

BTB TOTAL     ACCESS:    4994041  HIT:    4730753  MISS:     263288  HIT %:     94.728  MISS %:    5.27204   MPKI: 5.26576
BTB BRANCH_DIRECT_JUMP	ACCESS:    1003467  HIT:    1003316  MISS:        151
BTB BRANCH_INDIRECT	ACCESS:     365932  HIT:     110976  MISS:     254956
BTB BRANCH_CONDITIONAL	ACCESS:    2901535  HIT:    2901105  MISS:        430
BTB BRANCH_DIRECT_CALL	ACCESS:     355129  HIT:     355070  MISS:         59
BTB BRANCH_INDIRECT_CALL	ACCESS:       6424  HIT:       3196  MISS:       3228
BTB BRANCH_RETURN	ACCESS:     361554  HIT:     357090  MISS:       4464
BTB BRANCH_OTHER ACCESS:          0  HIT:          0  MISS:          0

L2C TOTAL     ACCESS:      10654  HIT:       4260  MISS:       6394  HIT %:     39.985  MISS %:     60.015   MPKI: 0.12788
L2C LOAD      ACCESS:       5061  HIT:       1947  MISS:       3114  HIT %:    38.4707  MISS %:    61.5293   MPKI: 0.06228
L2C DATA LOAD MPKI: 0.0591
L2C INSTRUCTION LOAD MPKI: 0.00318
L2C RFO       ACCESS:        184  HIT:         44  MISS:        140  HIT %:     23.913  MISS %:     76.087   MPKI: 0.0028
L2C PREFETCH  ACCESS:       4500  HIT:       1450  MISS:       3050  HIT %:    32.2222  MISS %:    67.7778   MPKI: 0.061
L2C DATA PREFETCH MPKI: 0.061
L2C INSTRUCTION PREFETCH MPKI: 0
L2C WRITEBACK ACCESS:        593  HIT:        589  MISS:          4  HIT %:    99.3255  MISS %:   0.674536   MPKI: 8e-05
L2C LOAD TRANSLATION ACCESS:        316  HIT:        230  MISS:         86  HIT %:    72.7848  MISS %:    27.2152   MPKI: 0.00172
L2C PREFETCH  REQUESTED:        722  ISSUED:        722  USEFUL:         92  USELESS:       1005
L2C USEFUL LOAD PREFETCHES:         92 PREFETCH ISSUED TO LOWER LEVEL:       3055  ACCURACY: 3.01146
L2C TIMELY PREFETCHES:         92 LATE PREFETCHES: 5 DROPPED PREFETCHES: 0
L2C PREFETCHES SAME FILL-ORIGIN LEVEL: 291 DIFFERENT FILL-ORIGIN LEVEL: 0
L2C AVERAGE MISS LATENCY: 157.948 cycles
L2C RQ	ACCESS:       5561	FORWARD:          0	MERGED:          0	TO_CACHE:       5561
L2C WQ	ACCESS:        593	FORWARD:          0	MERGED:          0	TO_CACHE:        593
L2C PQ	ACCESS:       4653	FORWARD:          0	MERGED:         74	TO_CACHE:       4579

L2C Instructions Evicting Data 55
L2C Translations Evicting Data 19
L2C Data Evicting Data 1714
L2C Instructions Evicting Instructions 10
L2C Translations Evicting Instructions 1
L2C Data Evicting Instructions 250
L2C Instructions Evicting Translations 4
L2C Translations Evicting Translations 0
L2C Data Evicting Translations 72
L2C Dense regions hint from L2: 0
PSCL5 TOTAL     ACCESS:        309  HIT:        309  MISS:          0  HIT %:        100  MISS %:          0   MPKI: 0
PSCL5 LOAD TRANSLATION ACCESS:        309  HIT:        309  MISS:          0  HIT %:        100  MISS %:          0   MPKI: 0
PSCL5 PREFETCH  REQUESTED:          0  ISSUED:          0  USEFUL:          0  USELESS:          0
PSCL5 USEFUL LOAD PREFETCHES:          0 PREFETCH ISSUED TO LOWER LEVEL:          0  ACCURACY: -nan
PSCL5 TIMELY PREFETCHES:          0 LATE PREFETCHES: 0 DROPPED PREFETCHES: 0
PSCL5 PREFETCHES SAME FILL-ORIGIN LEVEL: 0 DIFFERENT FILL-ORIGIN LEVEL: 0

PSCL4 TOTAL     ACCESS:        309  HIT:        309  MISS:          0  HIT %:        100  MISS %:          0   MPKI: 0
PSCL4 LOAD TRANSLATION ACCESS:        309  HIT:        309  MISS:          0  HIT %:        100  MISS %:          0   MPKI: 0
PSCL4 PREFETCH  REQUESTED:          0  ISSUED:          0  USEFUL:          0  USELESS:          0
PSCL4 USEFUL LOAD PREFETCHES:          0 PREFETCH ISSUED TO LOWER LEVEL:          0  ACCURACY: -nan
PSCL4 TIMELY PREFETCHES:          0 LATE PREFETCHES: 0 DROPPED PREFETCHES: 0
PSCL4 PREFETCHES SAME FILL-ORIGIN LEVEL: 0 DIFFERENT FILL-ORIGIN LEVEL: 0

PSCL3 TOTAL     ACCESS:        309  HIT:        309  MISS:          0  HIT %:        100  MISS %:          0   MPKI: 0
PSCL3 LOAD TRANSLATION ACCESS:        309  HIT:        309  MISS:          0  HIT %:        100  MISS %:          0   MPKI: 0
PSCL3 PREFETCH  REQUESTED:          0  ISSUED:          0  USEFUL:          0  USELESS:          0
PSCL3 USEFUL LOAD PREFETCHES:          0 PREFETCH ISSUED TO LOWER LEVEL:          0  ACCURACY: -nan
PSCL3 TIMELY PREFETCHES:          0 LATE PREFETCHES: 0 DROPPED PREFETCHES: 0
PSCL3 PREFETCHES SAME FILL-ORIGIN LEVEL: 0 DIFFERENT FILL-ORIGIN LEVEL: 0

PSCL2 TOTAL     ACCESS:        309  HIT:        296  MISS:         13  HIT %:    95.7929  MISS %:    4.20712   MPKI: 0.00026
PSCL2 LOAD TRANSLATION ACCESS:        309  HIT:        296  MISS:         13  HIT %:    95.7929  MISS %:    4.20712   MPKI: 0.00026
PSCL2 PREFETCH  REQUESTED:          0  ISSUED:          0  USEFUL:          0  USELESS:          0
PSCL2 USEFUL LOAD PREFETCHES:          0 PREFETCH ISSUED TO LOWER LEVEL:          0  ACCURACY: -nan
PSCL2 TIMELY PREFETCHES:          0 LATE PREFETCHES: 0 DROPPED PREFETCHES: 0
PSCL2 PREFETCHES SAME FILL-ORIGIN LEVEL: 0 DIFFERENT FILL-ORIGIN LEVEL: 0

LLC TOTAL     ACCESS:       6516  HIT:        196  MISS:       6320  HIT %:    3.00798  MISS %:     96.992   MPKI: 0.1264
LLC LOAD      ACCESS:       3109  HIT:         33  MISS:       3076  HIT %:    1.06143  MISS %:    98.9386   MPKI: 0.06152
LLC RFO       ACCESS:        140  HIT:          0  MISS:        140  HIT %:          0  MISS %:        100   MPKI: 0.0028
LLC PREFETCH  ACCESS:       3055  HIT:         31  MISS:       3024  HIT %:    1.01473  MISS %:    98.9853   MPKI: 0.06048
LLC WRITEBACK ACCESS:        126  HIT:        126  MISS:          0  HIT %:        100  MISS %:          0   MPKI: 0
LLC LOAD TRANSLATION ACCESS:         86  HIT:          6  MISS:         80  HIT %:    6.97674  MISS %:    93.0233   MPKI: 0.0016
LLC PREFETCH  REQUESTED:          0  ISSUED:          0  USEFUL:          3  USELESS:          0
LLC USEFUL LOAD PREFETCHES:          3 PREFETCH ISSUED TO LOWER LEVEL:       3024  ACCURACY: 0.0992063
LLC TIMELY PREFETCHES:          3 LATE PREFETCHES: 0 DROPPED PREFETCHES: 0
LLC PREFETCHES SAME FILL-ORIGIN LEVEL: 0 DIFFERENT FILL-ORIGIN LEVEL: 0
LLC AVERAGE MISS LATENCY: 129.216 cycles
LLC RQ	ACCESS:       3335	FORWARD:          0	MERGED:          0	TO_CACHE:       3335
LLC WQ	ACCESS:        126	FORWARD:          0	MERGED:          0	TO_CACHE:        126
LLC PQ	ACCESS:       3055	FORWARD:          0	MERGED:          0	TO_CACHE:       3055

LLC Dense regions hint to LLC: 0

RAW hits: 778114
Loads Generated: 11596922
Loads sent to L1D: 10818816
Stores Generated: 10830023
Stores sent to L1D: 10830029
Major fault: 0 Minor fault: 672
Allocated PAGES: 672

stream: 
stream:times selected: 771796
stream:pref_filled: 2999
stream:pref_useful: 1069
stream:pref_late: 69
stream:misses: 176
stream:misses_by_poll: 0

CS: 
CS:times selected: 18215
CS:pref_filled: 578
CS:pref_useful: 493
CS:pref_late: 0
CS:misses: 23
CS:misses_by_poll: 0

CPLX: 
CPLX:times selected: 753354
CPLX:pref_filled: 2092
CPLX:pref_useful: 254
CPLX:pref_late: 11
CPLX:misses: 1569
CPLX:misses_by_poll: 3

NL_L1: 
NL:times selected: 619
NL:pref_filled: 18
NL:pref_useful: 8
NL:pref_late: 0
NL:misses: 9
NL:misses_by_poll: 0

total selections: 1543984
total_filled: 3931
total_useful: 1308
total_late: 81
total_polluted: 3
total_misses_after_warmup: 3643
conflicts: 121668
Degree Incremented Times: 0
Degree Decremented Times: 64992

L1 IP Table Write Accesses: 7566349
L1 IP Table Read Accesses: 7444681
L1 RST Write Accesses: 646257
L1 RST Read Accesses: 1292514
L1 CSPT Write Accesses: 646257
L1 CSPT Read Accesses: 1277994
L1 RR Filter Tag Write Accesses: 82288
L1 RR Filter Tag Read Accesses: 20794264
L1 IP Table Tag Write Accesses: 8507915
L1 IP Table Tag Read Accesses: 8507915
L1 RST Tag Write Accesses: 0
L1 RST Tag Read Accesses: 9048482
L1 RR Filter Write Accesses: 0
L1 RR Filter Read Accesses: 1160423
test: 9372
L2 IP Table Read Accesses: 13332
L2 IP Table Write Accesses: 10987
L2 IP Table Tag Read Accesses: 7028
L2 IP Table Tag Write Accesses: 7028

DRAM Statistics
 CHANNEL 0
 RQ ROW_BUFFER_HIT:       2817  ROW_BUFFER_MISS:       3503
 DBUS_CONGESTED:          0
 WQ ROW_BUFFER_HIT:          0  ROW_BUFFER_MISS:          0  FULL:          0

 AVG_CONGESTED_CYCLE: -
 All warmup complete: 2
Channel 0 Bank busy for read cycles: 0
Channel 0 Bank busy for write cycles: 0
Channel 0
Rank 0
0banks busy for read cycles: 78375981
0banks busy for write cycles: 0
1banks busy for read cycles: 290824
1banks busy for write cycles: 0
2banks busy for read cycles: 119209
2banks busy for write cycles: 0
3banks busy for read cycles: 28482
3banks busy for write cycles: 0
4banks busy for read cycles: 8000
4banks busy for write cycles: 0
5banks busy for read cycles: 2532
5banks busy for write cycles: 0
6banks busy for read cycles: 1159
6banks busy for write cycles: 0
7banks busy for read cycles: 0
7banks busy for write cycles: 0
8banks busy for read cycles: 0
8banks busy for write cycles: 0

CPU 0 Branch Prediction Accuracy: 97.8399% MPKI: 3.0284 Average ROB Occupancy at Mispredict: 45.9391
Branch types
NOT_BRANCH: 42989829 85.9797%
BRANCH_DIRECT_JUMP: 1003467 2.00693%
BRANCH_INDIRECT: 365932 0.731864%
BRANCH_CONDITIONAL: 4917335 9.83467%
BRANCH_DIRECT_CALL: 355129 0.710258%
BRANCH_INDIRECT_CALL: 6424 0.012848%
BRANCH_RETURN: 361554 0.723108%
BRANCH_OTHER: 0 0%

@sumon_overall_L1D      1308        94        94      2582      3931    164576    164576
@Sumon_Early_by_class_L1D       728       365       193         0
@Sumon_Late_by_class_L1D        65         0        10         0

@Sumon_Early_by_cycle_L1D       158        94        69        43        51       160        85        37        27        67        94       423
@Sumon_Late_by_cycle_L1D         5         2        19        26        24         0
@Sumon_Early_stream_L1D       132        85        50        33        38       104        57        22        20        28        35       124
@Sumon_Early_CS_L1D         6         4         8         3         5        25        11        10         2        32        51       208
@Sumon_Early_CPLX_L1D        11         5        11         6         5        27        17         5         5         5         7        89
@Sumon_Late_stream_L1D         2         2        15        24        22         0
@Sumon_Late_CS_L1D         0         0         0         0         0         0
@Sumon_Late_CPLX_L1D         3         0         4         1         2         0
@sumon_overall_L2C        92         5         0      1005      3050       722       722
@Sumon_Early_by_class_L2C        13         2        10         0
@Sumon_Late_by_class_L2C         0         0         0         0

@Sumon_Early_by_cycle_L2C         7         0        12         8         1         7         2         4         2         4         1        44
@Sumon_Late_by_cycle_L2C         1         0         1         3         0         0
@Sumon_Early_stream_L2C         0         0         0         0         0         0         0         0         0         0         0        13
@Sumon_Early_CS_L2C         0         0         0         0         0         0         0         0         0         0         0         2
@Sumon_Early_CPLX_L2C         0         0         0         0         0         0         0         0         0         0         0        10
@Sumon_Late_stream_L2C         0         0         0         0         0         0
@Sumon_Late_CS_L2C         0         0         0         0         0         0
@Sumon_Late_CPLX_L2C         0         0         0         0         0         0
DRAM PAGES: 1048576
Allocated PAGES: 672
