
*** ChampSim Multicore Out-of-Order Simulator ***

Warmup Instructions: 10000000
Simulation Instructions: 50000000
Number of CPUs: 1
LLC sets: 2048
LLC ways: 16
Off-chip DRAM Size: 4096 MB Channels: 1 Width: 64-bit Data Rate: 6400 MT/s
CPU 0 runs traces/SPEC2017/602.gcc_s-734B.champsimtrace.xz
.xz
CPU 0 Bimodal branch predictor
BTB has LRU replacement policy
ITLB has LRU replacement policy
DTLB has LRU replacement policy
STLB has LRU replacement policy
L1I has LRU replacement policy
IP Table Entries: 256
L1D has LRU replacement policy
IP_Table L2 entries: 256
L2C has LRU replacement policy
Initialize SRRIP state
Heartbeat CPU 0 instructions: 10000002 cycles: 3228996 heartbeat IPC: 3.09694 cumulative IPC: 3.09694 (Simulation time: 0 hr 21 min 42 sec) 

Warmup complete CPU 0 instructions: 10000002 cycles: 3228996 (Simulation time: 0 hr 21 min 42 sec) 

Heartbeat CPU 0 instructions: 20000000 cycles: 28252280 heartbeat IPC: 0.399628 cumulative IPC: 0.399628 (Simulation time: 0 hr 42 min 0 sec) 
Heartbeat CPU 0 instructions: 30000000 cycles: 53120937 heartbeat IPC: 0.402113 cumulative IPC: 0.400866 (Simulation time: 1 hr 2 min 4 sec) 
Heartbeat CPU 0 instructions: 40000002 cycles: 77999061 heartbeat IPC: 0.40196 cumulative IPC: 0.40123 (Simulation time: 1 hr 22 min 14 sec) 
Heartbeat CPU 0 instructions: 50000000 cycles: 102696318 heartbeat IPC: 0.404903 cumulative IPC: 0.402142 (Simulation time: 1 hr 41 min 32 sec) 
Heartbeat CPU 0 instructions: 60000000 cycles: 127335783 heartbeat IPC: 0.405853 cumulative IPC: 0.402879 (Simulation time: 1 hr 52 min 56 sec) 
Finished CPU 0 instructions: 50000000 cycles: 124106801 cumulative IPC: 0.402879 (Simulation time: 1 hr 52 min 56 sec) 

ChampSim completed all CPUs

Region of Interest Statistics

CPU 0 cumulative IPC: 0.402879 instructions: 50000000 cycles: 124106801
ITLB TOTAL     ACCESS:    7536521  HIT:    7536519  MISS:          2  HIT %:        100  MISS %: 2.65374e-05   MPKI: 4e-05
ITLB LOAD TRANSLATION ACCESS:    7536521  HIT:    7536519  MISS:          2  HIT %:        100  MISS %: 2.65374e-05   MPKI: 4e-05
ITLB PREFETCH  REQUESTED:          0  ISSUED:          0  USEFUL:          0  USELESS:          0
ITLB USEFUL LOAD PREFETCHES:          0 PREFETCH ISSUED TO LOWER LEVEL:          0  ACCURACY: -nan
ITLB TIMELY PREFETCHES:          0 LATE PREFETCHES: 0 DROPPED PREFETCHES: 0
ITLB PREFETCHES SAME FILL-ORIGIN LEVEL: 0 DIFFERENT FILL-ORIGIN LEVEL: 0
ITLB AVERAGE MISS LATENCY: 588 cycles
ITLB RQ	ACCESS:    8174479	FORWARD:          0	MERGED:     637958	TO_CACHE:    7536521

DTLB TOTAL     ACCESS:   14735335  HIT:   14720974  MISS:      14361  HIT %:    99.9025  MISS %:  0.0974596   MPKI: 0.28722
DTLB LOAD TRANSLATION ACCESS:   14735335  HIT:   14720974  MISS:      14361  HIT %:    99.9025  MISS %:  0.0974596   MPKI: 0.28722
DTLB PREFETCH  REQUESTED:          0  ISSUED:          0  USEFUL:          0  USELESS:          0
DTLB USEFUL LOAD PREFETCHES:          0 PREFETCH ISSUED TO LOWER LEVEL:          0  ACCURACY: -nan
DTLB TIMELY PREFETCHES:          0 LATE PREFETCHES: 0 DROPPED PREFETCHES: 0
DTLB PREFETCHES SAME FILL-ORIGIN LEVEL: 0 DIFFERENT FILL-ORIGIN LEVEL: 0
DTLB AVERAGE MISS LATENCY: 82.4082 cycles
DTLB RQ	ACCESS:   14959523	FORWARD:          0	MERGED:     223872	TO_CACHE:   14735651

STLB TOTAL     ACCESS:     820008  HIT:     809745  MISS:      10263  HIT %:    98.7484  MISS %:    1.25157   MPKI: 0.20526
STLB LOAD TRANSLATION ACCESS:      14363  HIT:       4101  MISS:      10262  HIT %:    28.5525  MISS %:    71.4475   MPKI: 0.20524
STLB TRANSLATION FROM L1D PREFETCHER ACCESS:     805645  HIT:     805644  MISS:          1  HIT %:    99.9999  MISS %: 0.000124124   MPKI: 2e-05
STLB PREFETCH  REQUESTED:          0  ISSUED:          0  USEFUL:          1  USELESS:          0
STLB USEFUL LOAD PREFETCHES:          1 PREFETCH ISSUED TO LOWER LEVEL:          0  ACCURACY: inf
STLB TIMELY PREFETCHES:          1 LATE PREFETCHES: 0 DROPPED PREFETCHES: 0
STLB PREFETCHES SAME FILL-ORIGIN LEVEL: 0 DIFFERENT FILL-ORIGIN LEVEL: 0
STLB AVERAGE MISS LATENCY: 102.722 cycles
STLB RQ	ACCESS:    1243536	FORWARD:          0	MERGED:     423528	TO_CACHE:     820008

STLB Hit, L1D data hit: 0
STLB Hit, L2C data hit: 0
STLB Hit, LLC data hit: 0
STLB Hit, LLC data miss: 0
STLB STLB hints to L2: 0
L1D TOTAL     ACCESS:   16183238  HIT:   15256388  MISS:     926850  HIT %:    94.2728  MISS %:    5.72722   MPKI: 18.537
L1D LOAD      ACCESS:    9941430  HIT:    9902657  MISS:      38773  HIT %:      99.61  MISS %:   0.390014   MPKI: 0.77546
L1D RFO       ACCESS:    5013983  HIT:    5013944  MISS:         39  HIT %:    99.9992  MISS %: 0.000777825   MPKI: 0.00078
L1D PREFETCH  ACCESS:    1227825  HIT:     339787  MISS:     888038  HIT %:    27.6739  MISS %:    72.3261   MPKI: 17.7608
L1D PREFETCH  REQUESTED:    2458410  ISSUED:    2458349  USEFUL:     767779  USELESS:     120213
L1D USEFUL LOAD PREFETCHES:     767779 PREFETCH ISSUED TO LOWER LEVEL:     889812  ACCURACY: 86.2855
L1D TIMELY PREFETCHES:     767779 LATE PREFETCHES: 324 DROPPED PREFETCHES: 0
L1D PREFETCHES SAME FILL-ORIGIN LEVEL: 889812 DIFFERENT FILL-ORIGIN LEVEL: 0
L1D AVERAGE MISS LATENCY: 28.6141 cycles
L1D RQ	ACCESS:   13120680	FORWARD:          0	MERGED:    3172468	TO_CACHE:    9945519
L1D WQ	ACCESS:    5633019	FORWARD:       2696	MERGED:     619015	TO_CACHE:    5014004
L1D PQ	ACCESS:    1229176	FORWARD:          0	MERGED:          0	TO_CACHE:    1229173

L1D UNIQUE REGIONS ACCESSED: 0
L1D REGIONS CONFLICTS: 0
L1D Cross Page Prefetch Requests: 0
L1D Same Page Prefetch Requests: 1426794
L1D ROI Sum of L1D PQ occupancy: 16532232
L1D PREFETCHES PUSHED FROM L2C: 0
L1I TOTAL     ACCESS:    8174475  HIT:    8174420  MISS:         55  HIT %:    99.9993  MISS %: 0.000672826   MPKI: 0.0011
L1I LOAD      ACCESS:    8174475  HIT:    8174420  MISS:         55  HIT %:    99.9993  MISS %: 0.000672826   MPKI: 0.0011
L1I PREFETCH  REQUESTED:          0  ISSUED:          0  USEFUL:          0  USELESS:          0
L1I USEFUL LOAD PREFETCHES:          0 PREFETCH ISSUED TO LOWER LEVEL:          0  ACCURACY: -nan
L1I TIMELY PREFETCHES:          0 LATE PREFETCHES: 0 DROPPED PREFETCHES: 0
L1I PREFETCHES SAME FILL-ORIGIN LEVEL: 0 DIFFERENT FILL-ORIGIN LEVEL: 0
L1I AVERAGE MISS LATENCY: 203.673 cycles
L1I RQ	ACCESS:   13812021	FORWARD:          0	MERGED:    5637542	TO_CACHE:    8174479

BTB TOTAL     ACCESS:    9209262  HIT:    9202771  MISS:       6491  HIT %:    99.9295  MISS %:  0.0704834   MPKI: 0.12982
BTB BRANCH_DIRECT_JUMP	ACCESS:    1247487  HIT:    1247450  MISS:         37
BTB BRANCH_INDIRECT	ACCESS:          0  HIT:          0  MISS:          0
BTB BRANCH_CONDITIONAL	ACCESS:    6708204  HIT:    6708123  MISS:         81
BTB BRANCH_DIRECT_CALL	ACCESS:     626785  HIT:     626768  MISS:         17
BTB BRANCH_INDIRECT_CALL	ACCESS:          0  HIT:          0  MISS:          0
BTB BRANCH_RETURN	ACCESS:     626786  HIT:     620430  MISS:       6356
BTB BRANCH_OTHER ACCESS:          0  HIT:          0  MISS:          0

L2C TOTAL     ACCESS:    4562495  HIT:    4083698  MISS:     478797  HIT %:    89.5058  MISS %:    10.4942   MPKI: 9.57594
L2C LOAD      ACCESS:      38828  HIT:      25696  MISS:      13132  HIT %:     66.179  MISS %:     33.821   MPKI: 0.26264
L2C DATA LOAD MPKI: 0.26154
L2C INSTRUCTION LOAD MPKI: 0.0011
L2C RFO       ACCESS:         39  HIT:         31  MISS:          8  HIT %:    79.4872  MISS %:    20.5128   MPKI: 0.00016
L2C PREFETCH  ACCESS:    4504564  HIT:    4042896  MISS:     461668  HIT %:    89.7511  MISS %:    10.2489   MPKI: 9.23336
L2C DATA PREFETCH MPKI: 9.23336
L2C INSTRUCTION PREFETCH MPKI: 0
L2C WRITEBACK ACCESS:       7983  HIT:       7979  MISS:          4  HIT %:    99.9499  MISS %:  0.0501065   MPKI: 8e-05
L2C LOAD TRANSLATION ACCESS:      11080  HIT:       7096  MISS:       3984  HIT %:    64.0433  MISS %:    35.9567   MPKI: 0.07968
L2C TRANSLATION FROM L1D PREFETCHER ACCESS:          1  HIT:          0  MISS:          1  HIT %:          0  MISS %:        100   MPKI: 2e-05
L2C PREFETCH  REQUESTED:    4004120  ISSUED:    4000895  USEFUL:       5280  USELESS:     455848
L2C USEFUL LOAD PREFETCHES:       5280 PREFETCH ISSUED TO LOWER LEVEL:     461704  ACCURACY: 1.14359
L2C TIMELY PREFETCHES:       5280 LATE PREFETCHES: 35 DROPPED PREFETCHES: 0
L2C PREFETCHES SAME FILL-ORIGIN LEVEL: 370541 DIFFERENT FILL-ORIGIN LEVEL: 0
L2C AVERAGE MISS LATENCY: 107.069 cycles
L2C RQ	ACCESS:      49948	FORWARD:          0	MERGED:          0	TO_CACHE:      49948
L2C WQ	ACCESS:       7983	FORWARD:          0	MERGED:          0	TO_CACHE:       7983
L2C PQ	ACCESS:    4888933	FORWARD:          0	MERGED:     379786	TO_CACHE:    4509147

L2C Instructions Evicting Data 55
L2C Translations Evicting Data 3957
L2C Data Evicting Data 470711
L2C Instructions Evicting Instructions 0
L2C Translations Evicting Instructions 3
L2C Data Evicting Instructions 52
L2C Instructions Evicting Translations 0
L2C Translations Evicting Translations 25
L2C Data Evicting Translations 3990
L2C Dense regions hint from L2: 0
PSCL5 TOTAL     ACCESS:      10263  HIT:      10263  MISS:          0  HIT %:        100  MISS %:          0   MPKI: 0
PSCL5 LOAD TRANSLATION ACCESS:      10262  HIT:      10262  MISS:          0  HIT %:        100  MISS %:          0   MPKI: 0
PSCL5 TRANSLATION FROM L1D PREFETCHER ACCESS:          1  HIT:          1  MISS:          0  HIT %:        100  MISS %:          0   MPKI: 0
PSCL5 PREFETCH  REQUESTED:          0  ISSUED:          0  USEFUL:          0  USELESS:          0
PSCL5 USEFUL LOAD PREFETCHES:          0 PREFETCH ISSUED TO LOWER LEVEL:          0  ACCURACY: -nan
PSCL5 TIMELY PREFETCHES:          0 LATE PREFETCHES: 0 DROPPED PREFETCHES: 0
PSCL5 PREFETCHES SAME FILL-ORIGIN LEVEL: 0 DIFFERENT FILL-ORIGIN LEVEL: 0

PSCL4 TOTAL     ACCESS:      10263  HIT:      10263  MISS:          0  HIT %:        100  MISS %:          0   MPKI: 0
PSCL4 LOAD TRANSLATION ACCESS:      10262  HIT:      10262  MISS:          0  HIT %:        100  MISS %:          0   MPKI: 0
PSCL4 TRANSLATION FROM L1D PREFETCHER ACCESS:          1  HIT:          1  MISS:          0  HIT %:        100  MISS %:          0   MPKI: 0
PSCL4 PREFETCH  REQUESTED:          0  ISSUED:          0  USEFUL:          0  USELESS:          0
PSCL4 USEFUL LOAD PREFETCHES:          0 PREFETCH ISSUED TO LOWER LEVEL:          0  ACCURACY: -nan
PSCL4 TIMELY PREFETCHES:          0 LATE PREFETCHES: 0 DROPPED PREFETCHES: 0
PSCL4 PREFETCHES SAME FILL-ORIGIN LEVEL: 0 DIFFERENT FILL-ORIGIN LEVEL: 0

PSCL3 TOTAL     ACCESS:      10263  HIT:      10262  MISS:          1  HIT %:    99.9903  MISS %: 0.00974374   MPKI: 2e-05
PSCL3 LOAD TRANSLATION ACCESS:      10262  HIT:      10261  MISS:          1  HIT %:    99.9903  MISS %: 0.00974469   MPKI: 2e-05
PSCL3 TRANSLATION FROM L1D PREFETCHER ACCESS:          1  HIT:          1  MISS:          0  HIT %:        100  MISS %:          0   MPKI: 0
PSCL3 PREFETCH  REQUESTED:          0  ISSUED:          0  USEFUL:          0  USELESS:          0
PSCL3 USEFUL LOAD PREFETCHES:          0 PREFETCH ISSUED TO LOWER LEVEL:          0  ACCURACY: -nan
PSCL3 TIMELY PREFETCHES:          0 LATE PREFETCHES: 0 DROPPED PREFETCHES: 0
PSCL3 PREFETCHES SAME FILL-ORIGIN LEVEL: 0 DIFFERENT FILL-ORIGIN LEVEL: 0

PSCL2 TOTAL     ACCESS:      10263  HIT:       9309  MISS:        954  HIT %:    90.7045  MISS %:    9.29553   MPKI: 0.01908
PSCL2 LOAD TRANSLATION ACCESS:      10262  HIT:       9308  MISS:        954  HIT %:    90.7036  MISS %:    9.29643   MPKI: 0.01908
PSCL2 TRANSLATION FROM L1D PREFETCHER ACCESS:          1  HIT:          1  MISS:          0  HIT %:        100  MISS %:          0   MPKI: 0
PSCL2 PREFETCH  REQUESTED:          0  ISSUED:          0  USEFUL:          0  USELESS:          0
PSCL2 USEFUL LOAD PREFETCHES:          0 PREFETCH ISSUED TO LOWER LEVEL:          0  ACCURACY: -nan
PSCL2 TIMELY PREFETCHES:          0 LATE PREFETCHES: 0 DROPPED PREFETCHES: 0
PSCL2 PREFETCHES SAME FILL-ORIGIN LEVEL: 0 DIFFERENT FILL-ORIGIN LEVEL: 0

LLC TOTAL     ACCESS:     482035  HIT:      41561  MISS:     440474  HIT %:    8.62199  MISS %:     91.378   MPKI: 8.80948
LLC LOAD      ACCESS:      13097  HIT:       2482  MISS:      10615  HIT %:    18.9509  MISS %:    81.0491   MPKI: 0.2123
LLC RFO       ACCESS:          8  HIT:          4  MISS:          4  HIT %:         50  MISS %:         50   MPKI: 8e-05
LLC PREFETCH  ACCESS:     461703  HIT:      34409  MISS:     427294  HIT %:    7.45263  MISS %:    92.5474   MPKI: 8.54588
LLC WRITEBACK ACCESS:       3242  HIT:       2807  MISS:        435  HIT %:    86.5824  MISS %:    13.4176   MPKI: 0.0087
LLC LOAD TRANSLATION ACCESS:       3984  HIT:       1858  MISS:       2126  HIT %:    46.6365  MISS %:    53.3635   MPKI: 0.04252
LLC TRANSLATION FROM L1D PREFETCHER ACCESS:          1  HIT:          1  MISS:          0  HIT %:        100  MISS %:          0   MPKI: 0
LLC PREFETCH  REQUESTED:          0  ISSUED:          0  USEFUL:        203  USELESS:     430134
LLC USEFUL LOAD PREFETCHES:        203 PREFETCH ISSUED TO LOWER LEVEL:     427295  ACCURACY: 0.0475082
LLC TIMELY PREFETCHES:        203 LATE PREFETCHES: 0 DROPPED PREFETCHES: 0
LLC PREFETCHES SAME FILL-ORIGIN LEVEL: 0 DIFFERENT FILL-ORIGIN LEVEL: 0
LLC AVERAGE MISS LATENCY: 83.6184 cycles
LLC RQ	ACCESS:      17090	FORWARD:          0	MERGED:          0	TO_CACHE:      17090
LLC WQ	ACCESS:       3242	FORWARD:          0	MERGED:          0	TO_CACHE:       3242
LLC PQ	ACCESS:     461704	FORWARD:          0	MERGED:          0	TO_CACHE:     461704

LLC Dense regions hint to LLC: 0

RAW hits: 7382
Loads Generated: 13128062
Loads sent to L1D: 13120680
Stores Generated: 5633019
Stores sent to L1D: 5633019
Major fault: 0 Minor fault: 6201
Allocated PAGES: 6201

stream: 
stream:times selected: 4452368
stream:pref_filled: 967128
stream:pref_useful: 851007
stream:pref_late: 319
stream:misses: 2701
stream:misses_by_poll: 0

CS: 
CS:times selected: 3680685
CS:pref_filled: 5620
CS:pref_useful: 5190
CS:pref_late: 6
CS:misses: 20702
CS:misses_by_poll: 17

CPLX: 
CPLX:times selected: 771025
CPLX:pref_filled: 87196
CPLX:pref_useful: 63358
CPLX:pref_late: 49
CPLX:misses: 22666
CPLX:misses_by_poll: 193

NL_L1: 
NL:times selected: 647
NL:pref_filled: 56
NL:pref_useful: 52
NL:pref_late: 2
NL:misses: 12
NL:misses_by_poll: 0

total selections: 8904725
total_filled: 888038
total_useful: 767779
total_late: 376
total_polluted: 210
total_misses_after_warmup: 42862
conflicts: 4671
Degree Incremented Times: 149183
Degree Decremented Times: 0

L1 IP Table Write Accesses: 9931251
L1 IP Table Read Accesses: 9926580
L1 RST Write Accesses: 3696024
L1 RST Read Accesses: 7392048
L1 CSPT Write Accesses: 3696024
L1 CSPT Read Accesses: 5528737
L1 RR Filter Tag Write Accesses: 1229237
L1 RR Filter Tag Read Accesses: 733561813
L1 IP Table Tag Write Accesses: 9945519
L1 IP Table Tag Read Accesses: 9945519
L1 RST Tag Write Accesses: 0
L1 RST Tag Read Accesses: 33140385
L1 RR Filter Write Accesses: 0
L1 RR Filter Read Accesses: 31060563
test: 297406
L2 IP Table Read Accesses: 1597622
L2 IP Table Write Accesses: 1559927
L2 IP Table Tag Read Accesses: 799325
L2 IP Table Tag Write Accesses: 799325

DRAM Statistics
 CHANNEL 0
 RQ ROW_BUFFER_HIT:     395671  ROW_BUFFER_MISS:      44368
 DBUS_CONGESTED:          1
 WQ ROW_BUFFER_HIT:        144  ROW_BUFFER_MISS:        519  FULL:          0

 AVG_CONGESTED_CYCLE: 1
 All warmup complete: 2
Channel 0 Bank busy for read cycles: 0
Channel 0 Bank busy for write cycles: 0
Channel 0
Rank 0
0banks busy for read cycles: 106273897
0banks busy for write cycles: 531
1banks busy for read cycles: 15474642
1banks busy for write cycles: 84798
2banks busy for read cycles: 598568
2banks busy for write cycles: 6556
3banks busy for read cycles: 259682
3banks busy for write cycles: 640
4banks busy for read cycles: 160287
4banks busy for write cycles: 490
5banks busy for read cycles: 137719
5banks busy for write cycles: 1269
6banks busy for read cycles: 274134
6banks busy for write cycles: 419
7banks busy for read cycles: 649037
7banks busy for write cycles: 337
8banks busy for read cycles: 183796
8banks busy for write cycles: 0

CPU 0 Branch Prediction Accuracy: 94.7226% MPKI: 12.5192 Average ROB Occupancy at Mispredict: 59.1126
Branch types
NOT_BRANCH: 38138565 76.2771%
BRANCH_DIRECT_JUMP: 1247487 2.49497%
BRANCH_INDIRECT: 0 0%
BRANCH_CONDITIONAL: 9360076 18.7202%
BRANCH_DIRECT_CALL: 626785 1.25357%
BRANCH_INDIRECT_CALL: 0 0%
BRANCH_RETURN: 626786 1.25357%
BRANCH_OTHER: 0 0%

@sumon_overall_L1D    767779       324       324    120213    888038   2458349   2458410
@Sumon_Early_by_class_L1D    707745      4444     55542         2
@Sumon_Late_by_class_L1D       228         6        37         2

@Sumon_Early_by_cycle_L1D       853      5480     11950     13003     16816    650484     30747     20292      2886      3642     11571        55
@Sumon_Late_by_cycle_L1D       104        98        25        18        28         0
@Sumon_Early_stream_L1D       767      5208     11407     11999     13739    635332     13184       315      1074      3450     11267         3
@Sumon_Early_CS_L1D        34        99       165       425      2125      1125       140        78        80       107        66         0
@Sumon_Early_CPLX_L1D        47       164       349       575       952     14026     17423     19899      1732        85       238        52
@Sumon_Late_stream_L1D        93        71        21        15        28         0
@Sumon_Late_CS_L1D         1         5         0         0         0         0
@Sumon_Late_CPLX_L1D         8        22         4         3         0         0
@sumon_overall_L2C      5280        35         0    455848    461669   4000895   4004120
@Sumon_Early_by_class_L2C      4917        53       297         0
@Sumon_Late_by_class_L2C        31         0         0         0

@Sumon_Early_by_cycle_L2C        27        38        49        26        20        91       293         6         2         0         4      4724
@Sumon_Late_by_cycle_L2C         3         3        11         2        16         0
@Sumon_Early_stream_L2C        22        38        47        25        20        87       293         6         2         0         4      4373
@Sumon_Early_CS_L2C         0         0         2         0         0         3         0         0         0         0         0        48
@Sumon_Early_CPLX_L2C         0         0         0         0         0         0         0         0         0         0         0       297
@Sumon_Late_stream_L2C         0         3        11         2        15         0
@Sumon_Late_CS_L2C         0         0         0         0         0         0
@Sumon_Late_CPLX_L2C         0         0         0         0         0         0
DRAM PAGES: 1048576
Allocated PAGES: 6201
