
*** ChampSim Multicore Out-of-Order Simulator ***

Warmup Instructions: 10000000
Simulation Instructions: 50000000
Number of CPUs: 1
LLC sets: 2048
LLC ways: 16
Off-chip DRAM Size: 4096 MB Channels: 1 Width: 64-bit Data Rate: 6400 MT/s
CPU 0 runs traces/SPEC2017/623.xalancbmk_s-10B.champsimtrace.xz
.xz
CPU 0 Bimodal branch predictor
BTB has LRU replacement policy
ITLB has LRU replacement policy
DTLB has LRU replacement policy
STLB has LRU replacement policy
L1I has LRU replacement policy
IP Table Entries: 256
L1D has LRU replacement policy
IP_Table L2 entries: 256
L2C has LRU replacement policy
Initialize SRRIP state
Heartbeat CPU 0 instructions: 10000003 cycles: 3105408 heartbeat IPC: 3.22019 cumulative IPC: 3.22019 (Simulation time: 0 hr 22 min 30 sec) 

Warmup complete CPU 0 instructions: 10000003 cycles: 3105408 (Simulation time: 0 hr 22 min 30 sec) 

Heartbeat CPU 0 instructions: 20000000 cycles: 34767393 heartbeat IPC: 0.315836 cumulative IPC: 0.315836 (Simulation time: 0 hr 43 min 18 sec) 
Heartbeat CPU 0 instructions: 30000001 cycles: 65907161 heartbeat IPC: 0.321133 cumulative IPC: 0.318462 (Simulation time: 1 hr 4 min 16 sec) 
Heartbeat CPU 0 instructions: 40000000 cycles: 95996638 heartbeat IPC: 0.332342 cumulative IPC: 0.322958 (Simulation time: 1 hr 24 min 59 sec) 
Heartbeat CPU 0 instructions: 50000000 cycles: 129037798 heartbeat IPC: 0.302653 cumulative IPC: 0.317631 (Simulation time: 1 hr 45 min 7 sec) 
Heartbeat CPU 0 instructions: 60000002 cycles: 160263359 heartbeat IPC: 0.320251 cumulative IPC: 0.318151 (Simulation time: 1 hr 54 min 41 sec) 
Finished CPU 0 instructions: 50000003 cycles: 157157952 cumulative IPC: 0.318151 (Simulation time: 1 hr 54 min 41 sec) 

ChampSim completed all CPUs

Region of Interest Statistics

CPU 0 cumulative IPC: 0.318151 instructions: 50000003 cycles: 157157952
ITLB TOTAL     ACCESS:    7746000  HIT:    7716092  MISS:      29908  HIT %:    99.6139  MISS %:   0.386109   MPKI: 0.59816
ITLB LOAD TRANSLATION ACCESS:    7746000  HIT:    7716092  MISS:      29908  HIT %:    99.6139  MISS %:   0.386109   MPKI: 0.59816
ITLB PREFETCH  REQUESTED:          0  ISSUED:          0  USEFUL:          0  USELESS:          0
ITLB USEFUL LOAD PREFETCHES:          0 PREFETCH ISSUED TO LOWER LEVEL:          0  ACCURACY: -nan
ITLB TIMELY PREFETCHES:          0 LATE PREFETCHES: 0 DROPPED PREFETCHES: 0
ITLB PREFETCHES SAME FILL-ORIGIN LEVEL: 0 DIFFERENT FILL-ORIGIN LEVEL: 0
ITLB AVERAGE MISS LATENCY: 12.5248 cycles
ITLB RQ	ACCESS:    8912438	FORWARD:          0	MERGED:    1159434	TO_CACHE:    7753004

DTLB TOTAL     ACCESS:   10315851  HIT:    9974788  MISS:     341063  HIT %:    96.6938  MISS %:     3.3062   MPKI: 6.82126
DTLB LOAD TRANSLATION ACCESS:   10315851  HIT:    9974788  MISS:     341063  HIT %:    96.6938  MISS %:     3.3062   MPKI: 6.82126
DTLB PREFETCH  REQUESTED:          0  ISSUED:          0  USEFUL:          0  USELESS:          0
DTLB USEFUL LOAD PREFETCHES:          0 PREFETCH ISSUED TO LOWER LEVEL:          0  ACCURACY: -nan
DTLB TIMELY PREFETCHES:          0 LATE PREFETCHES: 0 DROPPED PREFETCHES: 0
DTLB PREFETCHES SAME FILL-ORIGIN LEVEL: 0 DIFFERENT FILL-ORIGIN LEVEL: 0
DTLB AVERAGE MISS LATENCY: 48.1062 cycles
DTLB RQ	ACCESS:   11368199	FORWARD:          0	MERGED:    1001659	TO_CACHE:   10366540

STLB TOTAL     ACCESS:    1574720  HIT:    1311211  MISS:     263509  HIT %:    83.2663  MISS %:    16.7337   MPKI: 5.27018
STLB LOAD TRANSLATION ACCESS:     370971  HIT:     107558  MISS:     263413  HIT %:    28.9936  MISS %:    71.0064   MPKI: 5.26826
STLB TRANSLATION FROM L1D PREFETCHER ACCESS:    1203749  HIT:    1203653  MISS:         96  HIT %:     99.992  MISS %: 0.00797508   MPKI: 0.00192
STLB PREFETCH  REQUESTED:          0  ISSUED:          0  USEFUL:         96  USELESS:          0
STLB USEFUL LOAD PREFETCHES:         96 PREFETCH ISSUED TO LOWER LEVEL:          0  ACCURACY: inf
STLB TIMELY PREFETCHES:         96 LATE PREFETCHES: 0 DROPPED PREFETCHES: 0
STLB PREFETCHES SAME FILL-ORIGIN LEVEL: 0 DIFFERENT FILL-ORIGIN LEVEL: 0
STLB AVERAGE MISS LATENCY: 50.9951 cycles
STLB RQ	ACCESS:    2192756	FORWARD:          0	MERGED:     617996	TO_CACHE:    1574760

STLB Hit, L1D data hit: 0
STLB Hit, L2C data hit: 0
STLB Hit, LLC data hit: 0
STLB Hit, LLC data miss: 0
STLB STLB hints to L2: 0
L1D TOTAL     ACCESS:   12767541  HIT:   10476671  MISS:    2290870  HIT %:    82.0571  MISS %:    17.9429   MPKI: 45.8174
L1D LOAD      ACCESS:    8966052  HIT:    7841995  MISS:    1124057  HIT %:    87.4632  MISS %:    12.5368   MPKI: 22.4811
L1D RFO       ACCESS:    2233474  HIT:    2213772  MISS:      19702  HIT %:    99.1179  MISS %:   0.882124   MPKI: 0.39404
L1D PREFETCH  ACCESS:    1568015  HIT:     420904  MISS:    1147111  HIT %:    26.8431  MISS %:    73.1569   MPKI: 22.9422
L1D PREFETCH  REQUESTED:    3643669  ISSUED:    3643575  USEFUL:     190691  USELESS:     956264
L1D USEFUL LOAD PREFETCHES:     190691 PREFETCH ISSUED TO LOWER LEVEL:    1147616  ACCURACY: 16.6163
L1D TIMELY PREFETCHES:     190691 LATE PREFETCHES: 89157 DROPPED PREFETCHES: 0
L1D PREFETCHES SAME FILL-ORIGIN LEVEL: 1147616 DIFFERENT FILL-ORIGIN LEVEL: 0
L1D AVERAGE MISS LATENCY: 17768.1 cycles
L1D RQ	ACCESS:   14737902	FORWARD:          0	MERGED:    5591195	TO_CACHE:    9089243
L1D WQ	ACCESS:    2303184	FORWARD:      57469	MERGED:      24228	TO_CACHE:    2278956
L1D PQ	ACCESS:    1821790	FORWARD:          0	MERGED:          0	TO_CACHE:    1821785

L1D UNIQUE REGIONS ACCESSED: 0
L1D REGIONS CONFLICTS: 0
L1D Cross Page Prefetch Requests: 0
L1D Same Page Prefetch Requests: 2164220
L1D ROI Sum of L1D PQ occupancy: 23610889
L1D PREFETCHES PUSHED FROM L2C: 0
L1I TOTAL     ACCESS:    8865136  HIT:    8693789  MISS:     171347  HIT %:    98.0672  MISS %:    1.93282   MPKI: 3.42694
L1I LOAD      ACCESS:    8865136  HIT:    8693789  MISS:     171347  HIT %:    98.0672  MISS %:    1.93282   MPKI: 3.42694
L1I PREFETCH  REQUESTED:          0  ISSUED:          0  USEFUL:          0  USELESS:          0
L1I USEFUL LOAD PREFETCHES:          0 PREFETCH ISSUED TO LOWER LEVEL:          0  ACCURACY: -nan
L1I TIMELY PREFETCHES:          0 LATE PREFETCHES: 0 DROPPED PREFETCHES: 0
L1I PREFETCHES SAME FILL-ORIGIN LEVEL: 0 DIFFERENT FILL-ORIGIN LEVEL: 0
L1I AVERAGE MISS LATENCY: 22.1584 cycles
L1I RQ	ACCESS:   15117442	FORWARD:          0	MERGED:    6205004	TO_CACHE:    8912438

BTB TOTAL     ACCESS:    8242341  HIT:    8167689  MISS:      74652  HIT %:    99.0943  MISS %:   0.905714   MPKI: 1.49304
BTB BRANCH_DIRECT_JUMP	ACCESS:     118676  HIT:     118023  MISS:        653
BTB BRANCH_INDIRECT	ACCESS:      21952  HIT:       8655  MISS:      13297
BTB BRANCH_CONDITIONAL	ACCESS:    6931277  HIT:    6928565  MISS:       2712
BTB BRANCH_DIRECT_CALL	ACCESS:     319784  HIT:     318786  MISS:        998
BTB BRANCH_INDIRECT_CALL	ACCESS:     265434  HIT:     262598  MISS:       2836
BTB BRANCH_RETURN	ACCESS:     585218  HIT:     531062  MISS:      54156
BTB BRANCH_OTHER ACCESS:          0  HIT:          0  MISS:          0

L2C TOTAL     ACCESS:    2806302  HIT:     583184  MISS:    2223118  HIT %:    20.7812  MISS %:    79.2188   MPKI: 44.4624
L2C LOAD      ACCESS:    1295403  HIT:     231074  MISS:    1064329  HIT %:     17.838  MISS %:     82.162   MPKI: 21.2866
L2C DATA LOAD MPKI: 20.4646
L2C INSTRUCTION LOAD MPKI: 0.822
L2C RFO       ACCESS:      19191  HIT:       8111  MISS:      11080  HIT %:    42.2646  MISS %:    57.7354   MPKI: 0.2216
L2C PREFETCH  ACCESS:    1185486  HIT:     101322  MISS:    1084164  HIT %:    8.54687  MISS %:    91.4531   MPKI: 21.6833
L2C DATA PREFETCH MPKI: 21.6833
L2C INSTRUCTION PREFETCH MPKI: 0
L2C WRITEBACK ACCESS:      41549  HIT:      41347  MISS:        202  HIT %:    99.5138  MISS %:   0.486173   MPKI: 0.00404
L2C LOAD TRANSLATION ACCESS:     264553  HIT:     201282  MISS:      63271  HIT %:    76.0838  MISS %:    23.9162   MPKI: 1.26542
L2C TRANSLATION FROM L1D PREFETCHER ACCESS:        120  HIT:         48  MISS:         72  HIT %:         40  MISS %:         60   MPKI: 0.00144
L2C PREFETCH  REQUESTED:      40230  ISSUED:      40230  USEFUL:      11500  USELESS:    1072017
L2C USEFUL LOAD PREFETCHES:      11500 PREFETCH ISSUED TO LOWER LEVEL:    1084628  ACCURACY: 1.06027
L2C TIMELY PREFETCHES:      11500 LATE PREFETCHES: 462 DROPPED PREFETCHES: 0
L2C PREFETCHES SAME FILL-ORIGIN LEVEL: 15114 DIFFERENT FILL-ORIGIN LEVEL: 0
L2C AVERAGE MISS LATENCY: 101.994 cycles
L2C RQ	ACCESS:    1579274	FORWARD:          0	MERGED:          0	TO_CACHE:    1579267
L2C WQ	ACCESS:      41549	FORWARD:          7	MERGED:          0	TO_CACHE:      41549
L2C PQ	ACCESS:    1187846	FORWARD:          0	MERGED:        825	TO_CACHE:    1187021

L2C Instructions Evicting Data 39078
L2C Translations Evicting Data 59654
L2C Data Evicting Data 2018758
L2C Instructions Evicting Instructions 1223
L2C Translations Evicting Instructions 1078
L2C Data Evicting Instructions 39758
L2C Instructions Evicting Translations 799
L2C Translations Evicting Translations 2611
L2C Data Evicting Translations 59957
L2C Dense regions hint from L2: 0
PSCL5 TOTAL     ACCESS:     263509  HIT:     263509  MISS:          0  HIT %:        100  MISS %:          0   MPKI: 0
PSCL5 LOAD TRANSLATION ACCESS:     263413  HIT:     263413  MISS:          0  HIT %:        100  MISS %:          0   MPKI: 0
PSCL5 TRANSLATION FROM L1D PREFETCHER ACCESS:         96  HIT:         96  MISS:          0  HIT %:        100  MISS %:          0   MPKI: 0
PSCL5 PREFETCH  REQUESTED:          0  ISSUED:          0  USEFUL:          0  USELESS:          0
PSCL5 USEFUL LOAD PREFETCHES:          0 PREFETCH ISSUED TO LOWER LEVEL:          0  ACCURACY: -nan
PSCL5 TIMELY PREFETCHES:          0 LATE PREFETCHES: 0 DROPPED PREFETCHES: 0
PSCL5 PREFETCHES SAME FILL-ORIGIN LEVEL: 0 DIFFERENT FILL-ORIGIN LEVEL: 0

PSCL4 TOTAL     ACCESS:     263509  HIT:     263509  MISS:          0  HIT %:        100  MISS %:          0   MPKI: 0
PSCL4 LOAD TRANSLATION ACCESS:     263413  HIT:     263413  MISS:          0  HIT %:        100  MISS %:          0   MPKI: 0
PSCL4 TRANSLATION FROM L1D PREFETCHER ACCESS:         96  HIT:         96  MISS:          0  HIT %:        100  MISS %:          0   MPKI: 0
PSCL4 PREFETCH  REQUESTED:          0  ISSUED:          0  USEFUL:          0  USELESS:          0
PSCL4 USEFUL LOAD PREFETCHES:          0 PREFETCH ISSUED TO LOWER LEVEL:          0  ACCURACY: -nan
PSCL4 TIMELY PREFETCHES:          0 LATE PREFETCHES: 0 DROPPED PREFETCHES: 0
PSCL4 PREFETCHES SAME FILL-ORIGIN LEVEL: 0 DIFFERENT FILL-ORIGIN LEVEL: 0

PSCL3 TOTAL     ACCESS:     263509  HIT:     263509  MISS:          0  HIT %:        100  MISS %:          0   MPKI: 0
PSCL3 LOAD TRANSLATION ACCESS:     263413  HIT:     263413  MISS:          0  HIT %:        100  MISS %:          0   MPKI: 0
PSCL3 TRANSLATION FROM L1D PREFETCHER ACCESS:         96  HIT:         96  MISS:          0  HIT %:        100  MISS %:          0   MPKI: 0
PSCL3 PREFETCH  REQUESTED:          0  ISSUED:          0  USEFUL:          0  USELESS:          0
PSCL3 USEFUL LOAD PREFETCHES:          0 PREFETCH ISSUED TO LOWER LEVEL:          0  ACCURACY: -nan
PSCL3 TIMELY PREFETCHES:          0 LATE PREFETCHES: 0 DROPPED PREFETCHES: 0
PSCL3 PREFETCHES SAME FILL-ORIGIN LEVEL: 0 DIFFERENT FILL-ORIGIN LEVEL: 0

PSCL2 TOTAL     ACCESS:     263509  HIT:     262345  MISS:       1164  HIT %:    99.5583  MISS %:   0.441731   MPKI: 0.02328
PSCL2 LOAD TRANSLATION ACCESS:     263437  HIT:     262273  MISS:       1164  HIT %:    99.5581  MISS %:   0.441851   MPKI: 0.02328
PSCL2 TRANSLATION FROM L1D PREFETCHER ACCESS:         72  HIT:         72  MISS:          0  HIT %:        100  MISS %:          0   MPKI: 0
PSCL2 PREFETCH  REQUESTED:          0  ISSUED:          0  USEFUL:          0  USELESS:          0
PSCL2 USEFUL LOAD PREFETCHES:          0 PREFETCH ISSUED TO LOWER LEVEL:          0  ACCURACY: -nan
PSCL2 TIMELY PREFETCHES:          0 LATE PREFETCHES: 0 DROPPED PREFETCHES: 0
PSCL2 PREFETCHES SAME FILL-ORIGIN LEVEL: 0 DIFFERENT FILL-ORIGIN LEVEL: 0

LLC TOTAL     ACCESS:    2244834  HIT:     808557  MISS:    1436277  HIT %:    36.0186  MISS %:    63.9814   MPKI: 28.7255
LLC LOAD      ACCESS:    1063868  HIT:     674450  MISS:     389418  HIT %:     63.396  MISS %:     36.604   MPKI: 7.78836
LLC RFO       ACCESS:      11079  HIT:       4417  MISS:       6662  HIT %:    39.8682  MISS %:    60.1318   MPKI: 0.13324
LLC PREFETCH  ACCESS:    1084626  HIT:      76641  MISS:    1007985  HIT %:    7.06612  MISS %:    92.9339   MPKI: 20.1597
LLC WRITEBACK ACCESS:      21918  HIT:      14370  MISS:       7548  HIT %:    65.5626  MISS %:    34.4374   MPKI: 0.15096
LLC LOAD TRANSLATION ACCESS:      63271  HIT:      38617  MISS:      24654  HIT %:    61.0343  MISS %:    38.9657   MPKI: 0.49308
LLC TRANSLATION FROM L1D PREFETCHER ACCESS:         72  HIT:         62  MISS:         10  HIT %:    86.1111  MISS %:    13.8889   MPKI: 0.0002
LLC PREFETCH  REQUESTED:          0  ISSUED:          0  USEFUL:        331  USELESS:    1007781
LLC USEFUL LOAD PREFETCHES:        331 PREFETCH ISSUED TO LOWER LEVEL:    1007987  ACCURACY: 0.0328377
LLC TIMELY PREFETCHES:        331 LATE PREFETCHES: 0 DROPPED PREFETCHES: 0
LLC PREFETCHES SAME FILL-ORIGIN LEVEL: 0 DIFFERENT FILL-ORIGIN LEVEL: 0
LLC AVERAGE MISS LATENCY: 111.453 cycles
LLC RQ	ACCESS:    1138290	FORWARD:          0	MERGED:          0	TO_CACHE:    1138290
LLC WQ	ACCESS:      21918	FORWARD:          0	MERGED:          0	TO_CACHE:      21918
LLC PQ	ACCESS:    1084628	FORWARD:          0	MERGED:          0	TO_CACHE:    1084628

LLC Dense regions hint to LLC: 0

RAW hits: 58380
Loads Generated: 14796287
Loads sent to L1D: 14737902
Stores Generated: 2303186
Stores sent to L1D: 2303184
Major fault: 0 Minor fault: 10925
Allocated PAGES: 10925

stream: 
stream:times selected: 2821572
stream:pref_filled: 976133
stream:pref_useful: 164482
stream:pref_late: 86694
stream:misses: 375164
stream:misses_by_poll: 0

CS: 
CS:times selected: 77185
CS:pref_filled: 69131
CS:pref_useful: 46611
CS:pref_late: 580
CS:misses: 10346
CS:misses_by_poll: 98

CPLX: 
CPLX:times selected: 2718335
CPLX:pref_filled: 302355
CPLX:pref_useful: 24949
CPLX:pref_late: 1719
CPLX:misses: 1042009
CPLX:misses_by_poll: 605

NL_L1: 
NL:times selected: 24109
NL:pref_filled: 10303
NL:pref_useful: 1659
NL:pref_late: 1643
NL:misses: 12410
NL:misses_by_poll: 0

total selections: 5641201
total_filled: 1147111
total_useful: 190691
total_late: 90650
total_polluted: 703
total_misses_after_warmup: 1247248
conflicts: 482940
Degree Incremented Times: 1968
Degree Decremented Times: 153223

L1 IP Table Write Accesses: 8307233
L1 IP Table Read Accesses: 7824293
L1 RST Write Accesses: 2332675
L1 RST Read Accesses: 4665350
L1 CSPT Write Accesses: 2332675
L1 CSPT Read Accesses: 4582066
L1 RR Filter Tag Write Accesses: 1821884
L1 RR Filter Tag Read Accesses: 88740572
L1 IP Table Tag Write Accesses: 9089243
L1 IP Table Tag Read Accesses: 9089243
L1 RST Tag Write Accesses: 0
L1 RST Tag Read Accesses: 21332268
L1 RR Filter Write Accesses: 0
L1 RR Filter Read Accesses: 2955060
test: 1766868
L2 IP Table Read Accesses: 4497423
L2 IP Table Write Accesses: 3432884
L2 IP Table Tag Read Accesses: 2269273
L2 IP Table Tag Write Accesses: 2269273

DRAM Statistics
 CHANNEL 0
 RQ ROW_BUFFER_HIT:     973898  ROW_BUFFER_MISS:     454832
 DBUS_CONGESTED:        128
 WQ ROW_BUFFER_HIT:        733  ROW_BUFFER_MISS:       8580  FULL:          0

 AVG_CONGESTED_CYCLE: 4
 All warmup complete: 2
Channel 0 Bank busy for read cycles: 0
Channel 0 Bank busy for write cycles: 0
Channel 0
Rank 0
0banks busy for read cycles: 96362433
0banks busy for write cycles: 6802
1banks busy for read cycles: 27742138
1banks busy for write cycles: 1032119
2banks busy for read cycles: 16027940
2banks busy for write cycles: 172593
3banks busy for read cycles: 8898819
3banks busy for write cycles: 53763
4banks busy for read cycles: 4499342
4banks busy for write cycles: 19071
5banks busy for read cycles: 1746423
5banks busy for write cycles: 5613
6banks busy for read cycles: 449313
6banks busy for write cycles: 2640
7banks busy for read cycles: 99870
7banks busy for write cycles: 811
8banks busy for read cycles: 37860
8banks busy for write cycles: 403

CPU 0 Branch Prediction Accuracy: 94.93% MPKI: 13.2206 Average ROB Occupancy at Mispredict: 36.8476
Branch types
NOT_BRANCH: 36961555 73.9231%
BRANCH_DIRECT_JUMP: 118676 0.237352%
BRANCH_INDIRECT: 21952 0.043904%
BRANCH_CONDITIONAL: 11727061 23.4541%
BRANCH_DIRECT_CALL: 319784 0.639568%
BRANCH_INDIRECT_CALL: 265434 0.530868%
BRANCH_RETURN: 585218 1.17044%
BRANCH_OTHER: 0 0%

@sumon_overall_L1D    190691     89157     89157    956264   1147111   3643575   3643669
@Sumon_Early_by_class_L1D    131944     36743     20605      1500
@Sumon_Late_by_class_L1D     76048       571      1485      1500

@Sumon_Early_by_cycle_L1D     37779     13404     35422     20408     15990     31078      7527      2596     23487      1529       827       644
@Sumon_Late_by_cycle_L1D      3588      9826     11773     29426     25005         0
@Sumon_Early_stream_L1D     35598     11341     26327     16211     12680     21695      4431      1626       556       815       377       287
@Sumon_Early_CS_L1D       498       738      3049      1689      1623      4016      1579       522     22531       191       184       123
@Sumon_Early_CPLX_L1D      1076      1099      5965      2477      1562      5196      1485       432       395       440       245       233
@Sumon_Late_stream_L1D      3297      9293     11247     28273     23938         0
@Sumon_Late_CS_L1D        48        47        50       109       317         0
@Sumon_Late_CPLX_L1D       188       338       292       363       304         0
@sumon_overall_L2C     11500       462         0   1072017   1084236     40230     40230
@Sumon_Early_by_class_L2C      4131       652      2240         0
@Sumon_Late_by_class_L2C         0         0         0         0

@Sumon_Early_by_cycle_L2C       884       429       249       119        95       150       196       451       304       527       469      7627
@Sumon_Late_by_cycle_L2C        68        77        67        80       170         0
@Sumon_Early_stream_L2C         0         0        21         3         0         0         0         0         4        17       109      3977
@Sumon_Early_CS_L2C         0         0         0         0         0         0         0         0         0        23        19       610
@Sumon_Early_CPLX_L2C         0         0         0         0         0         0         0         0         2        47        95      2096
@Sumon_Late_stream_L2C         0         0         0         0         0         0
@Sumon_Late_CS_L2C         0         0         0         0         0         0
@Sumon_Late_CPLX_L2C         0         0         0         0         0         0
DRAM PAGES: 1048576
Allocated PAGES: 10925
