
*** ChampSim Multicore Out-of-Order Simulator ***

Warmup Instructions: 10000000
Simulation Instructions: 50000000
Number of CPUs: 1
LLC sets: 2048
LLC ways: 16
Off-chip DRAM Size: 4096 MB Channels: 1 Width: 64-bit Data Rate: 6400 MT/s
CPU 0 runs traces/SPEC2017/654.roms_s-1070B.champsimtrace.xz
.xz
CPU 0 Bimodal branch predictor
BTB has LRU replacement policy
ITLB has LRU replacement policy
DTLB has LRU replacement policy
STLB has LRU replacement policy
L1I has LRU replacement policy
IP Table Entries: 256
L1D has LRU replacement policy
IP_Table L2 entries: 256
L2C has LRU replacement policy
Initialize SRRIP state
Heartbeat CPU 0 instructions: 10000002 cycles: 3109886 heartbeat IPC: 3.21555 cumulative IPC: 3.21555 (Simulation time: 0 hr 22 min 17 sec) 

Warmup complete CPU 0 instructions: 10000002 cycles: 3109886 (Simulation time: 0 hr 22 min 17 sec) 

Heartbeat CPU 0 instructions: 20000000 cycles: 13145137 heartbeat IPC: 0.996487 cumulative IPC: 0.996487 (Simulation time: 0 hr 42 min 35 sec) 
Heartbeat CPU 0 instructions: 30000003 cycles: 22270263 heartbeat IPC: 1.09588 cumulative IPC: 1.04382 (Simulation time: 1 hr 2 min 58 sec) 
Heartbeat CPU 0 instructions: 40000003 cycles: 36222080 heartbeat IPC: 0.716753 cumulative IPC: 0.906011 (Simulation time: 1 hr 31 min 4 sec) 
Heartbeat CPU 0 instructions: 50000000 cycles: 44697931 heartbeat IPC: 1.17982 cumulative IPC: 0.961815 (Simulation time: 1 hr 46 min 50 sec) 
Heartbeat CPU 0 instructions: 60000000 cycles: 58932257 heartbeat IPC: 0.702527 cumulative IPC: 0.895698 (Simulation time: 1 hr 58 min 29 sec) 
Finished CPU 0 instructions: 50000002 cycles: 55822373 cumulative IPC: 0.895698 (Simulation time: 1 hr 58 min 29 sec) 

ChampSim completed all CPUs

Region of Interest Statistics

CPU 0 cumulative IPC: 0.895698 instructions: 50000002 cycles: 55822373
ITLB TOTAL     ACCESS:    7613356  HIT:    7613356  MISS:          0  HIT %:        100  MISS %:          0   MPKI: 0
ITLB LOAD TRANSLATION ACCESS:    7613356  HIT:    7613356  MISS:          0  HIT %:        100  MISS %:          0   MPKI: 0
ITLB PREFETCH  REQUESTED:          0  ISSUED:          0  USEFUL:          0  USELESS:          0
ITLB USEFUL LOAD PREFETCHES:          0 PREFETCH ISSUED TO LOWER LEVEL:          0  ACCURACY: -nan
ITLB TIMELY PREFETCHES:          0 LATE PREFETCHES: 0 DROPPED PREFETCHES: 0
ITLB PREFETCHES SAME FILL-ORIGIN LEVEL: 0 DIFFERENT FILL-ORIGIN LEVEL: 0
ITLB AVERAGE MISS LATENCY: -nan cycles
ITLB RQ	ACCESS:    8144441	FORWARD:          0	MERGED:     531086	TO_CACHE:    7613355

DTLB TOTAL     ACCESS:   13180469  HIT:   13156382  MISS:      24087  HIT %:    99.8173  MISS %:   0.182748   MPKI: 0.48174
DTLB LOAD TRANSLATION ACCESS:   13180469  HIT:   13156382  MISS:      24087  HIT %:    99.8173  MISS %:   0.182748   MPKI: 0.48174
DTLB PREFETCH  REQUESTED:          0  ISSUED:          0  USEFUL:          0  USELESS:          0
DTLB USEFUL LOAD PREFETCHES:          0 PREFETCH ISSUED TO LOWER LEVEL:          0  ACCURACY: -nan
DTLB TIMELY PREFETCHES:          0 LATE PREFETCHES: 0 DROPPED PREFETCHES: 0
DTLB PREFETCHES SAME FILL-ORIGIN LEVEL: 0 DIFFERENT FILL-ORIGIN LEVEL: 0
DTLB AVERAGE MISS LATENCY: 198.096 cycles
DTLB RQ	ACCESS:   14489989	FORWARD:          0	MERGED:    1284940	TO_CACHE:   13205049

STLB TOTAL     ACCESS:     747477  HIT:     723404  MISS:      24073  HIT %:    96.7794  MISS %:    3.22057   MPKI: 0.48146
STLB LOAD TRANSLATION ACCESS:      24087  HIT:         14  MISS:      24073  HIT %:  0.0581226  MISS %:    99.9419   MPKI: 0.48146
STLB TRANSLATION FROM L1D PREFETCHER ACCESS:     723390  HIT:     723390  MISS:          0  HIT %:        100  MISS %:          0   MPKI: 0
STLB PREFETCH  REQUESTED:          0  ISSUED:          0  USEFUL:          0  USELESS:          0
STLB USEFUL LOAD PREFETCHES:          0 PREFETCH ISSUED TO LOWER LEVEL:          0  ACCURACY: -nan
STLB TIMELY PREFETCHES:          0 LATE PREFETCHES: 0 DROPPED PREFETCHES: 0
STLB PREFETCHES SAME FILL-ORIGIN LEVEL: 0 DIFFERENT FILL-ORIGIN LEVEL: 0
STLB AVERAGE MISS LATENCY: 185.929 cycles
STLB RQ	ACCESS:    2543654	FORWARD:          0	MERGED:    1796177	TO_CACHE:     747477

STLB Hit, L1D data hit: 0
STLB Hit, L2C data hit: 0
STLB Hit, LLC data hit: 0
STLB Hit, LLC data miss: 0
STLB STLB hints to L2: 0
L1D TOTAL     ACCESS:   14956697  HIT:   13832911  MISS:    1123786  HIT %:    92.4864  MISS %:     7.5136   MPKI: 22.4757
L1D LOAD      ACCESS:   11665056  HIT:   11640272  MISS:      24784  HIT %:    99.7875  MISS %:   0.212464   MPKI: 0.49568
L1D RFO       ACCESS:     779016  HIT:     434632  MISS:     344384  HIT %:    55.7924  MISS %:    44.2076   MPKI: 6.88768
L1D PREFETCH  ACCESS:    2512625  HIT:    1758007  MISS:     754618  HIT %:    69.9669  MISS %:    30.0331   MPKI: 15.0924
L1D PREFETCH  REQUESTED:    5249959  ISSUED:    5039134  USEFUL:     711805  USELESS:      42818
L1D USEFUL LOAD PREFETCHES:     711805 PREFETCH ISSUED TO LOWER LEVEL:     756056  ACCURACY: 94.1471
L1D TIMELY PREFETCHES:     711805 LATE PREFETCHES: 66016 DROPPED PREFETCHES: 0
L1D PREFETCHES SAME FILL-ORIGIN LEVEL: 756056 DIFFERENT FILL-ORIGIN LEVEL: 0
L1D AVERAGE MISS LATENCY: 161.3 cycles
L1D RQ	ACCESS:   18807447	FORWARD:          0	MERGED:    7056184	TO_CACHE:   11751263
L1D WQ	ACCESS:    2738726	FORWARD:          0	MERGED:          0	TO_CACHE:    2738726
L1D PQ	ACCESS:    2519567	FORWARD:          0	MERGED:          0	TO_CACHE:    2519567

L1D UNIQUE REGIONS ACCESSED: 0
L1D REGIONS CONFLICTS: 0
L1D Cross Page Prefetch Requests: 0
L1D Same Page Prefetch Requests: 2815991
L1D ROI Sum of L1D PQ occupancy: 51362140
L1D PREFETCHES PUSHED FROM L2C: 0
L1I TOTAL     ACCESS:    8144442  HIT:    8144442  MISS:          0  HIT %:        100  MISS %:          0   MPKI: 0
L1I LOAD      ACCESS:    8144442  HIT:    8144442  MISS:          0  HIT %:        100  MISS %:          0   MPKI: 0
L1I PREFETCH  REQUESTED:          0  ISSUED:          0  USEFUL:          0  USELESS:          0
L1I USEFUL LOAD PREFETCHES:          0 PREFETCH ISSUED TO LOWER LEVEL:          0  ACCURACY: -nan
L1I TIMELY PREFETCHES:          0 LATE PREFETCHES: 0 DROPPED PREFETCHES: 0
L1I PREFETCHES SAME FILL-ORIGIN LEVEL: 0 DIFFERENT FILL-ORIGIN LEVEL: 0
L1I AVERAGE MISS LATENCY: -nan cycles
L1I RQ	ACCESS:   13147805	FORWARD:          0	MERGED:    5003364	TO_CACHE:    8144441

BTB TOTAL     ACCESS:    2779529  HIT:    2779520  MISS:          9  HIT %:    99.9997  MISS %: 0.000323796   MPKI: 0.00018
BTB BRANCH_DIRECT_JUMP	ACCESS:          0  HIT:          0  MISS:          0
BTB BRANCH_INDIRECT	ACCESS:          0  HIT:          0  MISS:          0
BTB BRANCH_CONDITIONAL	ACCESS:    2779529  HIT:    2779520  MISS:          9
BTB BRANCH_DIRECT_CALL	ACCESS:          0  HIT:          0  MISS:          0
BTB BRANCH_INDIRECT_CALL	ACCESS:          0  HIT:          0  MISS:          0
BTB BRANCH_RETURN	ACCESS:          0  HIT:          0  MISS:          0
BTB BRANCH_OTHER ACCESS:          0  HIT:          0  MISS:          0

L2C TOTAL     ACCESS:    4236567  HIT:    3079466  MISS:    1157101  HIT %:    72.6878  MISS %:    27.3122   MPKI: 23.142
L2C LOAD      ACCESS:      24784  HIT:       3590  MISS:      21194  HIT %:    14.4852  MISS %:    85.5148   MPKI: 0.42388
L2C DATA LOAD MPKI: 0.42388
L2C INSTRUCTION LOAD MPKI: 0
L2C RFO       ACCESS:     344384  HIT:          0  MISS:     344384  HIT %:          0  MISS %:        100   MPKI: 6.88768
L2C PREFETCH  ACCESS:    3498783  HIT:    2712188  MISS:     786595  HIT %:     77.518  MISS %:     22.482   MPKI: 15.7319
L2C DATA PREFETCH MPKI: 15.7319
L2C INSTRUCTION PREFETCH MPKI: 0
L2C WRITEBACK ACCESS:     344519  HIT:     344493  MISS:         26  HIT %:    99.9925  MISS %: 0.00754675   MPKI: 0.00052
L2C LOAD TRANSLATION ACCESS:      24097  HIT:      19195  MISS:       4902  HIT %:    79.6572  MISS %:    20.3428   MPKI: 0.09804
L2C PREFETCH  REQUESTED:    3451254  ISSUED:    3315468  USEFUL:       3058  USELESS:     783682
L2C USEFUL LOAD PREFETCHES:       3058 PREFETCH ISSUED TO LOWER LEVEL:     787122  ACCURACY: 0.388504
L2C TIMELY PREFETCHES:       3058 LATE PREFETCHES: 527 DROPPED PREFETCHES: 0
L2C PREFETCHES SAME FILL-ORIGIN LEVEL: 674970 DIFFERENT FILL-ORIGIN LEVEL: 0
L2C AVERAGE MISS LATENCY: 284.821 cycles
L2C RQ	ACCESS:     393267	FORWARD:          0	MERGED:          0	TO_CACHE:     393267
L2C WQ	ACCESS:     344519	FORWARD:          0	MERGED:          0	TO_CACHE:     344519
L2C PQ	ACCESS:    4070086	FORWARD:          0	MERGED:     319126	TO_CACHE:    3750960

L2C Instructions Evicting Data 0
L2C Translations Evicting Data 4838
L2C Data Evicting Data 1147336
L2C Instructions Evicting Instructions 0
L2C Translations Evicting Instructions 0
L2C Data Evicting Instructions 0
L2C Instructions Evicting Translations 0
L2C Translations Evicting Translations 64
L2C Data Evicting Translations 4837
L2C Dense regions hint from L2: 0
PSCL5 TOTAL     ACCESS:      24073  HIT:      24073  MISS:          0  HIT %:        100  MISS %:          0   MPKI: 0
PSCL5 LOAD TRANSLATION ACCESS:      24073  HIT:      24073  MISS:          0  HIT %:        100  MISS %:          0   MPKI: 0
PSCL5 PREFETCH  REQUESTED:          0  ISSUED:          0  USEFUL:          0  USELESS:          0
PSCL5 USEFUL LOAD PREFETCHES:          0 PREFETCH ISSUED TO LOWER LEVEL:          0  ACCURACY: -nan
PSCL5 TIMELY PREFETCHES:          0 LATE PREFETCHES: 0 DROPPED PREFETCHES: 0
PSCL5 PREFETCHES SAME FILL-ORIGIN LEVEL: 0 DIFFERENT FILL-ORIGIN LEVEL: 0

PSCL4 TOTAL     ACCESS:      24073  HIT:      24073  MISS:          0  HIT %:        100  MISS %:          0   MPKI: 0
PSCL4 LOAD TRANSLATION ACCESS:      24073  HIT:      24073  MISS:          0  HIT %:        100  MISS %:          0   MPKI: 0
PSCL4 PREFETCH  REQUESTED:          0  ISSUED:          0  USEFUL:          0  USELESS:          0
PSCL4 USEFUL LOAD PREFETCHES:          0 PREFETCH ISSUED TO LOWER LEVEL:          0  ACCURACY: -nan
PSCL4 TIMELY PREFETCHES:          0 LATE PREFETCHES: 0 DROPPED PREFETCHES: 0
PSCL4 PREFETCHES SAME FILL-ORIGIN LEVEL: 0 DIFFERENT FILL-ORIGIN LEVEL: 0

PSCL3 TOTAL     ACCESS:      24073  HIT:      24073  MISS:          0  HIT %:        100  MISS %:          0   MPKI: 0
PSCL3 LOAD TRANSLATION ACCESS:      24073  HIT:      24073  MISS:          0  HIT %:        100  MISS %:          0   MPKI: 0
PSCL3 PREFETCH  REQUESTED:          0  ISSUED:          0  USEFUL:          0  USELESS:          0
PSCL3 USEFUL LOAD PREFETCHES:          0 PREFETCH ISSUED TO LOWER LEVEL:          0  ACCURACY: -nan
PSCL3 TIMELY PREFETCHES:          0 LATE PREFETCHES: 0 DROPPED PREFETCHES: 0
PSCL3 PREFETCHES SAME FILL-ORIGIN LEVEL: 0 DIFFERENT FILL-ORIGIN LEVEL: 0

PSCL2 TOTAL     ACCESS:      24073  HIT:      24008  MISS:         65  HIT %:      99.73  MISS %:   0.270012   MPKI: 0.0013
PSCL2 LOAD TRANSLATION ACCESS:      24073  HIT:      24008  MISS:         65  HIT %:      99.73  MISS %:   0.270012   MPKI: 0.0013
PSCL2 PREFETCH  REQUESTED:          0  ISSUED:          0  USEFUL:          0  USELESS:          0
PSCL2 USEFUL LOAD PREFETCHES:          0 PREFETCH ISSUED TO LOWER LEVEL:          0  ACCURACY: -nan
PSCL2 TIMELY PREFETCHES:          0 LATE PREFETCHES: 0 DROPPED PREFETCHES: 0
PSCL2 PREFETCHES SAME FILL-ORIGIN LEVEL: 0 DIFFERENT FILL-ORIGIN LEVEL: 0

LLC TOTAL     ACCESS:    1501344  HIT:     186162  MISS:    1315182  HIT %:    12.3997  MISS %:    87.6003   MPKI: 26.3036
LLC LOAD      ACCESS:      20667  HIT:       1013  MISS:      19654  HIT %:    4.90153  MISS %:    95.0985   MPKI: 0.39308
LLC RFO       ACCESS:     344384  HIT:      17136  MISS:     327248  HIT %:    4.97584  MISS %:    95.0242   MPKI: 6.54496
LLC PREFETCH  ACCESS:     787122  HIT:      54357  MISS:     732765  HIT %:    6.90579  MISS %:    93.0942   MPKI: 14.6553
LLC WRITEBACK ACCESS:     344269  HIT:     113462  MISS:     230807  HIT %:    32.9574  MISS %:    67.0426   MPKI: 4.61614
LLC LOAD TRANSLATION ACCESS:       4902  HIT:        194  MISS:       4708  HIT %:    3.95757  MISS %:    96.0424   MPKI: 0.09416
LLC PREFETCH  REQUESTED:          0  ISSUED:          0  USEFUL:       1288  USELESS:     736013
LLC USEFUL LOAD PREFETCHES:       1288 PREFETCH ISSUED TO LOWER LEVEL:     732765  ACCURACY: 0.175773
LLC TIMELY PREFETCHES:       1288 LATE PREFETCHES: 0 DROPPED PREFETCHES: 0
LLC PREFETCHES SAME FILL-ORIGIN LEVEL: 0 DIFFERENT FILL-ORIGIN LEVEL: 0
LLC AVERAGE MISS LATENCY: 223.091 cycles
LLC RQ	ACCESS:     369955	FORWARD:          0	MERGED:          0	TO_CACHE:     369955
LLC WQ	ACCESS:     344269	FORWARD:          0	MERGED:          0	TO_CACHE:     344269
LLC PQ	ACCESS:     787122	FORWARD:          0	MERGED:          0	TO_CACHE:     787122

LLC Dense regions hint to LLC: 0

RAW hits: 2
Loads Generated: 18807450
Loads sent to L1D: 18807447
Stores Generated: 2738725
Stores sent to L1D: 2738726
Major fault: 0 Minor fault: 15227
Allocated PAGES: 15227

stream: 
stream:times selected: 1801296
stream:pref_filled: 906634
stream:pref_useful: 856949
stream:pref_late: 15527
stream:misses: 110
stream:misses_by_poll: 0

CS: 
CS:times selected: 1785834
CS:pref_filled: 1624
CS:pref_useful: 1505
CS:pref_late: 94
CS:misses: 113752
CS:misses_by_poll: 9

CPLX: 
CPLX:times selected: 15390
CPLX:pref_filled: 1102
CPLX:pref_useful: 341
CPLX:pref_late: 13
CPLX:misses: 1438
CPLX:misses_by_poll: 7

NL_L1: 
NL:times selected: 44
NL:pref_filled: 3
NL:pref_useful: 3
NL:pref_late: 0
NL:misses: 4
NL:misses_by_poll: 0

total selections: 3602564
total_filled: 754618
total_useful: 711805
total_late: 15634
total_polluted: 16
total_misses_after_warmup: 110992
conflicts: 20
Degree Incremented Times: 115669
Degree Decremented Times: 6892

L1 IP Table Write Accesses: 11749398
L1 IP Table Read Accesses: 11749378
L1 RST Write Accesses: 1503478
L1 RST Read Accesses: 3006956
L1 CSPT Write Accesses: 1503478
L1 CSPT Read Accesses: 1522382
L1 RR Filter Tag Write Accesses: 2730392
L1 RR Filter Tag Read Accesses: 328653530
L1 IP Table Tag Write Accesses: 11751264
L1 IP Table Tag Read Accesses: 11751264
L1 RST Tag Write Accesses: 0
L1 RST Tag Read Accesses: 13602822
L1 RR Filter Write Accesses: 0
L1 RR Filter Read Accesses: 12850184
test: 41873
L2 IP Table Read Accesses: 1229097
L2 IP Table Write Accesses: 1204327
L2 IP Table Tag Read Accesses: 614552
L2 IP Table Tag Write Accesses: 614552

DRAM Statistics
 CHANNEL 0
 RQ ROW_BUFFER_HIT:     262962  ROW_BUFFER_MISS:     821394
 DBUS_CONGESTED:        368
 WQ ROW_BUFFER_HIT:     125690  ROW_BUFFER_MISS:     197225  FULL:       1137

 AVG_CONGESTED_CYCLE: 6
 All warmup complete: 2
Channel 0 Bank busy for read cycles: 0
Channel 0 Bank busy for write cycles: 0
Channel 0
Rank 0
0banks busy for read cycles: 178950
0banks busy for write cycles: 190
1banks busy for read cycles: 10829546
1banks busy for write cycles: 125643
2banks busy for read cycles: 13037481
2banks busy for write cycles: 123574
3banks busy for read cycles: 8721718
3banks busy for write cycles: 139147
4banks busy for read cycles: 3759960
4banks busy for write cycles: 151875
5banks busy for read cycles: 1233803
5banks busy for write cycles: 162609
6banks busy for read cycles: 1228913
6banks busy for write cycles: 198170
7banks busy for read cycles: 2750277
7banks busy for write cycles: 631178
8banks busy for read cycles: 3635088
8banks busy for write cycles: 8914252

CPU 0 Branch Prediction Accuracy: 99.8858% MPKI: 0.06352 Average ROB Occupancy at Mispredict: 193.382
Branch types
NOT_BRANCH: 47219347 94.4387%
BRANCH_DIRECT_JUMP: 0 0%
BRANCH_INDIRECT: 0 0%
BRANCH_CONDITIONAL: 2780656 5.56131%
BRANCH_DIRECT_CALL: 0 0%
BRANCH_INDIRECT_CALL: 0 0%
BRANCH_RETURN: 0 0%
BRANCH_OTHER: 0 0%

@sumon_overall_L1D    711805     66016     66016     42818    754618   5039134   5249959
@Sumon_Early_by_class_L1D    710110      1354       341         0
@Sumon_Late_by_class_L1D     15301        94        13         0

@Sumon_Early_by_cycle_L1D     23179     38177     65464     21638     11890    521469     29982         6         0         0         0         0
@Sumon_Late_by_cycle_L1D      3364      2412      1063      1510      5746      1313
@Sumon_Early_stream_L1D     23063     38015     65406     21511     11669    520591     29851         4         0         0         0         0
@Sumon_Early_CS_L1D       110       162        58       127       220       675         2         0         0         0         0         0
@Sumon_Early_CPLX_L1D         6         0         0         0         1       203       129         2         0         0         0         0
@Sumon_Late_stream_L1D      3329      2398      1055      1498      5716      1305
@Sumon_Late_CS_L1D        34        14         6         9        24         7
@Sumon_Late_CPLX_L1D         1         0         2         3         6         1
@sumon_overall_L2C      3058       527         0    783682    786595   3315468   3451254
@Sumon_Early_by_class_L2C      3057         1         0         0
@Sumon_Late_by_class_L2C       524         2         0         0

@Sumon_Early_by_cycle_L2C        40        70        86        72        55       751      1972        12         0         0         0         0
@Sumon_Late_by_cycle_L2C         1         1        31        29       381        84
@Sumon_Early_stream_L2C        40        70        86        72        54       751      1972        12         0         0         0         0
@Sumon_Early_CS_L2C         0         0         0         0         1         0         0         0         0         0         0         0
@Sumon_Early_CPLX_L2C         0         0         0         0         0         0         0         0         0         0         0         0
@Sumon_Late_stream_L2C         0         1        30        28       381        84
@Sumon_Late_CS_L2C         0         0         1         1         0         0
@Sumon_Late_CPLX_L2C         0         0         0         0         0         0
DRAM PAGES: 1048576
Allocated PAGES: 15227
