
*** ChampSim Multicore Out-of-Order Simulator ***

Warmup Instructions: 10000000
Simulation Instructions: 50000000
Number of CPUs: 1
LLC sets: 2048
LLC ways: 16
Off-chip DRAM Size: 4096 MB Channels: 1 Width: 64-bit Data Rate: 6400 MT/s
CPU 0 runs traces/clientserver/client_006.champsimtrace.xz
.xz
CPU 0 Bimodal branch predictor
BTB has LRU replacement policy
ITLB has LRU replacement policy
DTLB has LRU replacement policy
STLB has LRU replacement policy
L1I has LRU replacement policy
IP Table Entries: 256
L1D has LRU replacement policy
IP_Table L2 entries: 256
L2C has LRU replacement policy
Initialize SRRIP state
Heartbeat CPU 0 instructions: 10000001 cycles: 3364588 heartbeat IPC: 2.97213 cumulative IPC: 2.97213 (Simulation time: 0 hr 25 min 3 sec) 

Warmup complete CPU 0 instructions: 10000001 cycles: 3364588 (Simulation time: 0 hr 25 min 3 sec) 

Heartbeat CPU 0 instructions: 20000000 cycles: 19672101 heartbeat IPC: 0.613214 cumulative IPC: 0.613214 (Simulation time: 0 hr 46 min 1 sec) 
Heartbeat CPU 0 instructions: 30000003 cycles: 37607096 heartbeat IPC: 0.557569 cumulative IPC: 0.584069 (Simulation time: 1 hr 3 min 24 sec) 
Heartbeat CPU 0 instructions: 40000000 cycles: 54197879 heartbeat IPC: 0.602744 cumulative IPC: 0.590164 (Simulation time: 1 hr 21 min 41 sec) 
Heartbeat CPU 0 instructions: 50000003 cycles: 72668681 heartbeat IPC: 0.541395 cumulative IPC: 0.577166 (Simulation time: 1 hr 42 min 26 sec) 
Heartbeat CPU 0 instructions: 60000002 cycles: 89477610 heartbeat IPC: 0.594922 cumulative IPC: 0.580632 (Simulation time: 1 hr 52 min 16 sec) 
Finished CPU 0 instructions: 50000001 cycles: 86113022 cumulative IPC: 0.580632 (Simulation time: 1 hr 52 min 16 sec) 

ChampSim completed all CPUs

Region of Interest Statistics

CPU 0 cumulative IPC: 0.580632 instructions: 50000001 cycles: 86113022
ITLB TOTAL     ACCESS:    7916984  HIT:    7777243  MISS:     139741  HIT %:    98.2349  MISS %:    1.76508   MPKI: 2.79482
ITLB LOAD TRANSLATION ACCESS:    7916984  HIT:    7777243  MISS:     139741  HIT %:    98.2349  MISS %:    1.76508   MPKI: 2.79482
ITLB PREFETCH  REQUESTED:          0  ISSUED:          0  USEFUL:          0  USELESS:          0
ITLB USEFUL LOAD PREFETCHES:          0 PREFETCH ISSUED TO LOWER LEVEL:          0  ACCURACY: -nan
ITLB TIMELY PREFETCHES:          0 LATE PREFETCHES: 0 DROPPED PREFETCHES: 0
ITLB PREFETCHES SAME FILL-ORIGIN LEVEL: 0 DIFFERENT FILL-ORIGIN LEVEL: 0
ITLB AVERAGE MISS LATENCY: 10.9006 cycles
ITLB RQ	ACCESS:    9525222	FORWARD:          0	MERGED:    1591852	TO_CACHE:    7933370

DTLB TOTAL     ACCESS:   11091031  HIT:   10737859  MISS:     353172  HIT %:    96.8157  MISS %:     3.1843   MPKI: 7.06344
DTLB LOAD TRANSLATION ACCESS:   11091031  HIT:   10737859  MISS:     353172  HIT %:    96.8157  MISS %:     3.1843   MPKI: 7.06344
DTLB PREFETCH  REQUESTED:          0  ISSUED:          0  USEFUL:          0  USELESS:          0
DTLB USEFUL LOAD PREFETCHES:          0 PREFETCH ISSUED TO LOWER LEVEL:          0  ACCURACY: -nan
DTLB TIMELY PREFETCHES:          0 LATE PREFETCHES: 0 DROPPED PREFETCHES: 0
DTLB PREFETCHES SAME FILL-ORIGIN LEVEL: 0 DIFFERENT FILL-ORIGIN LEVEL: 0
DTLB AVERAGE MISS LATENCY: 17.9719 cycles
DTLB RQ	ACCESS:   13153353	FORWARD:          0	MERGED:    2046435	TO_CACHE:   11106918

STLB TOTAL     ACCESS:    1071945  HIT:    1047313  MISS:      24632  HIT %:    97.7021  MISS %:    2.29788   MPKI: 0.49264
STLB LOAD TRANSLATION ACCESS:     492912  HIT:     468280  MISS:      24632  HIT %:    95.0028  MISS %:    4.99724   MPKI: 0.49264
STLB TRANSLATION FROM L1D PREFETCHER ACCESS:     579033  HIT:     579033  MISS:          0  HIT %:        100  MISS %:          0   MPKI: 0
STLB PREFETCH  REQUESTED:          0  ISSUED:          0  USEFUL:          0  USELESS:          0
STLB USEFUL LOAD PREFETCHES:          0 PREFETCH ISSUED TO LOWER LEVEL:          0  ACCURACY: -nan
STLB TIMELY PREFETCHES:          0 LATE PREFETCHES: 0 DROPPED PREFETCHES: 0
STLB PREFETCHES SAME FILL-ORIGIN LEVEL: 0 DIFFERENT FILL-ORIGIN LEVEL: 0
STLB AVERAGE MISS LATENCY: 138.323 cycles
STLB RQ	ACCESS:    1305029	FORWARD:          0	MERGED:     233084	TO_CACHE:    1071945

STLB Hit, L1D data hit: 0
STLB Hit, L2C data hit: 0
STLB Hit, LLC data hit: 0
STLB Hit, LLC data miss: 0
STLB STLB hints to L2: 0
L1D TOTAL     ACCESS:   13581292  HIT:   12636679  MISS:     944613  HIT %:    93.0447  MISS %:    6.95525   MPKI: 18.8923
L1D LOAD      ACCESS:    8561869  HIT:    8107842  MISS:     454027  HIT %:    94.6971  MISS %:     5.3029   MPKI: 9.08054
L1D RFO       ACCESS:    4271300  HIT:    4199067  MISS:      72233  HIT %:    98.3089  MISS %:    1.69112   MPKI: 1.44466
L1D PREFETCH  ACCESS:     748123  HIT:     329770  MISS:     418353  HIT %:    44.0797  MISS %:    55.9203   MPKI: 8.36706
L1D PREFETCH  REQUESTED:    1624560  ISSUED:    1624342  USEFUL:     149762  USELESS:     268676
L1D USEFUL LOAD PREFETCHES:     149762 PREFETCH ISSUED TO LOWER LEVEL:     422576  ACCURACY: 35.4403
L1D TIMELY PREFETCHES:     149762 LATE PREFETCHES: 119604 DROPPED PREFETCHES: 0
L1D PREFETCHES SAME FILL-ORIGIN LEVEL: 422576 DIFFERENT FILL-ORIGIN LEVEL: 0
L1D AVERAGE MISS LATENCY: 234971 cycles
L1D RQ	ACCESS:   12128014	FORWARD:          0	MERGED:    3330963	TO_CACHE:    8731124
L1D WQ	ACCESS:    4484002	FORWARD:      66035	MERGED:      61773	TO_CACHE:    4422229
L1D PQ	ACCESS:     812225	FORWARD:          0	MERGED:          0	TO_CACHE:     812117

L1D UNIQUE REGIONS ACCESSED: 0
L1D REGIONS CONFLICTS: 0
L1D Cross Page Prefetch Requests: 0
L1D Same Page Prefetch Requests: 1145543
L1D ROI Sum of L1D PQ occupancy: 11486991
L1D PREFETCHES PUSHED FROM L2C: 0
L1I TOTAL     ACCESS:    9263323  HIT:    8531021  MISS:     732302  HIT %:    92.0946  MISS %:    7.90539   MPKI: 14.646
L1I LOAD      ACCESS:    9263323  HIT:    8531021  MISS:     732302  HIT %:    92.0946  MISS %:    7.90539   MPKI: 14.646
L1I PREFETCH  REQUESTED:          0  ISSUED:          0  USEFUL:          0  USELESS:          0
L1I USEFUL LOAD PREFETCHES:          0 PREFETCH ISSUED TO LOWER LEVEL:          0  ACCURACY: -nan
L1I TIMELY PREFETCHES:          0 LATE PREFETCHES: 0 DROPPED PREFETCHES: 0
L1I PREFETCHES SAME FILL-ORIGIN LEVEL: 0 DIFFERENT FILL-ORIGIN LEVEL: 0
L1I AVERAGE MISS LATENCY: 19.066 cycles
L1I RQ	ACCESS:   13565326	FORWARD:          0	MERGED:    4040104	TO_CACHE:    9525222

BTB TOTAL     ACCESS:    5171861  HIT:    4886345  MISS:     285516  HIT %:    94.4794  MISS %:    5.52057   MPKI: 5.71032
BTB BRANCH_DIRECT_JUMP	ACCESS:     468887  HIT:     465580  MISS:       3307
BTB BRANCH_INDIRECT	ACCESS:      51898  HIT:      32201  MISS:      19697
BTB BRANCH_CONDITIONAL	ACCESS:    3126383  HIT:    3119589  MISS:       6794
BTB BRANCH_DIRECT_CALL	ACCESS:     511782  HIT:     508568  MISS:       3214
BTB BRANCH_INDIRECT_CALL	ACCESS:     249632  HIT:     190154  MISS:      59478
BTB BRANCH_RETURN	ACCESS:     763279  HIT:     570253  MISS:     193026
BTB BRANCH_OTHER ACCESS:          0  HIT:          0  MISS:          0

L2C TOTAL     ACCESS:    2149308  HIT:    1629299  MISS:     520009  HIT %:    75.8057  MISS %:    24.1943   MPKI: 10.4002
L2C LOAD      ACCESS:    1186322  HIT:     951643  MISS:     234679  HIT %:    80.2179  MISS %:    19.7821   MPKI: 4.69358
L2C DATA LOAD MPKI: 3.72222
L2C INSTRUCTION LOAD MPKI: 0.97136
L2C RFO       ACCESS:      68725  HIT:      20472  MISS:      48253  HIT %:    29.7883  MISS %:    70.2117   MPKI: 0.96506
L2C PREFETCH  ACCESS:     637166  HIT:     414610  MISS:     222556  HIT %:     65.071  MISS %:     34.929   MPKI: 4.45112
L2C DATA PREFETCH MPKI: 4.45112
L2C INSTRUCTION PREFETCH MPKI: 0
L2C WRITEBACK ACCESS:     229759  HIT:     228681  MISS:       1078  HIT %:    99.5308  MISS %:   0.469187   MPKI: 0.02156
L2C LOAD TRANSLATION ACCESS:      27336  HIT:      13893  MISS:      13443  HIT %:    50.8231  MISS %:    49.1769   MPKI: 0.26886
L2C PREFETCH  REQUESTED:     362266  ISSUED:     355670  USEFUL:      25127  USELESS:     196589
L2C USEFUL LOAD PREFETCHES:      25127 PREFETCH ISSUED TO LOWER LEVEL:     235264  ACCURACY: 10.6803
L2C TIMELY PREFETCHES:      25127 LATE PREFETCHES: 12708 DROPPED PREFETCHES: 0
L2C PREFETCHES SAME FILL-ORIGIN LEVEL: 77490 DIFFERENT FILL-ORIGIN LEVEL: 0
L2C AVERAGE MISS LATENCY: 136.708 cycles
L2C RQ	ACCESS:    1282393	FORWARD:          0	MERGED:          0	TO_CACHE:    1282383
L2C WQ	ACCESS:     229759	FORWARD:         22	MERGED:          0	TO_CACHE:     229759
L2C PQ	ACCESS:     777528	FORWARD:          0	MERGED:      85991	TO_CACHE:     691525

L2C Instructions Evicting Data 44683
L2C Translations Evicting Data 12209
L2C Data Evicting Data 400089
L2C Instructions Evicting Instructions 3019
L2C Translations Evicting Instructions 899
L2C Data Evicting Instructions 44676
L2C Instructions Evicting Translations 866
L2C Translations Evicting Translations 335
L2C Data Evicting Translations 12155
L2C Dense regions hint from L2: 0
PSCL5 TOTAL     ACCESS:      24632  HIT:      24632  MISS:          0  HIT %:        100  MISS %:          0   MPKI: 0
PSCL5 LOAD TRANSLATION ACCESS:      24632  HIT:      24632  MISS:          0  HIT %:        100  MISS %:          0   MPKI: 0
PSCL5 PREFETCH  REQUESTED:          0  ISSUED:          0  USEFUL:          0  USELESS:          0
PSCL5 USEFUL LOAD PREFETCHES:          0 PREFETCH ISSUED TO LOWER LEVEL:          0  ACCURACY: -nan
PSCL5 TIMELY PREFETCHES:          0 LATE PREFETCHES: 0 DROPPED PREFETCHES: 0
PSCL5 PREFETCHES SAME FILL-ORIGIN LEVEL: 0 DIFFERENT FILL-ORIGIN LEVEL: 0

PSCL4 TOTAL     ACCESS:      22468  HIT:      22443  MISS:         25  HIT %:    99.8887  MISS %:   0.111269   MPKI: 0.0005
PSCL4 LOAD TRANSLATION ACCESS:      22468  HIT:      22443  MISS:         25  HIT %:    99.8887  MISS %:   0.111269   MPKI: 0.0005
PSCL4 PREFETCH  REQUESTED:          0  ISSUED:          0  USEFUL:          0  USELESS:          0
PSCL4 USEFUL LOAD PREFETCHES:          0 PREFETCH ISSUED TO LOWER LEVEL:          0  ACCURACY: -nan
PSCL4 TIMELY PREFETCHES:          0 LATE PREFETCHES: 0 DROPPED PREFETCHES: 0
PSCL4 PREFETCHES SAME FILL-ORIGIN LEVEL: 0 DIFFERENT FILL-ORIGIN LEVEL: 0

PSCL3 TOTAL     ACCESS:      24573  HIT:      24496  MISS:         77  HIT %:    99.6866  MISS %:   0.313352   MPKI: 0.00154
PSCL3 LOAD TRANSLATION ACCESS:      24573  HIT:      24496  MISS:         77  HIT %:    99.6866  MISS %:   0.313352   MPKI: 0.00154
PSCL3 PREFETCH  REQUESTED:          0  ISSUED:          0  USEFUL:          0  USELESS:          0
PSCL3 USEFUL LOAD PREFETCHES:          0 PREFETCH ISSUED TO LOWER LEVEL:          0  ACCURACY: -nan
PSCL3 TIMELY PREFETCHES:          0 LATE PREFETCHES: 0 DROPPED PREFETCHES: 0
PSCL3 PREFETCHES SAME FILL-ORIGIN LEVEL: 0 DIFFERENT FILL-ORIGIN LEVEL: 0

PSCL2 TOTAL     ACCESS:      24632  HIT:      21900  MISS:       2732  HIT %:    88.9087  MISS %:    11.0913   MPKI: 0.05464
PSCL2 LOAD TRANSLATION ACCESS:      24632  HIT:      21900  MISS:       2732  HIT %:    88.9087  MISS %:    11.0913   MPKI: 0.05464
PSCL2 PREFETCH  REQUESTED:          0  ISSUED:          0  USEFUL:          0  USELESS:          0
PSCL2 USEFUL LOAD PREFETCHES:          0 PREFETCH ISSUED TO LOWER LEVEL:          0  ACCURACY: -nan
PSCL2 TIMELY PREFETCHES:          0 LATE PREFETCHES: 0 DROPPED PREFETCHES: 0
PSCL2 PREFETCHES SAME FILL-ORIGIN LEVEL: 0 DIFFERENT FILL-ORIGIN LEVEL: 0

LLC TOTAL     ACCESS:     661906  HIT:     270076  MISS:     391830  HIT %:    40.8028  MISS %:    59.1972   MPKI: 7.8366
LLC LOAD      ACCESS:     221991  HIT:      74398  MISS:     147593  HIT %:     33.514  MISS %:     66.486   MPKI: 2.95186
LLC RFO       ACCESS:      48233  HIT:       9768  MISS:      38465  HIT %:    20.2517  MISS %:    79.7483   MPKI: 0.7693
LLC PREFETCH  ACCESS:     235264  HIT:     113129  MISS:     122135  HIT %:     48.086  MISS %:     51.914   MPKI: 2.4427
LLC WRITEBACK ACCESS:     142975  HIT:      66486  MISS:      76489  HIT %:    46.5018  MISS %:    53.4982   MPKI: 1.52978
LLC LOAD TRANSLATION ACCESS:      13443  HIT:       6295  MISS:       7148  HIT %:    46.8273  MISS %:    53.1727   MPKI: 0.14296
LLC PREFETCH  REQUESTED:          0  ISSUED:          0  USEFUL:       3706  USELESS:     128084
LLC USEFUL LOAD PREFETCHES:       3706 PREFETCH ISSUED TO LOWER LEVEL:     122135  ACCURACY: 3.03435
LLC TIMELY PREFETCHES:       3706 LATE PREFETCHES: 0 DROPPED PREFETCHES: 0
LLC PREFETCHES SAME FILL-ORIGIN LEVEL: 0 DIFFERENT FILL-ORIGIN LEVEL: 0
LLC AVERAGE MISS LATENCY: 143.677 cycles
LLC RQ	ACCESS:     283667	FORWARD:          0	MERGED:          0	TO_CACHE:     283667
LLC WQ	ACCESS:     142975	FORWARD:          0	MERGED:          0	TO_CACHE:     142975
LLC PQ	ACCESS:     235264	FORWARD:          0	MERGED:          0	TO_CACHE:     235264

LLC Dense regions hint to LLC: 0

RAW hits: 823948
Loads Generated: 12951965
Loads sent to L1D: 12128014
Stores Generated: 4483996
Stores sent to L1D: 4484002
Major fault: 0 Minor fault: 9084
Allocated PAGES: 9084

stream: 
stream:times selected: 1260795
stream:pref_filled: 237717
stream:pref_useful: 56161
stream:pref_late: 9617
stream:misses: 27670
stream:misses_by_poll: 0

CS: 
CS:times selected: 360906
CS:pref_filled: 262422
CS:pref_useful: 143207
CS:pref_late: 103200
CS:misses: 121351
CS:misses_by_poll: 38

CPLX: 
CPLX:times selected: 895740
CPLX:pref_filled: 59894
CPLX:pref_useful: 15121
CPLX:pref_late: 3522
CPLX:misses: 148088
CPLX:misses_by_poll: 30

NL_L1: 
NL:times selected: 6511
NL:pref_filled: 1137
NL:pref_useful: 787
NL:pref_late: 70
NL:misses: 1167
NL:misses_by_poll: 0

total selections: 2523952
total_filled: 418353
total_useful: 149762
total_late: 116562
total_polluted: 68
total_misses_after_warmup: 623285
conflicts: 1870029
Degree Incremented Times: 18986
Degree Decremented Times: 116787

L1 IP Table Write Accesses: 6212334
L1 IP Table Read Accesses: 4342305
L1 RST Write Accesses: 942516
L1 RST Read Accesses: 1885032
L1 CSPT Write Accesses: 942516
L1 CSPT Read Accesses: 1609338
L1 RR Filter Tag Write Accesses: 812443
L1 RR Filter Tag Read Accesses: 57467016
L1 IP Table Tag Write Accesses: 8731127
L1 IP Table Tag Read Accesses: 8731127
L1 RST Tag Write Accesses: 0
L1 RST Tag Read Accesses: 8421205
L1 RR Filter Write Accesses: 0
L1 RR Filter Read Accesses: 1972797
test: 346376
L2 IP Table Read Accesses: 1557319
L2 IP Table Write Accesses: 1322178
L2 IP Table Tag Read Accesses: 850407
L2 IP Table Tag Write Accesses: 850407

DRAM Statistics
 CHANNEL 0
 RQ ROW_BUFFER_HIT:      90657  ROW_BUFFER_MISS:     224629
 DBUS_CONGESTED:        164
 WQ ROW_BUFFER_HIT:      25125  ROW_BUFFER_MISS:      95849  FULL:        415

 AVG_CONGESTED_CYCLE: 4
 All warmup complete: 2
Channel 0 Bank busy for read cycles: 0
Channel 0 Bank busy for write cycles: 0
Channel 0
Rank 0
0banks busy for read cycles: 55685592
0banks busy for write cycles: 35935
1banks busy for read cycles: 11691946
1banks busy for write cycles: 4911184
2banks busy for read cycles: 5156808
2banks busy for write cycles: 1809403
3banks busy for read cycles: 2025070
3banks busy for write cycles: 861810
4banks busy for read cycles: 785329
4banks busy for write cycles: 486596
5banks busy for read cycles: 294498
5banks busy for write cycles: 290680
6banks busy for read cycles: 163493
6banks busy for write cycles: 197252
7banks busy for read cycles: 149827
7banks busy for write cycles: 189228
8banks busy for read cycles: 466321
8banks busy for write cycles: 912051

CPU 0 Branch Prediction Accuracy: 95.4558% MPKI: 7.81132 Average ROB Occupancy at Mispredict: 48.0965
Branch types
NOT_BRANCH: 41404794 82.8096%
BRANCH_DIRECT_JUMP: 468887 0.937774%
BRANCH_INDIRECT: 51898 0.103796%
BRANCH_CONDITIONAL: 6549378 13.0988%
BRANCH_DIRECT_CALL: 511782 1.02356%
BRANCH_INDIRECT_CALL: 249632 0.499264%
BRANCH_RETURN: 763279 1.52656%
BRANCH_OTHER: 0 0%

@sumon_overall_L1D    149762    119604    119604    268676    418353   1624342   1624560
@Sumon_Early_by_class_L1D     43259     91891     12318        70
@Sumon_Late_by_class_L1D      9462    100587      3446        70

@Sumon_Early_by_cycle_L1D     68850     36358      8797      7346      3251      9343      6849      3122      2335      2277       796       438
@Sumon_Late_by_cycle_L1D      8491     83900      7121      5942      8002       252
@Sumon_Early_stream_L1D     21853      5950      2460      1383      1307      3729      2058      1484      1187      1085       443       320
@Sumon_Early_CS_L1D     42517     27815      5242      5464      1552      3699      3533       984       501       491        69        24
@Sumon_Early_CPLX_L1D      3840      2347       998       435       299      1085      1152       588       577       636       273        88
@Sumon_Late_stream_L1D      1932      1783      1524      1825      2361        37
@Sumon_Late_CS_L1D      4622     81273      5356      3872      5255       209
@Sumon_Late_CPLX_L1D      1831       818       216       219       356         6
@sumon_overall_L2C     25127     12708         0    196589    222556    355670    362266
@Sumon_Early_by_class_L2C      1737      3321      1019         0
@Sumon_Late_by_class_L2C         0      9570         0         0

@Sumon_Early_by_cycle_L2C      5164      2827      1576       822       845      3284      1933      1499       556       976      1129      4516
@Sumon_Late_by_cycle_L2C       736       580       982      4964      5296       150
@Sumon_Early_stream_L2C         0         0         0         0         0         0         0         1        11        89       295      1341
@Sumon_Early_CS_L2C      1885       309       230        12         0        14        11        12        22        40       120       666
@Sumon_Early_CPLX_L2C         0         0         0         0         0         0         0         0         6        39       149       825
@Sumon_Late_stream_L2C         0         0         0         0         0         0
@Sumon_Late_CS_L2C         0       338       708      4454      3920       150
@Sumon_Late_CPLX_L2C         0         0         0         0         0         0
DRAM PAGES: 1048576
Allocated PAGES: 9084
