
*** ChampSim Multicore Out-of-Order Simulator ***

Warmup Instructions: 10000000
Simulation Instructions: 50000000
Number of CPUs: 1
LLC sets: 2048
LLC ways: 16
Off-chip DRAM Size: 4096 MB Channels: 1 Width: 64-bit Data Rate: 6400 MT/s
CPU 0 runs traces/clientserver/client_004.champsimtrace.xz
.xz
CPU 0 Bimodal branch predictor
BTB has LRU replacement policy
ITLB has LRU replacement policy
DTLB has LRU replacement policy
STLB has LRU replacement policy
L1I has LRU replacement policy
IP Table Entries: 256
L1D has LRU replacement policy
IP_Table L2 entries: 256
L2C has LRU replacement policy
Initialize SRRIP state
Heartbeat CPU 0 instructions: 10000000 cycles: 3024633 heartbeat IPC: 3.30619 cumulative IPC: 3.30619 (Simulation time: 0 hr 20 min 22 sec) 

Warmup complete CPU 0 instructions: 10000004 cycles: 3024634 (Simulation time: 0 hr 20 min 22 sec) 

Heartbeat CPU 0 instructions: 20000003 cycles: 20464285 heartbeat IPC: 0.573406 cumulative IPC: 0.573406 (Simulation time: 0 hr 37 min 41 sec) 
Heartbeat CPU 0 instructions: 30000002 cycles: 40558300 heartbeat IPC: 0.497661 cumulative IPC: 0.532855 (Simulation time: 0 hr 56 min 17 sec) 
Heartbeat CPU 0 instructions: 40000000 cycles: 60711545 heartbeat IPC: 0.496198 cumulative IPC: 0.520049 (Simulation time: 1 hr 14 min 52 sec) 
Heartbeat CPU 0 instructions: 50000001 cycles: 78339915 heartbeat IPC: 0.567267 cumulative IPC: 0.531101 (Simulation time: 1 hr 33 min 6 sec) 
Heartbeat CPU 0 instructions: 60000000 cycles: 96624036 heartbeat IPC: 0.546923 cumulative IPC: 0.534191 (Simulation time: 1 hr 48 min 20 sec) 
Finished CPU 0 instructions: 50000000 cycles: 93599403 cumulative IPC: 0.534191 (Simulation time: 1 hr 48 min 20 sec) 

ChampSim completed all CPUs

Region of Interest Statistics

CPU 0 cumulative IPC: 0.534191 instructions: 50000000 cycles: 93599403
ITLB TOTAL     ACCESS:    8476922  HIT:    8390597  MISS:      86325  HIT %:    98.9816  MISS %:    1.01835   MPKI: 1.7265
ITLB LOAD TRANSLATION ACCESS:    8476922  HIT:    8390597  MISS:      86325  HIT %:    98.9816  MISS %:    1.01835   MPKI: 1.7265
ITLB PREFETCH  REQUESTED:          0  ISSUED:          0  USEFUL:          0  USELESS:          0
ITLB USEFUL LOAD PREFETCHES:          0 PREFETCH ISSUED TO LOWER LEVEL:          0  ACCURACY: -nan
ITLB TIMELY PREFETCHES:          0 LATE PREFETCHES: 0 DROPPED PREFETCHES: 0
ITLB PREFETCHES SAME FILL-ORIGIN LEVEL: 0 DIFFERENT FILL-ORIGIN LEVEL: 0
ITLB AVERAGE MISS LATENCY: 11.7971 cycles
ITLB RQ	ACCESS:    9777578	FORWARD:          0	MERGED:    1280385	TO_CACHE:    8497193

DTLB TOTAL     ACCESS:   12134753  HIT:   11944676  MISS:     190077  HIT %:    98.4336  MISS %:    1.56639   MPKI: 3.80154
DTLB LOAD TRANSLATION ACCESS:   12134753  HIT:   11944676  MISS:     190077  HIT %:    98.4336  MISS %:    1.56639   MPKI: 3.80154
DTLB PREFETCH  REQUESTED:          0  ISSUED:          0  USEFUL:          0  USELESS:          0
DTLB USEFUL LOAD PREFETCHES:          0 PREFETCH ISSUED TO LOWER LEVEL:          0  ACCURACY: -nan
DTLB TIMELY PREFETCHES:          0 LATE PREFETCHES: 0 DROPPED PREFETCHES: 0
DTLB PREFETCHES SAME FILL-ORIGIN LEVEL: 0 DIFFERENT FILL-ORIGIN LEVEL: 0
DTLB AVERAGE MISS LATENCY: 11.4743 cycles
DTLB RQ	ACCESS:   14565768	FORWARD:          0	MERGED:    2421508	TO_CACHE:   12144260

STLB TOTAL     ACCESS:     899212  HIT:     889978  MISS:       9234  HIT %:    98.9731  MISS %:     1.0269   MPKI: 0.18468
STLB LOAD TRANSLATION ACCESS:     276402  HIT:     267168  MISS:       9234  HIT %:    96.6592  MISS %:    3.34079   MPKI: 0.18468
STLB TRANSLATION FROM L1D PREFETCHER ACCESS:     622810  HIT:     622810  MISS:          0  HIT %:        100  MISS %:          0   MPKI: 0
STLB PREFETCH  REQUESTED:          0  ISSUED:          0  USEFUL:          0  USELESS:          0
STLB USEFUL LOAD PREFETCHES:          0 PREFETCH ISSUED TO LOWER LEVEL:          0  ACCURACY: -nan
STLB TIMELY PREFETCHES:          0 LATE PREFETCHES: 0 DROPPED PREFETCHES: 0
STLB PREFETCHES SAME FILL-ORIGIN LEVEL: 0 DIFFERENT FILL-ORIGIN LEVEL: 0
STLB AVERAGE MISS LATENCY: 76.2632 cycles
STLB RQ	ACCESS:    1077774	FORWARD:          0	MERGED:     178562	TO_CACHE:     899212

STLB Hit, L1D data hit: 0
STLB Hit, L2C data hit: 0
STLB Hit, LLC data hit: 0
STLB Hit, LLC data miss: 0
STLB STLB hints to L2: 0
L1D TOTAL     ACCESS:   15140542  HIT:   14562564  MISS:     577978  HIT %:    96.1826  MISS %:    3.81742   MPKI: 11.5596
L1D LOAD      ACCESS:    9143284  HIT:    8844619  MISS:     298665  HIT %:    96.7335  MISS %:     3.2665   MPKI: 5.9733
L1D RFO       ACCESS:    5210550  HIT:    5111261  MISS:      99289  HIT %:    98.0945  MISS %:    1.90554   MPKI: 1.98578
L1D PREFETCH  ACCESS:     786708  HIT:     606684  MISS:     180024  HIT %:    77.1168  MISS %:    22.8832   MPKI: 3.60048
L1D PREFETCH  REQUESTED:    1603181  ISSUED:    1603163  USEFUL:      67425  USELESS:     112467
L1D USEFUL LOAD PREFETCHES:      67425 PREFETCH ISSUED TO LOWER LEVEL:     180430  ACCURACY: 37.3691
L1D TIMELY PREFETCHES:      67425 LATE PREFETCHES: 6019 DROPPED PREFETCHES: 0
L1D PREFETCHES SAME FILL-ORIGIN LEVEL: 180430 DIFFERENT FILL-ORIGIN LEVEL: 0
L1D AVERAGE MISS LATENCY: 40579.1 cycles
L1D RQ	ACCESS:   12713493	FORWARD:          0	MERGED:    3432354	TO_CACHE:    9169604
L1D WQ	ACCESS:    5608672	FORWARD:     111954	MERGED:     212508	TO_CACHE:    5396164
L1D PQ	ACCESS:     801791	FORWARD:          0	MERGED:          0	TO_CACHE:     801372

L1D UNIQUE REGIONS ACCESSED: 0
L1D REGIONS CONFLICTS: 0
L1D Cross Page Prefetch Requests: 0
L1D Same Page Prefetch Requests: 892958
L1D ROI Sum of L1D PQ occupancy: 10315460
L1D PREFETCHES PUSHED FROM L2C: 0
L1I TOTAL     ACCESS:    9668044  HIT:    9155949  MISS:     512095  HIT %:    94.7032  MISS %:    5.29678   MPKI: 10.2419
L1I LOAD      ACCESS:    9668044  HIT:    9155949  MISS:     512095  HIT %:    94.7032  MISS %:    5.29678   MPKI: 10.2419
L1I PREFETCH  REQUESTED:          0  ISSUED:          0  USEFUL:          0  USELESS:          0
L1I USEFUL LOAD PREFETCHES:          0 PREFETCH ISSUED TO LOWER LEVEL:          0  ACCURACY: -nan
L1I TIMELY PREFETCHES:          0 LATE PREFETCHES: 0 DROPPED PREFETCHES: 0
L1I PREFETCHES SAME FILL-ORIGIN LEVEL: 0 DIFFERENT FILL-ORIGIN LEVEL: 0
L1I AVERAGE MISS LATENCY: 33.1015 cycles
L1I RQ	ACCESS:   14337352	FORWARD:          0	MERGED:    4559774	TO_CACHE:    9777578

BTB TOTAL     ACCESS:    7103805  HIT:    6262902  MISS:     840903  HIT %:    88.1626  MISS %:    11.8374   MPKI: 16.8181
BTB BRANCH_DIRECT_JUMP	ACCESS:     684327  HIT:     652259  MISS:      32068
BTB BRANCH_INDIRECT	ACCESS:     441278  HIT:     206647  MISS:     234631
BTB BRANCH_CONDITIONAL	ACCESS:    4304334  HIT:    4222727  MISS:      81607
BTB BRANCH_DIRECT_CALL	ACCESS:     559763  HIT:     506973  MISS:      52790
BTB BRANCH_INDIRECT_CALL	ACCESS:     263528  HIT:     188816  MISS:      74712
BTB BRANCH_RETURN	ACCESS:     850575  HIT:     485480  MISS:     365095
BTB BRANCH_OTHER ACCESS:          0  HIT:          0  MISS:          0

L2C TOTAL     ACCESS:    1429195  HIT:    1075562  MISS:     353633  HIT %:    75.2565  MISS %:    24.7435   MPKI: 7.07266
L2C LOAD      ACCESS:     810738  HIT:     598402  MISS:     212336  HIT %:    73.8095  MISS %:    26.1905   MPKI: 4.24672
L2C DATA LOAD MPKI: 1.2576
L2C INSTRUCTION LOAD MPKI: 2.98912
L2C RFO       ACCESS:      98878  HIT:      38686  MISS:      60192  HIT %:     39.125  MISS %:     60.875   MPKI: 1.20384
L2C PREFETCH  ACCESS:     339431  HIT:     263837  MISS:      75594  HIT %:    77.7292  MISS %:    22.2708   MPKI: 1.51188
L2C DATA PREFETCH MPKI: 1.51188
L2C INSTRUCTION PREFETCH MPKI: 0
L2C WRITEBACK ACCESS:     170314  HIT:     169698  MISS:        616  HIT %:    99.6383  MISS %:   0.361685   MPKI: 0.01232
L2C LOAD TRANSLATION ACCESS:       9834  HIT:       4939  MISS:       4895  HIT %:    50.2237  MISS %:    49.7763   MPKI: 0.0979
L2C PREFETCH  REQUESTED:     166606  ISSUED:     166606  USEFUL:      18843  USELESS:      57642
L2C USEFUL LOAD PREFETCHES:      18843 PREFETCH ISSUED TO LOWER LEVEL:      76697  ACCURACY: 24.5681
L2C TIMELY PREFETCHES:      18843 LATE PREFETCHES: 1103 DROPPED PREFETCHES: 0
L2C PREFETCHES SAME FILL-ORIGIN LEVEL: 38310 DIFFERENT FILL-ORIGIN LEVEL: 0
L2C AVERAGE MISS LATENCY: 84.6704 cycles
L2C RQ	ACCESS:     919476	FORWARD:          0	MERGED:          0	TO_CACHE:     919450
L2C WQ	ACCESS:     170314	FORWARD:         29	MERGED:          0	TO_CACHE:     170314
L2C PQ	ACCESS:     347036	FORWARD:          0	MERGED:       3396	TO_CACHE:     343637

L2C Instructions Evicting Data 81583
L2C Translations Evicting Data 2920
L2C Data Evicting Data 112389
L2C Instructions Evicting Instructions 65853
L2C Translations Evicting Instructions 1878
L2C Data Evicting Instructions 83362
L2C Instructions Evicting Translations 2020
L2C Translations Evicting Translations 97
L2C Data Evicting Translations 2915
L2C Dense regions hint from L2: 0
PSCL5 TOTAL     ACCESS:       9234  HIT:       9234  MISS:          0  HIT %:        100  MISS %:          0   MPKI: 0
PSCL5 LOAD TRANSLATION ACCESS:       9234  HIT:       9234  MISS:          0  HIT %:        100  MISS %:          0   MPKI: 0
PSCL5 PREFETCH  REQUESTED:          0  ISSUED:          0  USEFUL:          0  USELESS:          0
PSCL5 USEFUL LOAD PREFETCHES:          0 PREFETCH ISSUED TO LOWER LEVEL:          0  ACCURACY: -nan
PSCL5 TIMELY PREFETCHES:          0 LATE PREFETCHES: 0 DROPPED PREFETCHES: 0
PSCL5 PREFETCHES SAME FILL-ORIGIN LEVEL: 0 DIFFERENT FILL-ORIGIN LEVEL: 0

PSCL4 TOTAL     ACCESS:       7455  HIT:       7442  MISS:         13  HIT %:    99.8256  MISS %:    0.17438   MPKI: 0.00026
PSCL4 LOAD TRANSLATION ACCESS:       7455  HIT:       7442  MISS:         13  HIT %:    99.8256  MISS %:    0.17438   MPKI: 0.00026
PSCL4 PREFETCH  REQUESTED:          0  ISSUED:          0  USEFUL:          0  USELESS:          0
PSCL4 USEFUL LOAD PREFETCHES:          0 PREFETCH ISSUED TO LOWER LEVEL:          0  ACCURACY: -nan
PSCL4 TIMELY PREFETCHES:          0 LATE PREFETCHES: 0 DROPPED PREFETCHES: 0
PSCL4 PREFETCHES SAME FILL-ORIGIN LEVEL: 0 DIFFERENT FILL-ORIGIN LEVEL: 0

PSCL3 TOTAL     ACCESS:       9003  HIT:       8957  MISS:         46  HIT %:    99.4891  MISS %:   0.510941   MPKI: 0.00092
PSCL3 LOAD TRANSLATION ACCESS:       9003  HIT:       8957  MISS:         46  HIT %:    99.4891  MISS %:   0.510941   MPKI: 0.00092
PSCL3 PREFETCH  REQUESTED:          0  ISSUED:          0  USEFUL:          0  USELESS:          0
PSCL3 USEFUL LOAD PREFETCHES:          0 PREFETCH ISSUED TO LOWER LEVEL:          0  ACCURACY: -nan
PSCL3 TIMELY PREFETCHES:          0 LATE PREFETCHES: 0 DROPPED PREFETCHES: 0
PSCL3 PREFETCHES SAME FILL-ORIGIN LEVEL: 0 DIFFERENT FILL-ORIGIN LEVEL: 0

PSCL2 TOTAL     ACCESS:       9234  HIT:       8687  MISS:        547  HIT %:    94.0762  MISS %:    5.92376   MPKI: 0.01094
PSCL2 LOAD TRANSLATION ACCESS:       9234  HIT:       8687  MISS:        547  HIT %:    94.0762  MISS %:    5.92376   MPKI: 0.01094
PSCL2 PREFETCH  REQUESTED:          0  ISSUED:          0  USEFUL:          0  USELESS:          0
PSCL2 USEFUL LOAD PREFETCHES:          0 PREFETCH ISSUED TO LOWER LEVEL:          0  ACCURACY: -nan
PSCL2 TIMELY PREFETCHES:          0 LATE PREFETCHES: 0 DROPPED PREFETCHES: 0
PSCL2 PREFETCHES SAME FILL-ORIGIN LEVEL: 0 DIFFERENT FILL-ORIGIN LEVEL: 0

LLC TOTAL     ACCESS:     431305  HIT:     294178  MISS:     137127  HIT %:    68.2065  MISS %:    31.7935   MPKI: 2.74254
LLC LOAD      ACCESS:     211320  HIT:     157863  MISS:      53457  HIT %:    74.7033  MISS %:    25.2967   MPKI: 1.06914
LLC RFO       ACCESS:      60105  HIT:      28908  MISS:      31197  HIT %:    48.0958  MISS %:    51.9042   MPKI: 0.62394
LLC PREFETCH  ACCESS:      76697  HIT:      36586  MISS:      40111  HIT %:     47.702  MISS %:     52.298   MPKI: 0.80222
LLC WRITEBACK ACCESS:      78288  HIT:      66944  MISS:      11344  HIT %:    85.5099  MISS %:    14.4901   MPKI: 0.22688
LLC LOAD TRANSLATION ACCESS:       4895  HIT:       3877  MISS:       1018  HIT %:    79.2033  MISS %:    20.7967   MPKI: 0.02036
LLC PREFETCH  REQUESTED:          0  ISSUED:          0  USEFUL:       2602  USELESS:      42843
LLC USEFUL LOAD PREFETCHES:       2602 PREFETCH ISSUED TO LOWER LEVEL:      40111  ACCURACY: 6.487
LLC TIMELY PREFETCHES:       2602 LATE PREFETCHES: 0 DROPPED PREFETCHES: 0
LLC PREFETCHES SAME FILL-ORIGIN LEVEL: 0 DIFFERENT FILL-ORIGIN LEVEL: 0
LLC AVERAGE MISS LATENCY: 140.929 cycles
LLC RQ	ACCESS:     276320	FORWARD:          0	MERGED:          0	TO_CACHE:     276320
LLC WQ	ACCESS:      78289	FORWARD:          0	MERGED:          0	TO_CACHE:      78289
LLC PQ	ACCESS:      76697	FORWARD:          0	MERGED:          0	TO_CACHE:      76697

LLC Dense regions hint to LLC: 0

RAW hits: 876579
Loads Generated: 13590072
Loads sent to L1D: 12713493
Stores Generated: 5608673
Stores sent to L1D: 5608672
Major fault: 0 Minor fault: 3859
Allocated PAGES: 3859

stream: 
stream:times selected: 1390608
stream:pref_filled: 130978
stream:pref_useful: 47102
stream:pref_late: 3933
stream:misses: 15747
stream:misses_by_poll: 0

CS: 
CS:times selected: 80097
CS:pref_filled: 16372
CS:pref_useful: 11679
CS:pref_late: 573
CS:misses: 2261
CS:misses_by_poll: 9

CPLX: 
CPLX:times selected: 1301333
CPLX:pref_filled: 52090
CPLX:pref_useful: 13273
CPLX:pref_late: 551
CPLX:misses: 73354
CPLX:misses_by_poll: 57

NL_L1: 
NL:times selected: 12428
NL:pref_filled: 1306
NL:pref_useful: 545
NL:pref_late: 37
NL:misses: 951
NL:misses_by_poll: 0

total selections: 2784466
total_filled: 180024
total_useful: 67425
total_late: 5169
total_polluted: 66
total_misses_after_warmup: 324984
conflicts: 2071806
Degree Incremented Times: 0
Degree Decremented Times: 77910

L1 IP Table Write Accesses: 6431495
L1 IP Table Read Accesses: 4359689
L1 RST Write Accesses: 1219924
L1 RST Read Accesses: 2439848
L1 CSPT Write Accesses: 1219924
L1 CSPT Read Accesses: 2359869
L1 RR Filter Tag Write Accesses: 801809
L1 RR Filter Tag Read Accesses: 45599908
L1 IP Table Tag Write Accesses: 9169603
L1 IP Table Tag Read Accesses: 9169603
L1 RST Tag Write Accesses: 0
L1 RST Tag Read Accesses: 11095943
L1 RR Filter Write Accesses: 0
L1 RR Filter Read Accesses: 1702181
test: 432692
L2 IP Table Read Accesses: 782443
L2 IP Table Write Accesses: 747105
L2 IP Table Tag Read Accesses: 475767
L2 IP Table Tag Write Accesses: 475767

DRAM Statistics
 CHANNEL 0
 RQ ROW_BUFFER_HIT:      31090  ROW_BUFFER_MISS:      94692
 DBUS_CONGESTED:        117
 WQ ROW_BUFFER_HIT:       6814  ROW_BUFFER_MISS:      27981  FULL:          0

 AVG_CONGESTED_CYCLE: 4
 All warmup complete: 2
Channel 0 Bank busy for read cycles: 0
Channel 0 Bank busy for write cycles: 0
Channel 0
Rank 0
0banks busy for read cycles: 77862522
0banks busy for write cycles: 19506
1banks busy for read cycles: 8477745
1banks busy for write cycles: 3003644
2banks busy for read cycles: 2127726
2banks busy for write cycles: 774891
3banks busy for read cycles: 461581
3banks busy for write cycles: 275693
4banks busy for read cycles: 142825
4banks busy for write cycles: 118235
5banks busy for read cycles: 57960
5banks busy for write cycles: 62123
6banks busy for read cycles: 34501
6banks busy for write cycles: 34776
7banks busy for read cycles: 27834
7banks busy for write cycles: 26590
8banks busy for read cycles: 48181
8banks busy for write cycles: 43071

CPU 0 Branch Prediction Accuracy: 92.6971% MPKI: 13.3583 Average ROB Occupancy at Mispredict: 32.7996
Branch types
NOT_BRANCH: 40853744 81.7075%
BRANCH_DIRECT_JUMP: 684327 1.36865%
BRANCH_INDIRECT: 441278 0.882556%
BRANCH_CONDITIONAL: 6346444 12.6929%
BRANCH_DIRECT_CALL: 559763 1.11953%
BRANCH_INDIRECT_CALL: 263528 0.527056%
BRANCH_RETURN: 850575 1.70115%
BRANCH_OTHER: 0 0%

@sumon_overall_L1D     67425      6019      6019    112467    180024   1603163   1603181
@Sumon_Early_by_class_L1D     42417     10892     12313        37
@Sumon_Late_by_class_L1D      3536       567       535        37

@Sumon_Early_by_cycle_L1D     16815      7510      6597      3808      2323      6737      4696      4658      4030      5468      2879      1904
@Sumon_Late_by_cycle_L1D      1978      1822       292       184       468         0
@Sumon_Early_stream_L1D     11571      4500      3673      2253      1309      4078      3113      3017      2389      3447      1831      1236
@Sumon_Early_CS_L1D      2430      1870      1910       850       532      1262       535       458       437       339       158       111
@Sumon_Early_CPLX_L1D      2407       968       839       598       433      1155       912      1061      1100      1520       814       506
@Sumon_Late_stream_L1D      1328      1529       215       130       334         0
@Sumon_Late_CS_L1D       339        60        44        32        92         0
@Sumon_Late_CPLX_L1D       277       198        28        12        20         0
@sumon_overall_L2C     18843      1103         0     57642     75594    166606    166606
@Sumon_Early_by_class_L2C      3897       706      1790         0
@Sumon_Late_by_class_L2C         0         0         0         0

@Sumon_Early_by_cycle_L2C      1829       925       835       556       388      1125       729       670       634       927      1027      9198
@Sumon_Late_by_cycle_L2C       138       217       120       147       481         0
@Sumon_Early_stream_L2C         0         0         0         0         0         0         0         0         2        90       246      3559
@Sumon_Early_CS_L2C         0         0         0         0         0         0         0         2         0        14        23       667
@Sumon_Early_CPLX_L2C         0         0         0         0         0         0         0         0         0        28       115      1647
@Sumon_Late_stream_L2C         0         0         0         0         0         0
@Sumon_Late_CS_L2C         0         0         0         0         0         0
@Sumon_Late_CPLX_L2C         0         0         0         0         0         0
DRAM PAGES: 1048576
Allocated PAGES: 3859
