
*** ChampSim Multicore Out-of-Order Simulator ***

Warmup Instructions: 10000000
Simulation Instructions: 50000000
Number of CPUs: 1
LLC sets: 2048
LLC ways: 16
Off-chip DRAM Size: 4096 MB Channels: 1 Width: 64-bit Data Rate: 6400 MT/s
CPU 0 runs traces/clientserver/server_035.champsimtrace.xz
.xz
CPU 0 Bimodal branch predictor
BTB has LRU replacement policy
ITLB has LRU replacement policy
DTLB has LRU replacement policy
STLB has LRU replacement policy
L1I has LRU replacement policy
IP Table Entries: 256
L1D has LRU replacement policy
IP_Table L2 entries: 256
L2C has LRU replacement policy
Initialize SRRIP state
Heartbeat CPU 0 instructions: 10000001 cycles: 2769278 heartbeat IPC: 3.61105 cumulative IPC: 3.61105 (Simulation time: 0 hr 18 min 28 sec) 

Warmup complete CPU 0 instructions: 10000001 cycles: 2769278 (Simulation time: 0 hr 18 min 29 sec) 

Heartbeat CPU 0 instructions: 20000000 cycles: 24511592 heartbeat IPC: 0.459933 cumulative IPC: 0.459933 (Simulation time: 0 hr 36 min 32 sec) 
Heartbeat CPU 0 instructions: 30000000 cycles: 45545918 heartbeat IPC: 0.475413 cumulative IPC: 0.467545 (Simulation time: 0 hr 54 min 36 sec) 
Heartbeat CPU 0 instructions: 40000000 cycles: 67177273 heartbeat IPC: 0.462292 cumulative IPC: 0.465781 (Simulation time: 1 hr 13 min 1 sec) 
Heartbeat CPU 0 instructions: 50000000 cycles: 88051525 heartbeat IPC: 0.479059 cumulative IPC: 0.469031 (Simulation time: 1 hr 31 min 2 sec) 
Heartbeat CPU 0 instructions: 60000001 cycles: 109157015 heartbeat IPC: 0.47381 cumulative IPC: 0.469979 (Simulation time: 1 hr 47 min 18 sec) 
Finished CPU 0 instructions: 50000000 cycles: 106387737 cumulative IPC: 0.469979 (Simulation time: 1 hr 47 min 18 sec) 

ChampSim completed all CPUs

Region of Interest Statistics

CPU 0 cumulative IPC: 0.469979 instructions: 50000000 cycles: 106387737
ITLB TOTAL     ACCESS:    8919439  HIT:    8415775  MISS:     503664  HIT %:    94.3532  MISS %:    5.64681   MPKI: 10.0733
ITLB LOAD TRANSLATION ACCESS:    8919439  HIT:    8415775  MISS:     503664  HIT %:    94.3532  MISS %:    5.64681   MPKI: 10.0733
ITLB PREFETCH  REQUESTED:          0  ISSUED:          0  USEFUL:          0  USELESS:          0
ITLB USEFUL LOAD PREFETCHES:          0 PREFETCH ISSUED TO LOWER LEVEL:          0  ACCURACY: -nan
ITLB TIMELY PREFETCHES:          0 LATE PREFETCHES: 0 DROPPED PREFETCHES: 0
ITLB PREFETCHES SAME FILL-ORIGIN LEVEL: 0 DIFFERENT FILL-ORIGIN LEVEL: 0
ITLB AVERAGE MISS LATENCY: 9.08698 cycles
ITLB RQ	ACCESS:   10584681	FORWARD:          0	MERGED:    1541349	TO_CACHE:    9043332

DTLB TOTAL     ACCESS:   10631030  HIT:   10181055  MISS:     449975  HIT %:    95.7673  MISS %:    4.23266   MPKI: 8.9995
DTLB LOAD TRANSLATION ACCESS:   10631030  HIT:   10181055  MISS:     449975  HIT %:    95.7673  MISS %:    4.23266   MPKI: 8.9995
DTLB PREFETCH  REQUESTED:          0  ISSUED:          0  USEFUL:          0  USELESS:          0
DTLB USEFUL LOAD PREFETCHES:          0 PREFETCH ISSUED TO LOWER LEVEL:          0  ACCURACY: -nan
DTLB TIMELY PREFETCHES:          0 LATE PREFETCHES: 0 DROPPED PREFETCHES: 0
DTLB PREFETCHES SAME FILL-ORIGIN LEVEL: 0 DIFFERENT FILL-ORIGIN LEVEL: 0
DTLB AVERAGE MISS LATENCY: 10.854 cycles
DTLB RQ	ACCESS:   14212456	FORWARD:          0	MERGED:    3569765	TO_CACHE:   10642691

STLB TOTAL     ACCESS:    1202755  HIT:    1193809  MISS:       8946  HIT %:    99.2562  MISS %:   0.743792   MPKI: 0.17892
STLB LOAD TRANSLATION ACCESS:     953639  HIT:     944693  MISS:       8946  HIT %:    99.0619  MISS %:   0.938091   MPKI: 0.17892
STLB TRANSLATION FROM L1D PREFETCHER ACCESS:     249116  HIT:     249116  MISS:          0  HIT %:        100  MISS %:          0   MPKI: 0
STLB PREFETCH  REQUESTED:          0  ISSUED:          0  USEFUL:          0  USELESS:          0
STLB USEFUL LOAD PREFETCHES:          0 PREFETCH ISSUED TO LOWER LEVEL:          0  ACCURACY: -nan
STLB TIMELY PREFETCHES:          0 LATE PREFETCHES: 0 DROPPED PREFETCHES: 0
STLB PREFETCHES SAME FILL-ORIGIN LEVEL: 0 DIFFERENT FILL-ORIGIN LEVEL: 0
STLB AVERAGE MISS LATENCY: 95.4641 cycles
STLB RQ	ACCESS:    1322300	FORWARD:          0	MERGED:     119545	TO_CACHE:    1202755

STLB Hit, L1D data hit: 0
STLB Hit, L2C data hit: 0
STLB Hit, LLC data hit: 0
STLB Hit, LLC data miss: 0
STLB STLB hints to L2: 0
L1D TOTAL     ACCESS:   14421792  HIT:   13484227  MISS:     937565  HIT %:     93.499  MISS %:    6.50103   MPKI: 18.7513
L1D LOAD      ACCESS:    7755318  HIT:    7123033  MISS:     632285  HIT %:    91.8471  MISS %:    8.15292   MPKI: 12.6457
L1D RFO       ACCESS:    6310396  HIT:    6194177  MISS:     116219  HIT %:    98.1583  MISS %:    1.84171   MPKI: 2.32438
L1D PREFETCH  ACCESS:     356078  HIT:     167017  MISS:     189061  HIT %:    46.9046  MISS %:    53.0954   MPKI: 3.78122
L1D PREFETCH  REQUESTED:     738250  ISSUED:     737759  USEFUL:      26312  USELESS:     162751
L1D USEFUL LOAD PREFETCHES:      26312 PREFETCH ISSUED TO LOWER LEVEL:     189515  ACCURACY: 13.8839
L1D TIMELY PREFETCHES:      26312 LATE PREFETCHES: 2789 DROPPED PREFETCHES: 0
L1D PREFETCHES SAME FILL-ORIGIN LEVEL: 189515 DIFFERENT FILL-ORIGIN LEVEL: 0
L1D AVERAGE MISS LATENCY: 26719.1 cycles
L1D RQ	ACCESS:   11118503	FORWARD:          0	MERGED:    3182127	TO_CACHE:    7787543
L1D WQ	ACCESS:    6513311	FORWARD:     149270	MERGED:      88398	TO_CACHE:    6424913
L1D PQ	ACCESS:     369098	FORWARD:          0	MERGED:          0	TO_CACHE:     368661

L1D UNIQUE REGIONS ACCESSED: 0
L1D REGIONS CONFLICTS: 0
L1D Cross Page Prefetch Requests: 0
L1D Same Page Prefetch Requests: 426285
L1D ROI Sum of L1D PQ occupancy: 6096466
L1D PREFETCHES PUSHED FROM L2C: 0
L1I TOTAL     ACCESS:    9849564  HIT:    6510057  MISS:    3339507  HIT %:    66.0949  MISS %:    33.9051   MPKI: 66.7901
L1I LOAD      ACCESS:    9849564  HIT:    6510057  MISS:    3339507  HIT %:    66.0949  MISS %:    33.9051   MPKI: 66.7901
L1I PREFETCH  REQUESTED:          0  ISSUED:          0  USEFUL:          0  USELESS:          0
L1I USEFUL LOAD PREFETCHES:          0 PREFETCH ISSUED TO LOWER LEVEL:          0  ACCURACY: -nan
L1I TIMELY PREFETCHES:          0 LATE PREFETCHES: 0 DROPPED PREFETCHES: 0
L1I PREFETCHES SAME FILL-ORIGIN LEVEL: 0 DIFFERENT FILL-ORIGIN LEVEL: 0
L1I AVERAGE MISS LATENCY: 14.8384 cycles
L1I RQ	ACCESS:   14702435	FORWARD:          0	MERGED:    4117754	TO_CACHE:   10584681

BTB TOTAL     ACCESS:    6340916  HIT:    5350576  MISS:     990340  HIT %:    84.3818  MISS %:    15.6182   MPKI: 19.8068
BTB BRANCH_DIRECT_JUMP	ACCESS:     773568  HIT:     696055  MISS:      77513
BTB BRANCH_INDIRECT	ACCESS:     108366  HIT:      73637  MISS:      34729
BTB BRANCH_CONDITIONAL	ACCESS:    2912413  HIT:    2697483  MISS:     214930
BTB BRANCH_DIRECT_CALL	ACCESS:    1062756  HIT:     948426  MISS:     114330
BTB BRANCH_INDIRECT_CALL	ACCESS:     210540  HIT:     143969  MISS:      66571
BTB BRANCH_RETURN	ACCESS:    1273273  HIT:     791006  MISS:     482267
BTB BRANCH_OTHER ACCESS:          0  HIT:          0  MISS:          0

L2C TOTAL     ACCESS:    5101402  HIT:    4769481  MISS:     331921  HIT %:    93.4935  MISS %:    6.50647   MPKI: 6.63842
L2C LOAD      ACCESS:    3971749  HIT:    3801221  MISS:     170528  HIT %:    95.7065  MISS %:    4.29352   MPKI: 3.41056
L2C DATA LOAD MPKI: 2.36638
L2C INSTRUCTION LOAD MPKI: 1.04418
L2C RFO       ACCESS:     115765  HIT:      92849  MISS:      22916  HIT %:    80.2047  MISS %:    19.7953   MPKI: 0.45832
L2C PREFETCH  ACCESS:     726184  HIT:     594100  MISS:     132084  HIT %:    81.8112  MISS %:    18.1888   MPKI: 2.64168
L2C DATA PREFETCH MPKI: 2.64168
L2C INSTRUCTION PREFETCH MPKI: 0
L2C WRITEBACK ACCESS:     278101  HIT:     275848  MISS:       2253  HIT %:    99.1899  MISS %:   0.810137   MPKI: 0.04506
L2C LOAD TRANSLATION ACCESS:       9603  HIT:       5463  MISS:       4140  HIT %:    56.8885  MISS %:    43.1115   MPKI: 0.0828
L2C PREFETCH  REQUESTED:     553250  ISSUED:     553250  USEFUL:      50862  USELESS:      81311
L2C USEFUL LOAD PREFETCHES:      50862 PREFETCH ISSUED TO LOWER LEVEL:     136139  ACCURACY: 37.3603
L2C TIMELY PREFETCHES:      50862 LATE PREFETCHES: 4054 DROPPED PREFETCHES: 0
L2C PREFETCHES SAME FILL-ORIGIN LEVEL: 96437 DIFFERENT FILL-ORIGIN LEVEL: 0
L2C AVERAGE MISS LATENCY: 141.761 cycles
L2C RQ	ACCESS:    4097162	FORWARD:          0	MERGED:          0	TO_CACHE:    4097118
L2C WQ	ACCESS:     278102	FORWARD:         45	MERGED:          0	TO_CACHE:     278102
L2C PQ	ACCESS:     742765	FORWARD:          0	MERGED:       4741	TO_CACHE:     738023

L2C Instructions Evicting Data 25672
L2C Translations Evicting Data 3888
L2C Data Evicting Data 244595
L2C Instructions Evicting Instructions 26299
L2C Translations Evicting Instructions 213
L2C Data Evicting Instructions 24875
L2C Instructions Evicting Translations 238
L2C Translations Evicting Translations 39
L2C Data Evicting Translations 3849
L2C Dense regions hint from L2: 0
PSCL5 TOTAL     ACCESS:       8946  HIT:       8946  MISS:          0  HIT %:        100  MISS %:          0   MPKI: 0
PSCL5 LOAD TRANSLATION ACCESS:       8946  HIT:       8946  MISS:          0  HIT %:        100  MISS %:          0   MPKI: 0
PSCL5 PREFETCH  REQUESTED:          0  ISSUED:          0  USEFUL:          0  USELESS:          0
PSCL5 USEFUL LOAD PREFETCHES:          0 PREFETCH ISSUED TO LOWER LEVEL:          0  ACCURACY: -nan
PSCL5 TIMELY PREFETCHES:          0 LATE PREFETCHES: 0 DROPPED PREFETCHES: 0
PSCL5 PREFETCHES SAME FILL-ORIGIN LEVEL: 0 DIFFERENT FILL-ORIGIN LEVEL: 0

PSCL4 TOTAL     ACCESS:       8530  HIT:       8494  MISS:         36  HIT %:     99.578  MISS %:    0.42204   MPKI: 0.00072
PSCL4 LOAD TRANSLATION ACCESS:       8530  HIT:       8494  MISS:         36  HIT %:     99.578  MISS %:    0.42204   MPKI: 0.00072
PSCL4 PREFETCH  REQUESTED:          0  ISSUED:          0  USEFUL:          0  USELESS:          0
PSCL4 USEFUL LOAD PREFETCHES:          0 PREFETCH ISSUED TO LOWER LEVEL:          0  ACCURACY: -nan
PSCL4 TIMELY PREFETCHES:          0 LATE PREFETCHES: 0 DROPPED PREFETCHES: 0
PSCL4 PREFETCHES SAME FILL-ORIGIN LEVEL: 0 DIFFERENT FILL-ORIGIN LEVEL: 0

PSCL3 TOTAL     ACCESS:       8698  HIT:       8662  MISS:         36  HIT %:    99.5861  MISS %:   0.413888   MPKI: 0.00072
PSCL3 LOAD TRANSLATION ACCESS:       8698  HIT:       8662  MISS:         36  HIT %:    99.5861  MISS %:   0.413888   MPKI: 0.00072
PSCL3 PREFETCH  REQUESTED:          0  ISSUED:          0  USEFUL:          0  USELESS:          0
PSCL3 USEFUL LOAD PREFETCHES:          0 PREFETCH ISSUED TO LOWER LEVEL:          0  ACCURACY: -nan
PSCL3 TIMELY PREFETCHES:          0 LATE PREFETCHES: 0 DROPPED PREFETCHES: 0
PSCL3 PREFETCHES SAME FILL-ORIGIN LEVEL: 0 DIFFERENT FILL-ORIGIN LEVEL: 0

PSCL2 TOTAL     ACCESS:       8946  HIT:       8356  MISS:        590  HIT %:    93.4049  MISS %:    6.59513   MPKI: 0.0118
PSCL2 LOAD TRANSLATION ACCESS:       8946  HIT:       8356  MISS:        590  HIT %:    93.4049  MISS %:    6.59513   MPKI: 0.0118
PSCL2 PREFETCH  REQUESTED:          0  ISSUED:          0  USEFUL:          0  USELESS:          0
PSCL2 USEFUL LOAD PREFETCHES:          0 PREFETCH ISSUED TO LOWER LEVEL:          0  ACCURACY: -nan
PSCL2 TIMELY PREFETCHES:          0 LATE PREFETCHES: 0 DROPPED PREFETCHES: 0
PSCL2 PREFETCHES SAME FILL-ORIGIN LEVEL: 0 DIFFERENT FILL-ORIGIN LEVEL: 0

LLC TOTAL     ACCESS:     431584  HIT:     175338  MISS:     256246  HIT %:    40.6266  MISS %:    59.3734   MPKI: 5.12492
LLC LOAD      ACCESS:     166986  HIT:      83212  MISS:      83774  HIT %:    49.8317  MISS %:    50.1683   MPKI: 1.67548
LLC RFO       ACCESS:      22401  HIT:      10560  MISS:      11841  HIT %:    47.1408  MISS %:    52.8592   MPKI: 0.23682
LLC PREFETCH  ACCESS:     136139  HIT:      28970  MISS:     107169  HIT %:    21.2797  MISS %:    78.7203   MPKI: 2.14338
LLC WRITEBACK ACCESS:     101918  HIT:      49582  MISS:      52336  HIT %:    48.6489  MISS %:    51.3511   MPKI: 1.04672
LLC LOAD TRANSLATION ACCESS:       4140  HIT:       3014  MISS:       1126  HIT %:    72.8019  MISS %:    27.1981   MPKI: 0.02252
LLC PREFETCH  REQUESTED:          0  ISSUED:          0  USEFUL:       5747  USELESS:     105778
LLC USEFUL LOAD PREFETCHES:       5747 PREFETCH ISSUED TO LOWER LEVEL:     107169  ACCURACY: 5.36256
LLC TIMELY PREFETCHES:       5747 LATE PREFETCHES: 0 DROPPED PREFETCHES: 0
LLC PREFETCHES SAME FILL-ORIGIN LEVEL: 0 DIFFERENT FILL-ORIGIN LEVEL: 0
LLC AVERAGE MISS LATENCY: 145.569 cycles
LLC RQ	ACCESS:     193530	FORWARD:          0	MERGED:          0	TO_CACHE:     193527
LLC WQ	ACCESS:     101919	FORWARD:          3	MERGED:          0	TO_CACHE:     101919
LLC PQ	ACCESS:     136139	FORWARD:          0	MERGED:          0	TO_CACHE:     136139

LLC Dense regions hint to LLC: 0

RAW hits: 962386
Loads Generated: 12080891
Loads sent to L1D: 11118503
Stores Generated: 6513315
Stores sent to L1D: 6513311
Major fault: 0 Minor fault: 5429
Allocated PAGES: 5429

stream: 
stream:times selected: 450199
stream:pref_filled: 122453
stream:pref_useful: 15566
stream:pref_late: 1031
stream:misses: 11779
stream:misses_by_poll: 0

CS: 
CS:times selected: 20185
CS:pref_filled: 9378
CS:pref_useful: 3685
CS:pref_late: 1315
CS:misses: 494
CS:misses_by_poll: 27

CPLX: 
CPLX:times selected: 437750
CPLX:pref_filled: 82381
CPLX:pref_useful: 9069
CPLX:pref_late: 675
CPLX:misses: 54392
CPLX:misses_by_poll: 19

NL_L1: 
NL:times selected: 2152
NL:pref_filled: 1681
NL:pref_useful: 11
NL:pref_late: 0
NL:misses: 275
NL:misses_by_poll: 0

total selections: 910286
total_filled: 189061
total_useful: 26312
total_late: 3027
total_polluted: 46
total_misses_after_warmup: 664510
conflicts: 3237609
Degree Incremented Times: 0
Degree Decremented Times: 254001

L1 IP Table Write Accesses: 4323289
L1 IP Table Read Accesses: 1085680
L1 RST Write Accesses: 393093
L1 RST Read Accesses: 786186
L1 CSPT Write Accesses: 393093
L1 CSPT Read Accesses: 776673
L1 RR Filter Tag Write Accesses: 369589
L1 RR Filter Tag Read Accesses: 17599457
L1 IP Table Tag Write Accesses: 7787543
L1 IP Table Tag Read Accesses: 7787543
L1 RST Tag Write Accesses: 0
L1 RST Tag Read Accesses: 3967334
L1 RR Filter Write Accesses: 0
L1 RR Filter Read Accesses: 613552
test: 203406
L2 IP Table Read Accesses: 1074379
L2 IP Table Write Accesses: 1462972
L2 IP Table Tag Read Accesses: 816140
L2 IP Table Tag Write Accesses: 816140

DRAM Statistics
 CHANNEL 0
 RQ ROW_BUFFER_HIT:      47152  ROW_BUFFER_MISS:     156754
 DBUS_CONGESTED:        181
 WQ ROW_BUFFER_HIT:      16496  ROW_BUFFER_MISS:      63619  FULL:          0

 AVG_CONGESTED_CYCLE: 4
 All warmup complete: 2
Channel 0 Bank busy for read cycles: 0
Channel 0 Bank busy for write cycles: 0
Channel 0
Rank 0
0banks busy for read cycles: 85977183
0banks busy for write cycles: 23248
1banks busy for read cycles: 6537201
1banks busy for write cycles: 3226452
2banks busy for read cycles: 4228602
2banks busy for write cycles: 1409005
3banks busy for read cycles: 1370937
3banks busy for write cycles: 773491
4banks busy for read cycles: 617267
4banks busy for write cycles: 473538
5banks busy for read cycles: 320696
5banks busy for write cycles: 272931
6banks busy for read cycles: 178846
6banks busy for write cycles: 198416
7banks busy for read cycles: 140362
7banks busy for write cycles: 237673
8banks busy for read cycles: 101092
8banks busy for write cycles: 300798

CPU 0 Branch Prediction Accuracy: 93.023% MPKI: 13.5823 Average ROB Occupancy at Mispredict: 21.3641
Branch types
NOT_BRANCH: 40266107 80.5322%
BRANCH_DIRECT_JUMP: 773568 1.54714%
BRANCH_INDIRECT: 108366 0.216732%
BRANCH_CONDITIONAL: 6305104 12.6102%
BRANCH_DIRECT_CALL: 1062756 2.12551%
BRANCH_INDIRECT_CALL: 210540 0.42108%
BRANCH_RETURN: 1273273 2.54655%
BRANCH_OTHER: 0 0%

@sumon_overall_L1D     26312      2789      2789    162751    189061    737759    738250
@Sumon_Early_by_class_L1D     13145      3573      7945         0
@Sumon_Late_by_class_L1D       877      1301       454         0

@Sumon_Early_by_cycle_L1D      6671      5464      4205      1979      2482      2354       912       634       174       877       457       103
@Sumon_Late_by_cycle_L1D       599      1030       129       278       547        50
@Sumon_Early_stream_L1D      3705      3930      3175       517        63       126       466        95        69       611       327        61
@Sumon_Early_CS_L1D       864       549       460       526       426       613        64        47        14        10         0         0
@Sumon_Early_CPLX_L1D      2060       576       276       159      1990      1612       268       491        91       255       129        38
@Sumon_Late_stream_L1D       457       275        35        17        67        26
@Sumon_Late_CS_L1D        68       417        77       249       469        21
@Sumon_Late_CPLX_L1D        74       338        16        12        11         3
@sumon_overall_L2C     50862      4054         0     81311    132084    553250    553250
@Sumon_Early_by_class_L2C      1146        35      1076         0
@Sumon_Late_by_class_L2C         0         0         0         0

@Sumon_Early_by_cycle_L2C      6212      4760      5172      2918      2291      5989      2001       256      1450      5248     10635      3930
@Sumon_Late_by_cycle_L2C       843       178       160       802      2071         0
@Sumon_Early_stream_L2C         0         0         0         0         0         0         0         0         2         8       681       455
@Sumon_Early_CS_L2C         0         0         0         0         0         0         0         0         0         6        15        14
@Sumon_Early_CPLX_L2C         0         0         0         0         0         0         0         1         0        19       205       851
@Sumon_Late_stream_L2C         0         0         0         0         0         0
@Sumon_Late_CS_L2C         0         0         0         0         0         0
@Sumon_Late_CPLX_L2C         0         0         0         0         0         0
DRAM PAGES: 1048576
Allocated PAGES: 5429
