
*** ChampSim Multicore Out-of-Order Simulator ***

Warmup Instructions: 10000000
Simulation Instructions: 50000000
Number of CPUs: 1
LLC sets: 2048
LLC ways: 16
Off-chip DRAM Size: 4096 MB Channels: 1 Width: 64-bit Data Rate: 6400 MT/s
CPU 0 runs traces/clientserver/server_010.champsimtrace.xz
.xz
CPU 0 Bimodal branch predictor
BTB has LRU replacement policy
ITLB has LRU replacement policy
DTLB has LRU replacement policy
STLB has LRU replacement policy
L1I has LRU replacement policy
IP Table Entries: 256
L1D has LRU replacement policy
IP_Table L2 entries: 256
L2C has LRU replacement policy
Initialize SRRIP state
Heartbeat CPU 0 instructions: 10000001 cycles: 2774511 heartbeat IPC: 3.60424 cumulative IPC: 3.60424 (Simulation time: 0 hr 17 min 4 sec) 

Warmup complete CPU 0 instructions: 10000001 cycles: 2774511 (Simulation time: 0 hr 17 min 4 sec) 

Heartbeat CPU 0 instructions: 20000002 cycles: 23757189 heartbeat IPC: 0.476584 cumulative IPC: 0.476584 (Simulation time: 0 hr 34 min 45 sec) 
Heartbeat CPU 0 instructions: 30000001 cycles: 44313849 heartbeat IPC: 0.48646 cumulative IPC: 0.481471 (Simulation time: 0 hr 52 min 29 sec) 
Heartbeat CPU 0 instructions: 40000000 cycles: 64795118 heartbeat IPC: 0.488251 cumulative IPC: 0.48371 (Simulation time: 1 hr 10 min 16 sec) 
Heartbeat CPU 0 instructions: 50000000 cycles: 85474586 heartbeat IPC: 0.483571 cumulative IPC: 0.483675 (Simulation time: 1 hr 28 min 6 sec) 
Heartbeat CPU 0 instructions: 60000001 cycles: 105648966 heartbeat IPC: 0.495678 cumulative IPC: 0.486029 (Simulation time: 1 hr 44 min 42 sec) 
Finished CPU 0 instructions: 50000000 cycles: 102874455 cumulative IPC: 0.486029 (Simulation time: 1 hr 44 min 42 sec) 

ChampSim completed all CPUs

Region of Interest Statistics

CPU 0 cumulative IPC: 0.486029 instructions: 50000000 cycles: 102874455
ITLB TOTAL     ACCESS:    7875757  HIT:    7677808  MISS:     197949  HIT %:    97.4866  MISS %:     2.5134   MPKI: 3.95898
ITLB LOAD TRANSLATION ACCESS:    7875757  HIT:    7677808  MISS:     197949  HIT %:    97.4866  MISS %:     2.5134   MPKI: 3.95898
ITLB PREFETCH  REQUESTED:          0  ISSUED:          0  USEFUL:          0  USELESS:          0
ITLB USEFUL LOAD PREFETCHES:          0 PREFETCH ISSUED TO LOWER LEVEL:          0  ACCURACY: -nan
ITLB TIMELY PREFETCHES:          0 LATE PREFETCHES: 0 DROPPED PREFETCHES: 0
ITLB PREFETCHES SAME FILL-ORIGIN LEVEL: 0 DIFFERENT FILL-ORIGIN LEVEL: 0
ITLB AVERAGE MISS LATENCY: 17.2118 cycles
ITLB RQ	ACCESS:    9688648	FORWARD:          0	MERGED:    1761617	TO_CACHE:    7927031

DTLB TOTAL     ACCESS:   10028201  HIT:    9384041  MISS:     644160  HIT %:    93.5765  MISS %:    6.42349   MPKI: 12.8832
DTLB LOAD TRANSLATION ACCESS:   10028201  HIT:    9384041  MISS:     644160  HIT %:    93.5765  MISS %:    6.42349   MPKI: 12.8832
DTLB PREFETCH  REQUESTED:          0  ISSUED:          0  USEFUL:          0  USELESS:          0
DTLB USEFUL LOAD PREFETCHES:          0 PREFETCH ISSUED TO LOWER LEVEL:          0  ACCURACY: -nan
DTLB TIMELY PREFETCHES:          0 LATE PREFETCHES: 0 DROPPED PREFETCHES: 0
DTLB PREFETCHES SAME FILL-ORIGIN LEVEL: 0 DIFFERENT FILL-ORIGIN LEVEL: 0
DTLB AVERAGE MISS LATENCY: 14.9749 cycles
DTLB RQ	ACCESS:   12384491	FORWARD:          0	MERGED:    2319356	TO_CACHE:   10065135

STLB TOTAL     ACCESS:    1030996  HIT:     910435  MISS:     120561  HIT %:    88.3064  MISS %:    11.6936   MPKI: 2.41122
STLB LOAD TRANSLATION ACCESS:     842109  HIT:     721548  MISS:     120561  HIT %:    85.6834  MISS %:    14.3166   MPKI: 2.41122
STLB TRANSLATION FROM L1D PREFETCHER ACCESS:     188887  HIT:     188887  MISS:          0  HIT %:        100  MISS %:          0   MPKI: 0
STLB PREFETCH  REQUESTED:          0  ISSUED:          0  USEFUL:          0  USELESS:          0
STLB USEFUL LOAD PREFETCHES:          0 PREFETCH ISSUED TO LOWER LEVEL:          0  ACCURACY: -nan
STLB TIMELY PREFETCHES:          0 LATE PREFETCHES: 0 DROPPED PREFETCHES: 0
STLB PREFETCHES SAME FILL-ORIGIN LEVEL: 0 DIFFERENT FILL-ORIGIN LEVEL: 0
STLB AVERAGE MISS LATENCY: 45.289 cycles
STLB RQ	ACCESS:    1080774	FORWARD:          0	MERGED:      49778	TO_CACHE:    1030996

STLB Hit, L1D data hit: 0
STLB Hit, L2C data hit: 0
STLB Hit, LLC data hit: 0
STLB Hit, LLC data miss: 0
STLB STLB hints to L2: 0
L1D TOTAL     ACCESS:   12472613  HIT:   11740718  MISS:     731895  HIT %:     94.132  MISS %:    5.86802   MPKI: 14.6379
L1D LOAD      ACCESS:    7228286  HIT:    6693733  MISS:     534553  HIT %:    92.6047  MISS %:    7.39529   MPKI: 10.6911
L1D RFO       ACCESS:    5014552  HIT:    4921817  MISS:      92735  HIT %:    98.1507  MISS %:    1.84932   MPKI: 1.8547
L1D PREFETCH  ACCESS:     229775  HIT:     125168  MISS:     104607  HIT %:    54.4742  MISS %:    45.5258   MPKI: 2.09214
L1D PREFETCH  REQUESTED:     477504  ISSUED:     477466  USEFUL:      31441  USELESS:      73129
L1D USEFUL LOAD PREFETCHES:      31441 PREFETCH ISSUED TO LOWER LEVEL:     104788  ACCURACY: 30.0044
L1D TIMELY PREFETCHES:      31441 LATE PREFETCHES: 7486 DROPPED PREFETCHES: 0
L1D PREFETCHES SAME FILL-ORIGIN LEVEL: 104788 DIFFERENT FILL-ORIGIN LEVEL: 0
L1D AVERAGE MISS LATENCY: 13258.9 cycles
L1D RQ	ACCESS:   10648633	FORWARD:          0	MERGED:    3307943	TO_CACHE:    7262467
L1D WQ	ACCESS:    5204839	FORWARD:      78359	MERGED:      82815	TO_CACHE:    5122024
L1D PQ	ACCESS:     238801	FORWARD:          0	MERGED:          0	TO_CACHE:     238665

L1D UNIQUE REGIONS ACCESSED: 0
L1D REGIONS CONFLICTS: 0
L1D Cross Page Prefetch Requests: 0
L1D Same Page Prefetch Requests: 285446
L1D ROI Sum of L1D PQ occupancy: 3098662
L1D PREFETCHES PUSHED FROM L2C: 0
L1I TOTAL     ACCESS:    9264377  HIT:    7961080  MISS:    1303297  HIT %:    85.9322  MISS %:    14.0678   MPKI: 26.0659
L1I LOAD      ACCESS:    9264377  HIT:    7961080  MISS:    1303297  HIT %:    85.9322  MISS %:    14.0678   MPKI: 26.0659
L1I PREFETCH  REQUESTED:          0  ISSUED:          0  USEFUL:          0  USELESS:          0
L1I USEFUL LOAD PREFETCHES:          0 PREFETCH ISSUED TO LOWER LEVEL:          0  ACCURACY: -nan
L1I TIMELY PREFETCHES:          0 LATE PREFETCHES: 0 DROPPED PREFETCHES: 0
L1I PREFETCHES SAME FILL-ORIGIN LEVEL: 0 DIFFERENT FILL-ORIGIN LEVEL: 0
L1I AVERAGE MISS LATENCY: 30.1759 cycles
L1I RQ	ACCESS:   13841987	FORWARD:          0	MERGED:    4153339	TO_CACHE:    9688648

BTB TOTAL     ACCESS:    4464598  HIT:    3665549  MISS:     799049  HIT %:    82.1026  MISS %:    17.8974   MPKI: 15.981
BTB BRANCH_DIRECT_JUMP	ACCESS:     455305  HIT:     390833  MISS:      64472
BTB BRANCH_INDIRECT	ACCESS:     153269  HIT:     119707  MISS:      33562
BTB BRANCH_CONDITIONAL	ACCESS:    2152760  HIT:    1888424  MISS:     264336
BTB BRANCH_DIRECT_CALL	ACCESS:     666811  HIT:     545280  MISS:     121531
BTB BRANCH_INDIRECT_CALL	ACCESS:     167985  HIT:     155714  MISS:      12271
BTB BRANCH_RETURN	ACCESS:     868468  HIT:     565591  MISS:     302877
BTB BRANCH_OTHER ACCESS:          0  HIT:          0  MISS:          0

L2C TOTAL     ACCESS:    2881233  HIT:    1521990  MISS:    1359243  HIT %:    52.8243  MISS %:    47.1757   MPKI: 27.1849
L2C LOAD      ACCESS:    1837834  HIT:     901263  MISS:     936571  HIT %:    49.0394  MISS %:    50.9606   MPKI: 18.7314
L2C DATA LOAD MPKI: 5.174
L2C INSTRUCTION LOAD MPKI: 13.5574
L2C RFO       ACCESS:      92554  HIT:      38005  MISS:      54549  HIT %:    41.0625  MISS %:    58.9375   MPKI: 1.09098
L2C PREFETCH  ACCESS:     534122  HIT:     238336  MISS:     295786  HIT %:     44.622  MISS %:     55.378   MPKI: 5.91572
L2C DATA PREFETCH MPKI: 5.91572
L2C INSTRUCTION PREFETCH MPKI: 0
L2C WRITEBACK ACCESS:     263853  HIT:     260427  MISS:       3426  HIT %:    98.7015  MISS %:    1.29845   MPKI: 0.06852
L2C LOAD TRANSLATION ACCESS:     152870  HIT:      83959  MISS:      68911  HIT %:    54.9218  MISS %:    45.0782   MPKI: 1.37822
L2C PREFETCH  REQUESTED:     458125  ISSUED:     458125  USEFUL:      76595  USELESS:     219307
L2C USEFUL LOAD PREFETCHES:      76595 PREFETCH ISSUED TO LOWER LEVEL:     302616  ACCURACY: 25.311
L2C TIMELY PREFETCHES:      76595 LATE PREFETCHES: 6830 DROPPED PREFETCHES: 0
L2C PREFETCHES SAME FILL-ORIGIN LEVEL: 229216 DIFFERENT FILL-ORIGIN LEVEL: 0
L2C AVERAGE MISS LATENCY: 42.1064 cycles
L2C RQ	ACCESS:    2083274	FORWARD:          0	MERGED:          0	TO_CACHE:    2083258
L2C WQ	ACCESS:     263853	FORWARD:         16	MERGED:          0	TO_CACHE:     263853
L2C PQ	ACCESS:     562913	FORWARD:          0	MERGED:       4943	TO_CACHE:     557970

L2C Instructions Evicting Data 309103
L2C Translations Evicting Data 31534
L2C Data Evicting Data 270826
L2C Instructions Evicting Instructions 335645
L2C Translations Evicting Instructions 33974
L2C Data Evicting Instructions 305923
L2C Instructions Evicting Translations 33123
L2C Translations Evicting Translations 3403
L2C Data Evicting Translations 32286
L2C Dense regions hint from L2: 0
PSCL5 TOTAL     ACCESS:     120561  HIT:     120561  MISS:          0  HIT %:        100  MISS %:          0   MPKI: 0
PSCL5 LOAD TRANSLATION ACCESS:     120561  HIT:     120561  MISS:          0  HIT %:        100  MISS %:          0   MPKI: 0
PSCL5 PREFETCH  REQUESTED:          0  ISSUED:          0  USEFUL:          0  USELESS:          0
PSCL5 USEFUL LOAD PREFETCHES:          0 PREFETCH ISSUED TO LOWER LEVEL:          0  ACCURACY: -nan
PSCL5 TIMELY PREFETCHES:          0 LATE PREFETCHES: 0 DROPPED PREFETCHES: 0
PSCL5 PREFETCHES SAME FILL-ORIGIN LEVEL: 0 DIFFERENT FILL-ORIGIN LEVEL: 0

PSCL4 TOTAL     ACCESS:     113043  HIT:     112699  MISS:        344  HIT %:    99.6957  MISS %:   0.304309   MPKI: 0.00688
PSCL4 LOAD TRANSLATION ACCESS:     113043  HIT:     112699  MISS:        344  HIT %:    99.6957  MISS %:   0.304309   MPKI: 0.00688
PSCL4 PREFETCH  REQUESTED:          0  ISSUED:          0  USEFUL:          0  USELESS:          0
PSCL4 USEFUL LOAD PREFETCHES:          0 PREFETCH ISSUED TO LOWER LEVEL:          0  ACCURACY: -nan
PSCL4 TIMELY PREFETCHES:          0 LATE PREFETCHES: 0 DROPPED PREFETCHES: 0
PSCL4 PREFETCHES SAME FILL-ORIGIN LEVEL: 0 DIFFERENT FILL-ORIGIN LEVEL: 0

PSCL3 TOTAL     ACCESS:     119635  HIT:     118636  MISS:        999  HIT %:     99.165  MISS %:    0.83504   MPKI: 0.01998
PSCL3 LOAD TRANSLATION ACCESS:     119635  HIT:     118636  MISS:        999  HIT %:     99.165  MISS %:    0.83504   MPKI: 0.01998
PSCL3 PREFETCH  REQUESTED:          0  ISSUED:          0  USEFUL:          0  USELESS:          0
PSCL3 USEFUL LOAD PREFETCHES:          0 PREFETCH ISSUED TO LOWER LEVEL:          0  ACCURACY: -nan
PSCL3 TIMELY PREFETCHES:          0 LATE PREFETCHES: 0 DROPPED PREFETCHES: 0
PSCL3 PREFETCHES SAME FILL-ORIGIN LEVEL: 0 DIFFERENT FILL-ORIGIN LEVEL: 0

PSCL2 TOTAL     ACCESS:     120561  HIT:      89531  MISS:      31030  HIT %:     74.262  MISS %:     25.738   MPKI: 0.6206
PSCL2 LOAD TRANSLATION ACCESS:     120561  HIT:      89531  MISS:      31030  HIT %:     74.262  MISS %:     25.738   MPKI: 0.6206
PSCL2 PREFETCH  REQUESTED:          0  ISSUED:          0  USEFUL:          0  USELESS:          0
PSCL2 USEFUL LOAD PREFETCHES:          0 PREFETCH ISSUED TO LOWER LEVEL:          0  ACCURACY: -nan
PSCL2 TIMELY PREFETCHES:          0 LATE PREFETCHES: 0 DROPPED PREFETCHES: 0
PSCL2 PREFETCHES SAME FILL-ORIGIN LEVEL: 0 DIFFERENT FILL-ORIGIN LEVEL: 0

LLC TOTAL     ACCESS:    1531702  HIT:    1415148  MISS:     116554  HIT %:    92.3906  MISS %:    7.60944   MPKI: 2.33108
LLC LOAD      ACCESS:     929933  HIT:     910644  MISS:      19289  HIT %:    97.9258  MISS %:    2.07424   MPKI: 0.38578
LLC RFO       ACCESS:      54357  HIT:      45751  MISS:       8606  HIT %:    84.1676  MISS %:    15.8324   MPKI: 0.17212
LLC PREFETCH  ACCESS:     302603  HIT:     221547  MISS:      81056  HIT %:    73.2137  MISS %:    26.7863   MPKI: 1.62112
LLC WRITEBACK ACCESS:     175898  HIT:     169348  MISS:       6550  HIT %:    96.2763  MISS %:    3.72375   MPKI: 0.131
LLC LOAD TRANSLATION ACCESS:      68911  HIT:      67858  MISS:       1053  HIT %:    98.4719  MISS %:    1.52806   MPKI: 0.02106
LLC PREFETCH  REQUESTED:          0  ISSUED:          0  USEFUL:       3272  USELESS:      78411
LLC USEFUL LOAD PREFETCHES:       3272 PREFETCH ISSUED TO LOWER LEVEL:      81056  ACCURACY: 4.03672
LLC TIMELY PREFETCHES:       3272 LATE PREFETCHES: 0 DROPPED PREFETCHES: 0
LLC PREFETCHES SAME FILL-ORIGIN LEVEL: 0 DIFFERENT FILL-ORIGIN LEVEL: 0
LLC AVERAGE MISS LATENCY: 144.895 cycles
LLC RQ	ACCESS:    1053201	FORWARD:          0	MERGED:          0	TO_CACHE:    1053201
LLC WQ	ACCESS:     175898	FORWARD:         13	MERGED:          0	TO_CACHE:     175898
LLC PQ	ACCESS:     302616	FORWARD:          0	MERGED:          0	TO_CACHE:     302603

LLC Dense regions hint to LLC: 0

RAW hits: 785621
Loads Generated: 11434250
Loads sent to L1D: 10648633
Stores Generated: 5204832
Stores sent to L1D: 5204839
Major fault: 0 Minor fault: 4923
Allocated PAGES: 4923

stream: 
stream:times selected: 428244
stream:pref_filled: 73763
stream:pref_useful: 21448
stream:pref_late: 3462
stream:misses: 6083
stream:misses_by_poll: 0

CS: 
CS:times selected: 27147
CS:pref_filled: 15999
CS:pref_useful: 10199
CS:pref_late: 2775
CS:misses: 4773
CS:misses_by_poll: 0

CPLX: 
CPLX:times selected: 397770
CPLX:pref_filled: 29248
CPLX:pref_useful: 4095
CPLX:pref_late: 465
CPLX:misses: 32931
CPLX:misses_by_poll: 3

NL_L1: 
NL:times selected: 3129
NL:pref_filled: 1160
NL:pref_useful: 197
NL:pref_late: 15
NL:misses: 355
NL:misses_by_poll: 0

total selections: 856290
total_filled: 104607
total_useful: 31441
total_late: 6970
total_polluted: 3
total_misses_after_warmup: 568737
conflicts: 2441079
Degree Incremented Times: 0
Degree Decremented Times: 85458

L1 IP Table Write Accesses: 4297857
L1 IP Table Read Accesses: 1856778
L1 RST Write Accesses: 362235
L1 RST Read Accesses: 724470
L1 CSPT Write Accesses: 362235
L1 CSPT Read Accesses: 699674
L1 RR Filter Tag Write Accesses: 238839
L1 RR Filter Tag Read Accesses: 14818116
L1 IP Table Tag Write Accesses: 7262470
L1 IP Table Tag Read Accesses: 7262470
L1 RST Tag Write Accesses: 0
L1 RST Tag Read Accesses: 3576122
L1 RR Filter Write Accesses: 0
L1 RR Filter Read Accesses: 536845
test: 112029
L2 IP Table Read Accesses: 800614
L2 IP Table Write Accesses: 1126768
L2 IP Table Tag Read Accesses: 633814
L2 IP Table Tag Write Accesses: 633814

DRAM Statistics
 CHANNEL 0
 RQ ROW_BUFFER_HIT:      20734  ROW_BUFFER_MISS:      89270
 DBUS_CONGESTED:         59
 WQ ROW_BUFFER_HIT:       5176  ROW_BUFFER_MISS:      46818  FULL:          0

 AVG_CONGESTED_CYCLE: 4
 All warmup complete: 2
Channel 0 Bank busy for read cycles: 0
Channel 0 Bank busy for write cycles: 0
Channel 0
Rank 0
0banks busy for read cycles: 85340932
0banks busy for write cycles: 33854
1banks busy for read cycles: 9068382
1banks busy for write cycles: 4593480
2banks busy for read cycles: 1828203
2banks busy for write cycles: 991619
3banks busy for read cycles: 343729
3banks busy for write cycles: 268866
4banks busy for read cycles: 96272
4banks busy for write cycles: 102957
5banks busy for read cycles: 24831
5banks busy for write cycles: 59118
6banks busy for read cycles: 11797
6banks busy for write cycles: 40068
7banks busy for read cycles: 5973
7banks busy for write cycles: 32273
8banks busy for read cycles: 6214
8banks busy for write cycles: 25888

CPU 0 Branch Prediction Accuracy: 93.0092% MPKI: 12.962 Average ROB Occupancy at Mispredict: 21.1736
Branch types
NOT_BRANCH: 40728892 81.4578%
BRANCH_DIRECT_JUMP: 455305 0.91061%
BRANCH_INDIRECT: 153269 0.306538%
BRANCH_CONDITIONAL: 6958895 13.9178%
BRANCH_DIRECT_CALL: 666811 1.33362%
BRANCH_INDIRECT_CALL: 167985 0.33597%
BRANCH_RETURN: 868468 1.73694%
BRANCH_OTHER: 0 0%

@sumon_overall_L1D     31441      7486      7486     73129    104607    477466    477504
@Sumon_Early_by_class_L1D     17869      7908      3414        13
@Sumon_Late_by_class_L1D      3249      2592       362        13

@Sumon_Early_by_cycle_L1D      8082      2818      4990      2116      2033      3902      1368      1502      2245      1657       618       110
@Sumon_Late_by_cycle_L1D      2413      1574      1715       240       493         0
@Sumon_Early_stream_L1D      3673      1856      1733      1511      1356      2418      1007      1179      1526      1174       354        82
@Sumon_Early_CS_L1D      3468       357      2502       121       255       786       137       105        65        27        83         2
@Sumon_Early_CPLX_L1D       427       298       470       214       171       477       188       199       472       370       112        16
@Sumon_Late_stream_L1D       539      1068      1194       158       290         0
@Sumon_Late_CS_L1D      1678       346       376        33       159         0
@Sumon_Late_CPLX_L1D       134        89       109        15        15         0
@sumon_overall_L2C     76595      6830         0    219307    295786    458125    458125
@Sumon_Early_by_class_L2C      1406       550       588         0
@Sumon_Late_by_class_L2C         0         0         0         0

@Sumon_Early_by_cycle_L2C     13340      8936      9467      5912      4298     10753      5204      3677      2627      2560      1886      7935
@Sumon_Late_by_cycle_L2C      1540      1284      1109      1230      1667         0
@Sumon_Early_stream_L2C         0         0         0         0         0         0         0         0         1        16        90      1299
@Sumon_Early_CS_L2C         0         0         0         0         0         0         0         0         0         3        41       506
@Sumon_Early_CPLX_L2C         0         0         0         0         0         0         0         0         0        12        57       519
@Sumon_Late_stream_L2C         0         0         0         0         0         0
@Sumon_Late_CS_L2C         0         0         0         0         0         0
@Sumon_Late_CPLX_L2C         0         0         0         0         0         0
DRAM PAGES: 1048576
Allocated PAGES: 4923
