
*** ChampSim Multicore Out-of-Order Simulator ***

Warmup Instructions: 10000000
Simulation Instructions: 50000000
Number of CPUs: 1
LLC sets: 2048
LLC ways: 16
Off-chip DRAM Size: 4096 MB Channels: 1 Width: 64-bit Data Rate: 6400 MT/s
CPU 0 runs traces/clientserver/server_011.champsimtrace.xz
.xz
CPU 0 Bimodal branch predictor
BTB has LRU replacement policy
ITLB has LRU replacement policy
DTLB has LRU replacement policy
STLB has LRU replacement policy
L1I has LRU replacement policy
IP Table Entries: 256
L1D has LRU replacement policy
IP_Table L2 entries: 256
L2C has LRU replacement policy
Initialize SRRIP state
Heartbeat CPU 0 instructions: 10000002 cycles: 2774343 heartbeat IPC: 3.60446 cumulative IPC: 3.60446 (Simulation time: 0 hr 17 min 0 sec) 

Warmup complete CPU 0 instructions: 10000002 cycles: 2774343 (Simulation time: 0 hr 17 min 0 sec) 

Heartbeat CPU 0 instructions: 20000002 cycles: 23774676 heartbeat IPC: 0.476183 cumulative IPC: 0.476183 (Simulation time: 0 hr 34 min 37 sec) 
Heartbeat CPU 0 instructions: 30000000 cycles: 46250898 heartbeat IPC: 0.444915 cumulative IPC: 0.460018 (Simulation time: 0 hr 52 min 31 sec) 
Heartbeat CPU 0 instructions: 40000000 cycles: 67171421 heartbeat IPC: 0.478 cumulative IPC: 0.46586 (Simulation time: 1 hr 10 min 10 sec) 
Heartbeat CPU 0 instructions: 50000000 cycles: 87944096 heartbeat IPC: 0.481402 cumulative IPC: 0.46965 (Simulation time: 1 hr 28 min 0 sec) 
Heartbeat CPU 0 instructions: 60000002 cycles: 108604572 heartbeat IPC: 0.484016 cumulative IPC: 0.472455 (Simulation time: 1 hr 44 min 39 sec) 
Finished CPU 0 instructions: 50000000 cycles: 105830229 cumulative IPC: 0.472455 (Simulation time: 1 hr 44 min 39 sec) 

ChampSim completed all CPUs

Region of Interest Statistics

CPU 0 cumulative IPC: 0.472455 instructions: 50000000 cycles: 105830229
ITLB TOTAL     ACCESS:    7963695  HIT:    7766048  MISS:     197647  HIT %:    97.5181  MISS %:    2.48185   MPKI: 3.95294
ITLB LOAD TRANSLATION ACCESS:    7963695  HIT:    7766048  MISS:     197647  HIT %:    97.5181  MISS %:    2.48185   MPKI: 3.95294
ITLB PREFETCH  REQUESTED:          0  ISSUED:          0  USEFUL:          0  USELESS:          0
ITLB USEFUL LOAD PREFETCHES:          0 PREFETCH ISSUED TO LOWER LEVEL:          0  ACCURACY: -nan
ITLB TIMELY PREFETCHES:          0 LATE PREFETCHES: 0 DROPPED PREFETCHES: 0
ITLB PREFETCHES SAME FILL-ORIGIN LEVEL: 0 DIFFERENT FILL-ORIGIN LEVEL: 0
ITLB AVERAGE MISS LATENCY: 17.8874 cycles
ITLB RQ	ACCESS:    9706658	FORWARD:          0	MERGED:    1691143	TO_CACHE:    8015515

DTLB TOTAL     ACCESS:   10113313  HIT:    9467474  MISS:     645839  HIT %:     93.614  MISS %:    6.38603   MPKI: 12.9168
DTLB LOAD TRANSLATION ACCESS:   10113313  HIT:    9467474  MISS:     645839  HIT %:     93.614  MISS %:    6.38603   MPKI: 12.9168
DTLB PREFETCH  REQUESTED:          0  ISSUED:          0  USEFUL:          0  USELESS:          0
DTLB USEFUL LOAD PREFETCHES:          0 PREFETCH ISSUED TO LOWER LEVEL:          0  ACCURACY: -nan
DTLB TIMELY PREFETCHES:          0 LATE PREFETCHES: 0 DROPPED PREFETCHES: 0
DTLB PREFETCHES SAME FILL-ORIGIN LEVEL: 0 DIFFERENT FILL-ORIGIN LEVEL: 0
DTLB AVERAGE MISS LATENCY: 15.343 cycles
DTLB RQ	ACCESS:   12501144	FORWARD:          0	MERGED:    2350305	TO_CACHE:   10150839

STLB TOTAL     ACCESS:    1046096  HIT:     923603  MISS:     122493  HIT %:    88.2905  MISS %:    11.7095   MPKI: 2.44986
STLB LOAD TRANSLATION ACCESS:     843486  HIT:     720993  MISS:     122493  HIT %:    85.4778  MISS %:    14.5222   MPKI: 2.44986
STLB TRANSLATION FROM L1D PREFETCHER ACCESS:     202610  HIT:     202610  MISS:          0  HIT %:        100  MISS %:          0   MPKI: 0
STLB PREFETCH  REQUESTED:          0  ISSUED:          0  USEFUL:          0  USELESS:          0
STLB USEFUL LOAD PREFETCHES:          0 PREFETCH ISSUED TO LOWER LEVEL:          0  ACCURACY: -nan
STLB TIMELY PREFETCHES:          0 LATE PREFETCHES: 0 DROPPED PREFETCHES: 0
STLB PREFETCHES SAME FILL-ORIGIN LEVEL: 0 DIFFERENT FILL-ORIGIN LEVEL: 0
STLB AVERAGE MISS LATENCY: 47.6468 cycles
STLB RQ	ACCESS:    1099656	FORWARD:          0	MERGED:      53560	TO_CACHE:    1046096

STLB Hit, L1D data hit: 0
STLB Hit, L2C data hit: 0
STLB Hit, LLC data hit: 0
STLB Hit, LLC data miss: 0
STLB STLB hints to L2: 0
L1D TOTAL     ACCESS:   12611485  HIT:   11869012  MISS:     742473  HIT %:    94.1127  MISS %:    5.88728   MPKI: 14.8495
L1D LOAD      ACCESS:    7363270  HIT:    6821611  MISS:     541659  HIT %:    92.6438  MISS %:    7.35623   MPKI: 10.8332
L1D RFO       ACCESS:    5001233  HIT:    4910036  MISS:      91197  HIT %:    98.1765  MISS %:    1.82349   MPKI: 1.82394
L1D PREFETCH  ACCESS:     246982  HIT:     137365  MISS:     109617  HIT %:    55.6174  MISS %:    44.3826   MPKI: 2.19234
L1D PREFETCH  REQUESTED:     512650  ISSUED:     512471  USEFUL:      33863  USELESS:      75705
L1D USEFUL LOAD PREFETCHES:      33863 PREFETCH ISSUED TO LOWER LEVEL:     109862  ACCURACY: 30.8232
L1D TIMELY PREFETCHES:      33863 LATE PREFETCHES: 8211 DROPPED PREFETCHES: 0
L1D PREFETCHES SAME FILL-ORIGIN LEVEL: 109862 DIFFERENT FILL-ORIGIN LEVEL: 0
L1D AVERAGE MISS LATENCY: 17856.7 cycles
L1D RQ	ACCESS:   10826112	FORWARD:          0	MERGED:    3347185	TO_CACHE:    7398908
L1D WQ	ACCESS:    5183119	FORWARD:      80150	MERGED:      80883	TO_CACHE:    5102236
L1D PQ	ACCESS:     256301	FORWARD:          0	MERGED:          0	TO_CACHE:     256170

L1D UNIQUE REGIONS ACCESSED: 0
L1D REGIONS CONFLICTS: 0
L1D Cross Page Prefetch Requests: 0
L1D Same Page Prefetch Requests: 303369
L1D ROI Sum of L1D PQ occupancy: 3406993
L1D PREFETCHES PUSHED FROM L2C: 0
L1I TOTAL     ACCESS:    9280078  HIT:    7952609  MISS:    1327469  HIT %:    85.6955  MISS %:    14.3045   MPKI: 26.5494
L1I LOAD      ACCESS:    9280078  HIT:    7952609  MISS:    1327469  HIT %:    85.6955  MISS %:    14.3045   MPKI: 26.5494
L1I PREFETCH  REQUESTED:          0  ISSUED:          0  USEFUL:          0  USELESS:          0
L1I USEFUL LOAD PREFETCHES:          0 PREFETCH ISSUED TO LOWER LEVEL:          0  ACCURACY: -nan
L1I TIMELY PREFETCHES:          0 LATE PREFETCHES: 0 DROPPED PREFETCHES: 0
L1I PREFETCHES SAME FILL-ORIGIN LEVEL: 0 DIFFERENT FILL-ORIGIN LEVEL: 0
L1I AVERAGE MISS LATENCY: 31.3138 cycles
L1I RQ	ACCESS:   13872807	FORWARD:          0	MERGED:    4166149	TO_CACHE:    9706658

BTB TOTAL     ACCESS:    4573598  HIT:    3741206  MISS:     832392  HIT %:    81.8001  MISS %:    18.1999   MPKI: 16.6478
BTB BRANCH_DIRECT_JUMP	ACCESS:     450875  HIT:     384691  MISS:      66184
BTB BRANCH_INDIRECT	ACCESS:     168438  HIT:     124272  MISS:      44166
BTB BRANCH_CONDITIONAL	ACCESS:    2260078  HIT:    1987849  MISS:     272229
BTB BRANCH_DIRECT_CALL	ACCESS:     657205  HIT:     533555  MISS:     123650
BTB BRANCH_INDIRECT_CALL	ACCESS:     172721  HIT:     157063  MISS:      15658
BTB BRANCH_RETURN	ACCESS:     864281  HIT:     553776  MISS:     310505
BTB BRANCH_OTHER ACCESS:          0  HIT:          0  MISS:          0

L2C TOTAL     ACCESS:    2926917  HIT:    1529411  MISS:    1397506  HIT %:    52.2533  MISS %:    47.7467   MPKI: 27.9501
L2C LOAD      ACCESS:    1869097  HIT:     902808  MISS:     966289  HIT %:    48.3018  MISS %:    51.6982   MPKI: 19.3258
L2C DATA LOAD MPKI: 5.27944
L2C INSTRUCTION LOAD MPKI: 14.0463
L2C RFO       ACCESS:      90946  HIT:      38602  MISS:      52344  HIT %:     42.445  MISS %:     57.555   MPKI: 1.04688
L2C PREFETCH  ACCESS:     545930  HIT:     242259  MISS:     303671  HIT %:    44.3755  MISS %:    55.6245   MPKI: 6.07342
L2C DATA PREFETCH MPKI: 6.07342
L2C INSTRUCTION PREFETCH MPKI: 0
L2C WRITEBACK ACCESS:     265767  HIT:     263042  MISS:       2725  HIT %:    98.9747  MISS %:    1.02533   MPKI: 0.0545
L2C LOAD TRANSLATION ACCESS:     155177  HIT:      82700  MISS:      72477  HIT %:     53.294  MISS %:     46.706   MPKI: 1.44954
L2C PREFETCH  REQUESTED:     465904  ISSUED:     465904  USEFUL:      75908  USELESS:     227704
L2C USEFUL LOAD PREFETCHES:      75908 PREFETCH ISSUED TO LOWER LEVEL:     310558  ACCURACY: 24.4425
L2C TIMELY PREFETCHES:      75908 LATE PREFETCHES: 6886 DROPPED PREFETCHES: 0
L2C PREFETCHES SAME FILL-ORIGIN LEVEL: 233868 DIFFERENT FILL-ORIGIN LEVEL: 0
L2C AVERAGE MISS LATENCY: 44.8062 cycles
L2C RQ	ACCESS:    2115258	FORWARD:          0	MERGED:          0	TO_CACHE:    2115220
L2C WQ	ACCESS:     265767	FORWARD:         39	MERGED:          0	TO_CACHE:     265767
L2C PQ	ACCESS:     575766	FORWARD:          0	MERGED:       5159	TO_CACHE:     570606

L2C Instructions Evicting Data 305834
L2C Translations Evicting Data 33109
L2C Data Evicting Data 282596
L2C Instructions Evicting Instructions 360793
L2C Translations Evicting Instructions 35822
L2C Data Evicting Instructions 304334
L2C Instructions Evicting Translations 35690
L2C Translations Evicting Translations 3546
L2C Data Evicting Translations 33057
L2C Dense regions hint from L2: 0
PSCL5 TOTAL     ACCESS:     122493  HIT:     122493  MISS:          0  HIT %:        100  MISS %:          0   MPKI: 0
PSCL5 LOAD TRANSLATION ACCESS:     122493  HIT:     122493  MISS:          0  HIT %:        100  MISS %:          0   MPKI: 0
PSCL5 PREFETCH  REQUESTED:          0  ISSUED:          0  USEFUL:          0  USELESS:          0
PSCL5 USEFUL LOAD PREFETCHES:          0 PREFETCH ISSUED TO LOWER LEVEL:          0  ACCURACY: -nan
PSCL5 TIMELY PREFETCHES:          0 LATE PREFETCHES: 0 DROPPED PREFETCHES: 0
PSCL5 PREFETCHES SAME FILL-ORIGIN LEVEL: 0 DIFFERENT FILL-ORIGIN LEVEL: 0

PSCL4 TOTAL     ACCESS:     118363  HIT:     117972  MISS:        391  HIT %:    99.6697  MISS %:    0.33034   MPKI: 0.00782
PSCL4 LOAD TRANSLATION ACCESS:     118363  HIT:     117972  MISS:        391  HIT %:    99.6697  MISS %:    0.33034   MPKI: 0.00782
PSCL4 PREFETCH  REQUESTED:          0  ISSUED:          0  USEFUL:          0  USELESS:          0
PSCL4 USEFUL LOAD PREFETCHES:          0 PREFETCH ISSUED TO LOWER LEVEL:          0  ACCURACY: -nan
PSCL4 TIMELY PREFETCHES:          0 LATE PREFETCHES: 0 DROPPED PREFETCHES: 0
PSCL4 PREFETCHES SAME FILL-ORIGIN LEVEL: 0 DIFFERENT FILL-ORIGIN LEVEL: 0

PSCL3 TOTAL     ACCESS:     121643  HIT:     120663  MISS:        980  HIT %:    99.1944  MISS %:   0.805636   MPKI: 0.0196
PSCL3 LOAD TRANSLATION ACCESS:     121643  HIT:     120663  MISS:        980  HIT %:    99.1944  MISS %:   0.805636   MPKI: 0.0196
PSCL3 PREFETCH  REQUESTED:          0  ISSUED:          0  USEFUL:          0  USELESS:          0
PSCL3 USEFUL LOAD PREFETCHES:          0 PREFETCH ISSUED TO LOWER LEVEL:          0  ACCURACY: -nan
PSCL3 TIMELY PREFETCHES:          0 LATE PREFETCHES: 0 DROPPED PREFETCHES: 0
PSCL3 PREFETCHES SAME FILL-ORIGIN LEVEL: 0 DIFFERENT FILL-ORIGIN LEVEL: 0

PSCL2 TOTAL     ACCESS:     122493  HIT:      91074  MISS:      31419  HIT %:    74.3504  MISS %:    25.6496   MPKI: 0.62838
PSCL2 LOAD TRANSLATION ACCESS:     122493  HIT:      91074  MISS:      31419  HIT %:    74.3504  MISS %:    25.6496   MPKI: 0.62838
PSCL2 PREFETCH  REQUESTED:          0  ISSUED:          0  USEFUL:          0  USELESS:          0
PSCL2 USEFUL LOAD PREFETCHES:          0 PREFETCH ISSUED TO LOWER LEVEL:          0  ACCURACY: -nan
PSCL2 TIMELY PREFETCHES:          0 LATE PREFETCHES: 0 DROPPED PREFETCHES: 0
PSCL2 PREFETCHES SAME FILL-ORIGIN LEVEL: 0 DIFFERENT FILL-ORIGIN LEVEL: 0

LLC TOTAL     ACCESS:    1567321  HIT:    1422709  MISS:     144612  HIT %:    90.7733  MISS %:     9.2267   MPKI: 2.89224
LLC LOAD      ACCESS:     959626  HIT:     929979  MISS:      29647  HIT %:    96.9106  MISS %:    3.08943   MPKI: 0.59294
LLC RFO       ACCESS:      52120  HIT:      42578  MISS:       9542  HIT %:    81.6922  MISS %:    18.3078   MPKI: 0.19084
LLC PREFETCH  ACCESS:     310550  HIT:     214636  MISS:      95914  HIT %:    69.1148  MISS %:    30.8852   MPKI: 1.91828
LLC WRITEBACK ACCESS:     172548  HIT:     164658  MISS:       7890  HIT %:    95.4274  MISS %:    4.57264   MPKI: 0.1578
LLC LOAD TRANSLATION ACCESS:      72477  HIT:      70858  MISS:       1619  HIT %:    97.7662  MISS %:    2.23381   MPKI: 0.03238
LLC PREFETCH  REQUESTED:          0  ISSUED:          0  USEFUL:       3015  USELESS:      94873
LLC USEFUL LOAD PREFETCHES:       3015 PREFETCH ISSUED TO LOWER LEVEL:      95915  ACCURACY: 3.14341
LLC TIMELY PREFETCHES:       3015 LATE PREFETCHES: 0 DROPPED PREFETCHES: 0
LLC PREFETCHES SAME FILL-ORIGIN LEVEL: 0 DIFFERENT FILL-ORIGIN LEVEL: 0
LLC AVERAGE MISS LATENCY: 145.625 cycles
LLC RQ	ACCESS:    1084224	FORWARD:          0	MERGED:          0	TO_CACHE:    1084223
LLC WQ	ACCESS:     172548	FORWARD:          8	MERGED:          0	TO_CACHE:     172548
LLC PQ	ACCESS:     310558	FORWARD:          0	MERGED:          0	TO_CACHE:     310551

LLC Dense regions hint to LLC: 0

RAW hits: 780281
Loads Generated: 11606405
Loads sent to L1D: 10826112
Stores Generated: 5183116
Stores sent to L1D: 5183119
Major fault: 0 Minor fault: 6190
Allocated PAGES: 6190

stream: 
stream:times selected: 448780
stream:pref_filled: 75363
stream:pref_useful: 22086
stream:pref_late: 3548
stream:misses: 6323
stream:misses_by_poll: 0

CS: 
CS:times selected: 27264
CS:pref_filled: 18382
CS:pref_useful: 11695
CS:pref_late: 3241
CS:misses: 4916
CS:misses_by_poll: 0

CPLX: 
CPLX:times selected: 417637
CPLX:pref_filled: 30174
CPLX:pref_useful: 4472
CPLX:pref_late: 485
CPLX:misses: 33558
CPLX:misses_by_poll: 1

NL_L1: 
NL:times selected: 3506
NL:pref_filled: 1152
NL:pref_useful: 94
NL:pref_late: 9
NL:misses: 359
NL:misses_by_poll: 0

total selections: 897187
total_filled: 109617
total_useful: 33863
total_late: 7561
total_polluted: 1
total_misses_after_warmup: 577301
conflicts: 2503872
Degree Incremented Times: 0
Degree Decremented Times: 121347

L1 IP Table Write Accesses: 4402079
L1 IP Table Read Accesses: 1898207
L1 RST Write Accesses: 383096
L1 RST Read Accesses: 766192
L1 CSPT Write Accesses: 383096
L1 CSPT Read Accesses: 739558
L1 RR Filter Tag Write Accesses: 256480
L1 RR Filter Tag Read Accesses: 15818890
L1 IP Table Tag Write Accesses: 7398912
L1 IP Table Tag Read Accesses: 7398912
L1 RST Tag Write Accesses: 0
L1 RST Tag Read Accesses: 3732106
L1 RR Filter Write Accesses: 0
L1 RR Filter Read Accesses: 568369
test: 125369
L2 IP Table Read Accesses: 817473
L2 IP Table Write Accesses: 1148662
L2 IP Table Tag Read Accesses: 645793
L2 IP Table Tag Write Accesses: 645793

DRAM Statistics
 CHANNEL 0
 RQ ROW_BUFFER_HIT:      27408  ROW_BUFFER_MISS:     109313
 DBUS_CONGESTED:         72
 WQ ROW_BUFFER_HIT:       7567  ROW_BUFFER_MISS:      45954  FULL:          0

 AVG_CONGESTED_CYCLE: 4
 All warmup complete: 2
Channel 0 Bank busy for read cycles: 0
Channel 0 Bank busy for write cycles: 0
Channel 0
Rank 0
0banks busy for read cycles: 85849703
0banks busy for write cycles: 32676
1banks busy for read cycles: 10465319
1banks busy for write cycles: 4575159
2banks busy for read cycles: 2411647
2banks busy for write cycles: 1074804
3banks busy for read cycles: 495919
3banks busy for write cycles: 347731
4banks busy for read cycles: 140111
4banks busy for write cycles: 155582
5banks busy for read cycles: 36266
5banks busy for write cycles: 86900
6banks busy for read cycles: 15543
6banks busy for write cycles: 53215
7banks busy for read cycles: 8961
7banks busy for write cycles: 38731
8banks busy for read cycles: 12043
8banks busy for write cycles: 29920

CPU 0 Branch Prediction Accuracy: 92.8558% MPKI: 13.3034 Average ROB Occupancy at Mispredict: 21.0782
Branch types
NOT_BRANCH: 40689141 81.3783%
BRANCH_DIRECT_JUMP: 450875 0.90175%
BRANCH_INDIRECT: 168438 0.336876%
BRANCH_CONDITIONAL: 6997104 13.9942%
BRANCH_DIRECT_CALL: 657205 1.31441%
BRANCH_INDIRECT_CALL: 172721 0.345442%
BRANCH_RETURN: 864281 1.72856%
BRANCH_OTHER: 0 0%

@sumon_overall_L1D     33863      8211      8211     75705    109617    512471    512650
@Sumon_Early_by_class_L1D     18312      9746      3773         7
@Sumon_Late_by_class_L1D      3291      3113       443         7

@Sumon_Early_by_cycle_L1D      8032      4262      5986      2212      1504      4049      1724      1514      1495      2194       677       214
@Sumon_Late_by_cycle_L1D      2773      1268      1797       381       885         0
@Sumon_Early_stream_L1D      3736      2068      2373      1562       836      2358      1129      1021      1040      1533       502       154
@Sumon_Early_CS_L1D      3280      1563      3046       197       246       874       254       156        72        37        16         5
@Sumon_Early_CPLX_L1D       476       390       366       257       225       582       264       280       325       449       119        40
@Sumon_Late_stream_L1D       472       670      1276       268       605         0
@Sumon_Late_CS_L1D      2040       398       407        71       197         0
@Sumon_Late_CPLX_L1D       175       155        68        10        35         0
@sumon_overall_L2C     75908      6886         0    227704    303671    465904    465904
@Sumon_Early_by_class_L2C      1236       444       538         0
@Sumon_Late_by_class_L2C         0         0         0         0

@Sumon_Early_by_cycle_L2C     13184      8326      9172      5595      4017     10829      5457      3646      2766      2820      2045      8051
@Sumon_Late_by_cycle_L2C      1247      1460      1068      1172      1939         0
@Sumon_Early_stream_L2C         0         0         0         0         0         0         0         0         1        20        85      1130
@Sumon_Early_CS_L2C         0         0         0         0         0         0         0         0         0         0        44       400
@Sumon_Early_CPLX_L2C         0         0         0         0         0         0         0         1         0         8        46       483
@Sumon_Late_stream_L2C         0         0         0         0         0         0
@Sumon_Late_CS_L2C         0         0         0         0         0         0
@Sumon_Late_CPLX_L2C         0         0         0         0         0         0
DRAM PAGES: 1048576
Allocated PAGES: 6190
