
*** ChampSim Multicore Out-of-Order Simulator ***

Warmup Instructions: 10000000
Simulation Instructions: 50000000
Number of CPUs: 1
LLC sets: 2048
LLC ways: 16
Off-chip DRAM Size: 4096 MB Channels: 1 Width: 64-bit Data Rate: 6400 MT/s
CPU 0 runs traces/clientserver/server_032.champsimtrace.xz
.xz
CPU 0 Bimodal branch predictor
BTB has LRU replacement policy
ITLB has LRU replacement policy
DTLB has LRU replacement policy
STLB has LRU replacement policy
L1I has LRU replacement policy
IP Table Entries: 256
L1D has LRU replacement policy
IP_Table L2 entries: 256
L2C has LRU replacement policy
Initialize SRRIP state
Heartbeat CPU 0 instructions: 10000002 cycles: 2881820 heartbeat IPC: 3.47003 cumulative IPC: 3.47003 (Simulation time: 0 hr 19 min 15 sec) 

Warmup complete CPU 0 instructions: 10000002 cycles: 2881820 (Simulation time: 0 hr 19 min 15 sec) 

Heartbeat CPU 0 instructions: 20000003 cycles: 27829358 heartbeat IPC: 0.400841 cumulative IPC: 0.400841 (Simulation time: 0 hr 37 min 33 sec) 
Heartbeat CPU 0 instructions: 30000001 cycles: 52759003 heartbeat IPC: 0.401129 cumulative IPC: 0.400985 (Simulation time: 0 hr 56 min 2 sec) 
Heartbeat CPU 0 instructions: 40000002 cycles: 77651441 heartbeat IPC: 0.401728 cumulative IPC: 0.401232 (Simulation time: 1 hr 14 min 27 sec) 
Heartbeat CPU 0 instructions: 50000000 cycles: 102548304 heartbeat IPC: 0.401657 cumulative IPC: 0.401339 (Simulation time: 1 hr 32 min 51 sec) 
Heartbeat CPU 0 instructions: 60000002 cycles: 127433313 heartbeat IPC: 0.401848 cumulative IPC: 0.40144 (Simulation time: 1 hr 48 min 25 sec) 
Finished CPU 0 instructions: 50000000 cycles: 124551493 cumulative IPC: 0.40144 (Simulation time: 1 hr 48 min 25 sec) 

ChampSim completed all CPUs

Region of Interest Statistics

CPU 0 cumulative IPC: 0.40144 instructions: 50000000 cycles: 124551493
ITLB TOTAL     ACCESS:    8554827  HIT:    7966894  MISS:     587933  HIT %:    93.1275  MISS %:    6.87253   MPKI: 11.7587
ITLB LOAD TRANSLATION ACCESS:    8554827  HIT:    7966894  MISS:     587933  HIT %:    93.1275  MISS %:    6.87253   MPKI: 11.7587
ITLB PREFETCH  REQUESTED:          0  ISSUED:          0  USEFUL:          0  USELESS:          0
ITLB USEFUL LOAD PREFETCHES:          0 PREFETCH ISSUED TO LOWER LEVEL:          0  ACCURACY: -nan
ITLB TIMELY PREFETCHES:          0 LATE PREFETCHES: 0 DROPPED PREFETCHES: 0
ITLB PREFETCHES SAME FILL-ORIGIN LEVEL: 0 DIFFERENT FILL-ORIGIN LEVEL: 0
ITLB AVERAGE MISS LATENCY: 9.01125 cycles
ITLB RQ	ACCESS:   10333569	FORWARD:          0	MERGED:    1632508	TO_CACHE:    8701061

DTLB TOTAL     ACCESS:   12833326  HIT:   12321035  MISS:     512291  HIT %:    96.0081  MISS %:    3.99188   MPKI: 10.2458
DTLB LOAD TRANSLATION ACCESS:   12833326  HIT:   12321035  MISS:     512291  HIT %:    96.0081  MISS %:    3.99188   MPKI: 10.2458
DTLB PREFETCH  REQUESTED:          0  ISSUED:          0  USEFUL:          0  USELESS:          0
DTLB USEFUL LOAD PREFETCHES:          0 PREFETCH ISSUED TO LOWER LEVEL:          0  ACCURACY: -nan
DTLB TIMELY PREFETCHES:          0 LATE PREFETCHES: 0 DROPPED PREFETCHES: 0
DTLB PREFETCHES SAME FILL-ORIGIN LEVEL: 0 DIFFERENT FILL-ORIGIN LEVEL: 0
DTLB AVERAGE MISS LATENCY: 9.07073 cycles
DTLB RQ	ACCESS:   16054090	FORWARD:          0	MERGED:    3205088	TO_CACHE:   12849002

STLB TOTAL     ACCESS:    1394957  HIT:    1394506  MISS:        451  HIT %:    99.9677  MISS %:  0.0323307   MPKI: 0.00902
STLB LOAD TRANSLATION ACCESS:    1100224  HIT:    1099773  MISS:        451  HIT %:     99.959  MISS %:  0.0409917   MPKI: 0.00902
STLB TRANSLATION FROM L1D PREFETCHER ACCESS:     294733  HIT:     294733  MISS:          0  HIT %:        100  MISS %:          0   MPKI: 0
STLB PREFETCH  REQUESTED:          0  ISSUED:          0  USEFUL:          0  USELESS:          0
STLB USEFUL LOAD PREFETCHES:          0 PREFETCH ISSUED TO LOWER LEVEL:          0  ACCURACY: -nan
STLB TIMELY PREFETCHES:          0 LATE PREFETCHES: 0 DROPPED PREFETCHES: 0
STLB PREFETCHES SAME FILL-ORIGIN LEVEL: 0 DIFFERENT FILL-ORIGIN LEVEL: 0
STLB AVERAGE MISS LATENCY: 70.3659 cycles
STLB RQ	ACCESS:    1464251	FORWARD:          0	MERGED:      69293	TO_CACHE:    1394958

STLB Hit, L1D data hit: 0
STLB Hit, L2C data hit: 0
STLB Hit, LLC data hit: 0
STLB Hit, LLC data miss: 0
STLB STLB hints to L2: 0
L1D TOTAL     ACCESS:   15913700  HIT:   14634726  MISS:    1278974  HIT %:    91.9631  MISS %:    8.03694   MPKI: 25.5795
L1D LOAD      ACCESS:    8823198  HIT:    7987358  MISS:     835840  HIT %:    90.5268  MISS %:    9.47321   MPKI: 16.7168
L1D RFO       ACCESS:    6742040  HIT:    6437651  MISS:     304389  HIT %:    95.4852  MISS %:    4.51479   MPKI: 6.08778
L1D PREFETCH  ACCESS:     348462  HIT:     209717  MISS:     138745  HIT %:    60.1836  MISS %:    39.8164   MPKI: 2.7749
L1D PREFETCH  REQUESTED:     728324  ISSUED:     728324  USEFUL:      23865  USELESS:     114868
L1D USEFUL LOAD PREFETCHES:      23865 PREFETCH ISSUED TO LOWER LEVEL:     138784  ACCURACY: 17.1958
L1D TIMELY PREFETCHES:      23865 LATE PREFETCHES: 6300 DROPPED PREFETCHES: 0
L1D PREFETCHES SAME FILL-ORIGIN LEVEL: 138784 DIFFERENT FILL-ORIGIN LEVEL: 0
L1D AVERAGE MISS LATENCY: 1920.9 cycles
L1D RQ	ACCESS:   12030026	FORWARD:          0	MERGED:    3036509	TO_CACHE:    8861926
L1D WQ	ACCESS:    7236665	FORWARD:     131863	MERGED:      44501	TO_CACHE:    7192164
L1D PQ	ACCESS:     364298	FORWARD:          0	MERGED:          0	TO_CACHE:     364026

L1D UNIQUE REGIONS ACCESSED: 0
L1D REGIONS CONFLICTS: 0
L1D Cross Page Prefetch Requests: 0
L1D Same Page Prefetch Requests: 430302
L1D ROI Sum of L1D PQ occupancy: 4706701
L1D PREFETCHES PUSHED FROM L2C: 0
L1I TOTAL     ACCESS:    9773390  HIT:    6606543  MISS:    3166847  HIT %:    67.5973  MISS %:    32.4027   MPKI: 63.3369
L1I LOAD      ACCESS:    9773390  HIT:    6606543  MISS:    3166847  HIT %:    67.5973  MISS %:    32.4027   MPKI: 63.3369
L1I PREFETCH  REQUESTED:          0  ISSUED:          0  USEFUL:          0  USELESS:          0
L1I USEFUL LOAD PREFETCHES:          0 PREFETCH ISSUED TO LOWER LEVEL:          0  ACCURACY: -nan
L1I TIMELY PREFETCHES:          0 LATE PREFETCHES: 0 DROPPED PREFETCHES: 0
L1I PREFETCHES SAME FILL-ORIGIN LEVEL: 0 DIFFERENT FILL-ORIGIN LEVEL: 0
L1I AVERAGE MISS LATENCY: 16.7363 cycles
L1I RQ	ACCESS:   14042309	FORWARD:          0	MERGED:    3708740	TO_CACHE:   10333569

BTB TOTAL     ACCESS:    5869486  HIT:    3861122  MISS:    2008364  HIT %:     65.783  MISS %:     34.217   MPKI: 40.1673
BTB BRANCH_DIRECT_JUMP	ACCESS:     509293  HIT:     347105  MISS:     162188
BTB BRANCH_INDIRECT	ACCESS:     180189  HIT:     143386  MISS:      36803
BTB BRANCH_CONDITIONAL	ACCESS:    2595854  HIT:    2046614  MISS:     549240
BTB BRANCH_DIRECT_CALL	ACCESS:    1085948  HIT:     693461  MISS:     392487
BTB BRANCH_INDIRECT_CALL	ACCESS:     206137  HIT:     130928  MISS:      75209
BTB BRANCH_RETURN	ACCESS:    1292065  HIT:     499628  MISS:     792437
BTB BRANCH_OTHER ACCESS:          0  HIT:          0  MISS:          0

L2C TOTAL     ACCESS:    5754987  HIT:    5266899  MISS:     488088  HIT %:    91.5189  MISS %:    8.48113   MPKI: 9.76176
L2C LOAD      ACCESS:    4002681  HIT:    3637984  MISS:     364697  HIT %:    90.8887  MISS %:    9.11132   MPKI: 7.29394
L2C DATA LOAD MPKI: 1.7024
L2C INSTRUCTION LOAD MPKI: 5.59154
L2C RFO       ACCESS:     304351  HIT:     270194  MISS:      34157  HIT %:    88.7771  MISS %:    11.2229   MPKI: 0.68314
L2C PREFETCH  ACCESS:     846478  HIT:     764132  MISS:      82346  HIT %:    90.2719  MISS %:    9.72807   MPKI: 1.64692
L2C DATA PREFETCH MPKI: 1.64692
L2C INSTRUCTION PREFETCH MPKI: 0
L2C WRITEBACK ACCESS:     600998  HIT:     594302  MISS:       6696  HIT %:    98.8859  MISS %:    1.11415   MPKI: 0.13392
L2C LOAD TRANSLATION ACCESS:        479  HIT:        287  MISS:        192  HIT %:    59.9165  MISS %:    40.0835   MPKI: 0.00384
L2C PREFETCH  REQUESTED:     717691  ISSUED:     717691  USEFUL:      10474  USELESS:      72169
L2C USEFUL LOAD PREFETCHES:      10474 PREFETCH ISSUED TO LOWER LEVEL:      83978  ACCURACY: 12.4723
L2C TIMELY PREFETCHES:      10474 LATE PREFETCHES: 1632 DROPPED PREFETCHES: 0
L2C PREFETCHES SAME FILL-ORIGIN LEVEL: 55727 DIFFERENT FILL-ORIGIN LEVEL: 0
L2C AVERAGE MISS LATENCY: 32.5919 cycles
L2C RQ	ACCESS:    4307515	FORWARD:          0	MERGED:          0	TO_CACHE:    4307511
L2C WQ	ACCESS:     600998	FORWARD:         24	MERGED:          0	TO_CACHE:     600998
L2C PQ	ACCESS:     856475	FORWARD:          0	MERGED:       5373	TO_CACHE:     851082

L2C Instructions Evicting Data 102437
L2C Translations Evicting Data 184
L2C Data Evicting Data 103415
L2C Instructions Evicting Instructions 177122
L2C Translations Evicting Instructions 7
L2C Data Evicting Instructions 97900
L2C Instructions Evicting Translations 12
L2C Translations Evicting Translations 1
L2C Data Evicting Translations 219
L2C Dense regions hint from L2: 0
PSCL5 TOTAL     ACCESS:        451  HIT:        451  MISS:          0  HIT %:        100  MISS %:          0   MPKI: 0
PSCL5 LOAD TRANSLATION ACCESS:        451  HIT:        451  MISS:          0  HIT %:        100  MISS %:          0   MPKI: 0
PSCL5 PREFETCH  REQUESTED:          0  ISSUED:          0  USEFUL:          0  USELESS:          0
PSCL5 USEFUL LOAD PREFETCHES:          0 PREFETCH ISSUED TO LOWER LEVEL:          0  ACCURACY: -nan
PSCL5 TIMELY PREFETCHES:          0 LATE PREFETCHES: 0 DROPPED PREFETCHES: 0
PSCL5 PREFETCHES SAME FILL-ORIGIN LEVEL: 0 DIFFERENT FILL-ORIGIN LEVEL: 0

PSCL4 TOTAL     ACCESS:        449  HIT:        445  MISS:          4  HIT %:    99.1091  MISS %:   0.890869   MPKI: 8e-05
PSCL4 LOAD TRANSLATION ACCESS:        449  HIT:        445  MISS:          4  HIT %:    99.1091  MISS %:   0.890869   MPKI: 8e-05
PSCL4 PREFETCH  REQUESTED:          0  ISSUED:          0  USEFUL:          0  USELESS:          0
PSCL4 USEFUL LOAD PREFETCHES:          0 PREFETCH ISSUED TO LOWER LEVEL:          0  ACCURACY: -nan
PSCL4 TIMELY PREFETCHES:          0 LATE PREFETCHES: 0 DROPPED PREFETCHES: 0
PSCL4 PREFETCHES SAME FILL-ORIGIN LEVEL: 0 DIFFERENT FILL-ORIGIN LEVEL: 0

PSCL3 TOTAL     ACCESS:        450  HIT:        446  MISS:          4  HIT %:    99.1111  MISS %:   0.888889   MPKI: 8e-05
PSCL3 LOAD TRANSLATION ACCESS:        450  HIT:        446  MISS:          4  HIT %:    99.1111  MISS %:   0.888889   MPKI: 8e-05
PSCL3 PREFETCH  REQUESTED:          0  ISSUED:          0  USEFUL:          0  USELESS:          0
PSCL3 USEFUL LOAD PREFETCHES:          0 PREFETCH ISSUED TO LOWER LEVEL:          0  ACCURACY: -nan
PSCL3 TIMELY PREFETCHES:          0 LATE PREFETCHES: 0 DROPPED PREFETCHES: 0
PSCL3 PREFETCHES SAME FILL-ORIGIN LEVEL: 0 DIFFERENT FILL-ORIGIN LEVEL: 0

PSCL2 TOTAL     ACCESS:        451  HIT:        429  MISS:         22  HIT %:     95.122  MISS %:    4.87805   MPKI: 0.00044
PSCL2 LOAD TRANSLATION ACCESS:        451  HIT:        429  MISS:         22  HIT %:     95.122  MISS %:    4.87805   MPKI: 0.00044
PSCL2 PREFETCH  REQUESTED:          0  ISSUED:          0  USEFUL:          0  USELESS:          0
PSCL2 USEFUL LOAD PREFETCHES:          0 PREFETCH ISSUED TO LOWER LEVEL:          0  ACCURACY: -nan
PSCL2 TIMELY PREFETCHES:          0 LATE PREFETCHES: 0 DROPPED PREFETCHES: 0
PSCL2 PREFETCHES SAME FILL-ORIGIN LEVEL: 0 DIFFERENT FILL-ORIGIN LEVEL: 0

LLC TOTAL     ACCESS:     545374  HIT:     534087  MISS:      11287  HIT %:    97.9304  MISS %:    2.06959   MPKI: 0.22574
LLC LOAD      ACCESS:     363078  HIT:     358750  MISS:       4328  HIT %:     98.808  MISS %:    1.19203   MPKI: 0.08656
LLC RFO       ACCESS:      34144  HIT:      34131  MISS:         13  HIT %:    99.9619  MISS %:   0.038074   MPKI: 0.00026
LLC PREFETCH  ACCESS:      83978  HIT:      77060  MISS:       6918  HIT %:    91.7621  MISS %:    8.23787   MPKI: 0.13836
LLC WRITEBACK ACCESS:      63982  HIT:      63974  MISS:          8  HIT %:    99.9875  MISS %:  0.0125035   MPKI: 0.00016
LLC LOAD TRANSLATION ACCESS:        192  HIT:        172  MISS:         20  HIT %:    89.5833  MISS %:    10.4167   MPKI: 0.0004
LLC PREFETCH  REQUESTED:          0  ISSUED:          0  USEFUL:       1689  USELESS:        116
LLC USEFUL LOAD PREFETCHES:       1689 PREFETCH ISSUED TO LOWER LEVEL:       6918  ACCURACY: 24.4146
LLC TIMELY PREFETCHES:       1689 LATE PREFETCHES: 0 DROPPED PREFETCHES: 0
LLC PREFETCHES SAME FILL-ORIGIN LEVEL: 0 DIFFERENT FILL-ORIGIN LEVEL: 0
LLC AVERAGE MISS LATENCY: 131.359 cycles
LLC RQ	ACCESS:     397414	FORWARD:          0	MERGED:          0	TO_CACHE:     397414
LLC WQ	ACCESS:      63982	FORWARD:          0	MERGED:          0	TO_CACHE:      63982
LLC PQ	ACCESS:      83978	FORWARD:          0	MERGED:          0	TO_CACHE:      83978

LLC Dense regions hint to LLC: 0

RAW hits: 605967
Loads Generated: 12635992
Loads sent to L1D: 12030026
Stores Generated: 7236649
Stores sent to L1D: 7236665
Major fault: 0 Minor fault: 1259
Allocated PAGES: 1259

stream: 
stream:times selected: 662018
stream:pref_filled: 114482
stream:pref_useful: 21437
stream:pref_late: 3930
stream:misses: 3364
stream:misses_by_poll: 0

CS: 
CS:times selected: 57605
CS:pref_filled: 7774
CS:pref_useful: 3073
CS:pref_late: 1455
CS:misses: 1963
CS:misses_by_poll: 0

CPLX: 
CPLX:times selected: 645860
CPLX:pref_filled: 40436
CPLX:pref_useful: 4461
CPLX:pref_late: 351
CPLX:misses: 57584
CPLX:misses_by_poll: 1

NL_L1: 
NL:times selected: 6007
NL:pref_filled: 1200
NL:pref_useful: 152
NL:pref_late: 1
NL:misses: 67
NL:misses_by_poll: 0

total selections: 1371490
total_filled: 138745
total_useful: 23865
total_late: 5783
total_polluted: 1
total_misses_after_warmup: 874569
conflicts: 3543036
Degree Incremented Times: 0
Degree Decremented Times: 173713

L1 IP Table Write Accesses: 5026410
L1 IP Table Read Accesses: 1483374
L1 RST Write Accesses: 563008
L1 RST Read Accesses: 1126016
L1 CSPT Write Accesses: 563008
L1 CSPT Read Accesses: 1118335
L1 RR Filter Tag Write Accesses: 364298
L1 RR Filter Tag Read Accesses: 24290935
L1 IP Table Tag Write Accesses: 8861927
L1 IP Table Tag Read Accesses: 8861927
L1 RST Tag Write Accesses: 0
L1 RST Tag Read Accesses: 4395428
L1 RR Filter Write Accesses: 0
L1 RR Filter Read Accesses: 900466
test: 117431
L2 IP Table Read Accesses: 1208269
L2 IP Table Write Accesses: 1736280
L2 IP Table Tag Read Accesses: 969615
L2 IP Table Tag Write Accesses: 969615

DRAM Statistics
 CHANNEL 0
 RQ ROW_BUFFER_HIT:       4634  ROW_BUFFER_MISS:       6645
 DBUS_CONGESTED:          0
 WQ ROW_BUFFER_HIT:          0  ROW_BUFFER_MISS:         13  FULL:          0

 AVG_CONGESTED_CYCLE: -
 All warmup complete: 2
Channel 0 Bank busy for read cycles: 0
Channel 0 Bank busy for write cycles: 0
Channel 0
Rank 0
0banks busy for read cycles: 123832678
0banks busy for write cycles: 13
1banks busy for read cycles: 366633
1banks busy for write cycles: 3100
2banks busy for read cycles: 254631
2banks busy for write cycles: 0
3banks busy for read cycles: 52083
3banks busy for write cycles: 0
4banks busy for read cycles: 24793
4banks busy for write cycles: 0
5banks busy for read cycles: 11170
5banks busy for write cycles: 0
6banks busy for read cycles: 3913
6banks busy for write cycles: 0
7banks busy for read cycles: 1999
7banks busy for write cycles: 0
8banks busy for read cycles: 481
8banks busy for write cycles: 0

CPU 0 Branch Prediction Accuracy: 92.2268% MPKI: 14.419 Average ROB Occupancy at Mispredict: 16.2785
Branch types
NOT_BRANCH: 40724941 81.4499%
BRANCH_DIRECT_JUMP: 509293 1.01859%
BRANCH_INDIRECT: 180189 0.360378%
BRANCH_CONDITIONAL: 6001163 12.0023%
BRANCH_DIRECT_CALL: 1085948 2.1719%
BRANCH_INDIRECT_CALL: 206137 0.412274%
BRANCH_RETURN: 1292065 2.58413%
BRANCH_OTHER: 0 0%

@sumon_overall_L1D     23865      6300      6300    114868    138745    728324    728324
@Sumon_Early_by_class_L1D     17894      1099      3630         1
@Sumon_Late_by_class_L1D      3208      1301       229         1

@Sumon_Early_by_cycle_L1D      9252      2360      2054      1384        91      2639       416      1983      2055      1561        68         2
@Sumon_Late_by_cycle_L1D       723      1365       830       787      1054         0
@Sumon_Early_stream_L1D      6958      1983      1134      1126        83      2315       125      1355      1389      1405        19         2
@Sumon_Early_CS_L1D       925       144        26         4         0         0         0         0         0         0         0         0
@Sumon_Early_CPLX_L1D       614       159       646       247         8       273       208       624       651       151        49         0
@Sumon_Late_stream_L1D       474      1174       697       159       704         0
@Sumon_Late_CS_L1D       159        62       121       619       340         0
@Sumon_Late_CPLX_L1D        85       125         5         5         9         0
@sumon_overall_L2C     10474      1632         0     72169     82346    717691    717691
@Sumon_Early_by_class_L2C       580        56       208         0
@Sumon_Late_by_class_L2C         0         0         0         0

@Sumon_Early_by_cycle_L2C      2152      2204       697      1021       445       794        42       552         2        63      1428      1074
@Sumon_Late_by_cycle_L2C       549       423       437        92       131         0
@Sumon_Early_stream_L2C         0         0         0         0         0         0         0         0         0         2         7       571
@Sumon_Early_CS_L2C         0         0         0         0         0         0         0         0         0         0         0        56
@Sumon_Early_CPLX_L2C         0         0         0         0         0         0         0         0         0         5         9       194
@Sumon_Late_stream_L2C         0         0         0         0         0         0
@Sumon_Late_CS_L2C         0         0         0         0         0         0
@Sumon_Late_CPLX_L2C         0         0         0         0         0         0
DRAM PAGES: 1048576
Allocated PAGES: 1259
