
*** ChampSim Multicore Out-of-Order Simulator ***

Warmup Instructions: 10000000
Simulation Instructions: 50000000
Number of CPUs: 1
LLC sets: 2048
LLC ways: 16
Off-chip DRAM Size: 4096 MB Channels: 1 Width: 64-bit Data Rate: 6400 MT/s
CPU 0 runs traces/clientserver/server_017.champsimtrace.xz
.xz
CPU 0 Bimodal branch predictor
BTB has LRU replacement policy
ITLB has LRU replacement policy
DTLB has LRU replacement policy
STLB has LRU replacement policy
L1I has LRU replacement policy
IP Table Entries: 256
L1D has LRU replacement policy
IP_Table L2 entries: 256
L2C has LRU replacement policy
Initialize SRRIP state
Heartbeat CPU 0 instructions: 10000000 cycles: 3148325 heartbeat IPC: 3.17629 cumulative IPC: 3.17629 (Simulation time: 0 hr 20 min 43 sec) 

Warmup complete CPU 0 instructions: 10000004 cycles: 3148326 (Simulation time: 0 hr 20 min 43 sec) 

Heartbeat CPU 0 instructions: 20000000 cycles: 24542254 heartbeat IPC: 0.467422 cumulative IPC: 0.467422 (Simulation time: 0 hr 45 min 48 sec) 
Heartbeat CPU 0 instructions: 30000001 cycles: 45833821 heartbeat IPC: 0.46967 cumulative IPC: 0.468543 (Simulation time: 1 hr 11 min 3 sec) 
Heartbeat CPU 0 instructions: 40000003 cycles: 67163209 heartbeat IPC: 0.468837 cumulative IPC: 0.468641 (Simulation time: 1 hr 36 min 41 sec) 
Heartbeat CPU 0 instructions: 50000001 cycles: 88453826 heartbeat IPC: 0.46969 cumulative IPC: 0.468903 (Simulation time: 1 hr 52 min 56 sec) 
Heartbeat CPU 0 instructions: 60000000 cycles: 109748944 heartbeat IPC: 0.469591 cumulative IPC: 0.46904 (Simulation time: 2 hr 0 min 41 sec) 
Finished CPU 0 instructions: 50000002 cycles: 106600633 cumulative IPC: 0.46904 (Simulation time: 2 hr 0 min 41 sec) 

ChampSim completed all CPUs

Region of Interest Statistics

CPU 0 cumulative IPC: 0.46904 instructions: 50000002 cycles: 106600633
ITLB TOTAL     ACCESS:    8922783  HIT:    8551516  MISS:     371267  HIT %:    95.8391  MISS %:    4.16089   MPKI: 7.42534
ITLB LOAD TRANSLATION ACCESS:    8922783  HIT:    8551516  MISS:     371267  HIT %:    95.8391  MISS %:    4.16089   MPKI: 7.42534
ITLB PREFETCH  REQUESTED:          0  ISSUED:          0  USEFUL:          0  USELESS:          0
ITLB USEFUL LOAD PREFETCHES:          0 PREFETCH ISSUED TO LOWER LEVEL:          0  ACCURACY: -nan
ITLB TIMELY PREFETCHES:          0 LATE PREFETCHES: 0 DROPPED PREFETCHES: 0
ITLB PREFETCHES SAME FILL-ORIGIN LEVEL: 0 DIFFERENT FILL-ORIGIN LEVEL: 0
ITLB AVERAGE MISS LATENCY: 9.25775 cycles
ITLB RQ	ACCESS:   10498200	FORWARD:          0	MERGED:    1455555	TO_CACHE:    9042645

DTLB TOTAL     ACCESS:   11804183  HIT:   11377150  MISS:     427033  HIT %:    96.3824  MISS %:    3.61764   MPKI: 8.54066
DTLB LOAD TRANSLATION ACCESS:   11804183  HIT:   11377150  MISS:     427033  HIT %:    96.3824  MISS %:    3.61764   MPKI: 8.54066
DTLB PREFETCH  REQUESTED:          0  ISSUED:          0  USEFUL:          0  USELESS:          0
DTLB USEFUL LOAD PREFETCHES:          0 PREFETCH ISSUED TO LOWER LEVEL:          0  ACCURACY: -nan
DTLB TIMELY PREFETCHES:          0 LATE PREFETCHES: 0 DROPPED PREFETCHES: 0
DTLB PREFETCHES SAME FILL-ORIGIN LEVEL: 0 DIFFERENT FILL-ORIGIN LEVEL: 0
DTLB AVERAGE MISS LATENCY: 18.4383 cycles
DTLB RQ	ACCESS:   16740639	FORWARD:          0	MERGED:    4865071	TO_CACHE:   11875568

STLB TOTAL     ACCESS:    1472264  HIT:    1433547  MISS:      38717  HIT %:    97.3702  MISS %:    2.62976   MPKI: 0.77434
STLB LOAD TRANSLATION ACCESS:     798300  HIT:     759583  MISS:      38717  HIT %:    95.1501  MISS %:    4.84993   MPKI: 0.77434
STLB TRANSLATION FROM L1D PREFETCHER ACCESS:     673964  HIT:     673964  MISS:          0  HIT %:        100  MISS %:          0   MPKI: 0
STLB PREFETCH  REQUESTED:          0  ISSUED:          0  USEFUL:          0  USELESS:          0
STLB USEFUL LOAD PREFETCHES:          0 PREFETCH ISSUED TO LOWER LEVEL:          0  ACCURACY: -nan
STLB TIMELY PREFETCHES:          0 LATE PREFETCHES: 0 DROPPED PREFETCHES: 0
STLB PREFETCHES SAME FILL-ORIGIN LEVEL: 0 DIFFERENT FILL-ORIGIN LEVEL: 0
STLB AVERAGE MISS LATENCY: 106.245 cycles
STLB RQ	ACCESS:    1561825	FORWARD:          0	MERGED:      89560	TO_CACHE:    1472265

STLB Hit, L1D data hit: 0
STLB Hit, L2C data hit: 0
STLB Hit, LLC data hit: 0
STLB Hit, LLC data miss: 0
STLB STLB hints to L2: 0
L1D TOTAL     ACCESS:   15120482  HIT:   13213874  MISS:    1906608  HIT %:    87.3906  MISS %:    12.6094   MPKI: 38.1322
L1D LOAD      ACCESS:    8022631  HIT:    7499858  MISS:     522773  HIT %:    93.4838  MISS %:    6.51623   MPKI: 10.4555
L1D RFO       ACCESS:    6347619  HIT:    5390546  MISS:     957073  HIT %:    84.9223  MISS %:    15.0777   MPKI: 19.1415
L1D PREFETCH  ACCESS:     750232  HIT:     323470  MISS:     426762  HIT %:     43.116  MISS %:     56.884   MPKI: 8.53524
L1D PREFETCH  REQUESTED:    1528855  ISSUED:    1527075  USEFUL:     316574  USELESS:     110185
L1D USEFUL LOAD PREFETCHES:     316574 PREFETCH ISSUED TO LOWER LEVEL:     426800  ACCURACY: 74.1739
L1D TIMELY PREFETCHES:     316574 LATE PREFETCHES: 53996 DROPPED PREFETCHES: 0
L1D PREFETCHES SAME FILL-ORIGIN LEVEL: 426800 DIFFERENT FILL-ORIGIN LEVEL: 0
L1D AVERAGE MISS LATENCY: 691.776 cycles
L1D RQ	ACCESS:   11600608	FORWARD:          0	MERGED:    3366804	TO_CACHE:    8108217
L1D WQ	ACCESS:    8685053	FORWARD:     125612	MERGED:      52631	TO_CACHE:    8632422
L1D PQ	ACCESS:     763550	FORWARD:          0	MERGED:          0	TO_CACHE:     763525

L1D UNIQUE REGIONS ACCESSED: 0
L1D REGIONS CONFLICTS: 0
L1D Cross Page Prefetch Requests: 0
L1D Same Page Prefetch Requests: 917692
L1D ROI Sum of L1D PQ occupancy: 11338305
L1D PREFETCHES PUSHED FROM L2C: 0
L1I TOTAL     ACCESS:    9781306  HIT:    7393332  MISS:    2387974  HIT %:    75.5863  MISS %:    24.4137   MPKI: 47.7595
L1I LOAD      ACCESS:    9781306  HIT:    7393332  MISS:    2387974  HIT %:    75.5863  MISS %:    24.4137   MPKI: 47.7595
L1I PREFETCH  REQUESTED:          0  ISSUED:          0  USEFUL:          0  USELESS:          0
L1I USEFUL LOAD PREFETCHES:          0 PREFETCH ISSUED TO LOWER LEVEL:          0  ACCURACY: -nan
L1I TIMELY PREFETCHES:          0 LATE PREFETCHES: 0 DROPPED PREFETCHES: 0
L1I PREFETCHES SAME FILL-ORIGIN LEVEL: 0 DIFFERENT FILL-ORIGIN LEVEL: 0
L1I AVERAGE MISS LATENCY: 15.9554 cycles
L1I RQ	ACCESS:   14464518	FORWARD:          0	MERGED:    3966318	TO_CACHE:   10498200

BTB TOTAL     ACCESS:    5360496  HIT:    5095937  MISS:     264559  HIT %:    95.0647  MISS %:    4.93535   MPKI: 5.29118
BTB BRANCH_DIRECT_JUMP	ACCESS:     456444  HIT:     454688  MISS:       1756
BTB BRANCH_INDIRECT	ACCESS:      50083  HIT:      49903  MISS:        180
BTB BRANCH_CONDITIONAL	ACCESS:    3033031  HIT:    3027406  MISS:       5625
BTB BRANCH_DIRECT_CALL	ACCESS:     742789  HIT:     739175  MISS:       3614
BTB BRANCH_INDIRECT_CALL	ACCESS:     167677  HIT:     138914  MISS:      28763
BTB BRANCH_RETURN	ACCESS:     910472  HIT:     685851  MISS:     224621
BTB BRANCH_OTHER ACCESS:          0  HIT:          0  MISS:          0

L2C TOTAL     ACCESS:    6216884  HIT:    4335436  MISS:    1881448  HIT %:    69.7365  MISS %:    30.2635   MPKI: 37.629
L2C LOAD      ACCESS:    2910735  HIT:    2472608  MISS:     438127  HIT %:    84.9479  MISS %:    15.0521   MPKI: 8.76254
L2C DATA LOAD MPKI: 5.96658
L2C INSTRUCTION LOAD MPKI: 2.79596
L2C RFO       ACCESS:     957044  HIT:      29140  MISS:     927904  HIT %:    3.04479  MISS %:    96.9552   MPKI: 18.5581
L2C PREFETCH  ACCESS:    1148161  HIT:     664180  MISS:     483981  HIT %:    57.8473  MISS %:    42.1527   MPKI: 9.67962
L2C DATA PREFETCH MPKI: 9.67962
L2C INSTRUCTION PREFETCH MPKI: 0
L2C WRITEBACK ACCESS:    1149602  HIT:    1147766  MISS:       1836  HIT %:    99.8403  MISS %:   0.159707   MPKI: 0.03672
L2C LOAD TRANSLATION ACCESS:      51342  HIT:      21742  MISS:      29600  HIT %:    42.3474  MISS %:    57.6526   MPKI: 0.592
L2C PREFETCH  REQUESTED:     948409  ISSUED:     948407  USEFUL:      54437  USELESS:     429536
L2C USEFUL LOAD PREFETCHES:      54437 PREFETCH ISSUED TO LOWER LEVEL:     489327  ACCURACY: 11.1249
L2C TIMELY PREFETCHES:      54437 LATE PREFETCHES: 5346 DROPPED PREFETCHES: 0
L2C PREFETCHES SAME FILL-ORIGIN LEVEL: 397322 DIFFERENT FILL-ORIGIN LEVEL: 0
L2C AVERAGE MISS LATENCY: 130.811 cycles
L2C RQ	ACCESS:    3919147	FORWARD:          0	MERGED:          0	TO_CACHE:    3919124
L2C WQ	ACCESS:    1149603	FORWARD:         23	MERGED:          0	TO_CACHE:    1149603
L2C PQ	ACCESS:    1375187	FORWARD:          0	MERGED:      50418	TO_CACHE:    1324769

L2C Instructions Evicting Data 127521
L2C Translations Evicting Data 26886
L2C Data Evicting Data 1556053
L2C Instructions Evicting Instructions 9964
L2C Translations Evicting Instructions 2281
L2C Data Evicting Instructions 127360
L2C Instructions Evicting Translations 2313
L2C Translations Evicting Translations 433
L2C Data Evicting Translations 26801
L2C Dense regions hint from L2: 0
PSCL5 TOTAL     ACCESS:      38717  HIT:      38717  MISS:          0  HIT %:        100  MISS %:          0   MPKI: 0
PSCL5 LOAD TRANSLATION ACCESS:      38717  HIT:      38717  MISS:          0  HIT %:        100  MISS %:          0   MPKI: 0
PSCL5 PREFETCH  REQUESTED:          0  ISSUED:          0  USEFUL:          0  USELESS:          0
PSCL5 USEFUL LOAD PREFETCHES:          0 PREFETCH ISSUED TO LOWER LEVEL:          0  ACCURACY: -nan
PSCL5 TIMELY PREFETCHES:          0 LATE PREFETCHES: 0 DROPPED PREFETCHES: 0
PSCL5 PREFETCHES SAME FILL-ORIGIN LEVEL: 0 DIFFERENT FILL-ORIGIN LEVEL: 0

PSCL4 TOTAL     ACCESS:      37696  HIT:      37573  MISS:        123  HIT %:    99.6737  MISS %:   0.326295   MPKI: 0.00246
PSCL4 LOAD TRANSLATION ACCESS:      37696  HIT:      37573  MISS:        123  HIT %:    99.6737  MISS %:   0.326295   MPKI: 0.00246
PSCL4 PREFETCH  REQUESTED:          0  ISSUED:          0  USEFUL:          0  USELESS:          0
PSCL4 USEFUL LOAD PREFETCHES:          0 PREFETCH ISSUED TO LOWER LEVEL:          0  ACCURACY: -nan
PSCL4 TIMELY PREFETCHES:          0 LATE PREFETCHES: 0 DROPPED PREFETCHES: 0
PSCL4 PREFETCHES SAME FILL-ORIGIN LEVEL: 0 DIFFERENT FILL-ORIGIN LEVEL: 0

PSCL3 TOTAL     ACCESS:      38387  HIT:      37863  MISS:        524  HIT %:     98.635  MISS %:    1.36505   MPKI: 0.01048
PSCL3 LOAD TRANSLATION ACCESS:      38387  HIT:      37863  MISS:        524  HIT %:     98.635  MISS %:    1.36505   MPKI: 0.01048
PSCL3 PREFETCH  REQUESTED:          0  ISSUED:          0  USEFUL:          0  USELESS:          0
PSCL3 USEFUL LOAD PREFETCHES:          0 PREFETCH ISSUED TO LOWER LEVEL:          0  ACCURACY: -nan
PSCL3 TIMELY PREFETCHES:          0 LATE PREFETCHES: 0 DROPPED PREFETCHES: 0
PSCL3 PREFETCHES SAME FILL-ORIGIN LEVEL: 0 DIFFERENT FILL-ORIGIN LEVEL: 0

PSCL2 TOTAL     ACCESS:      38717  HIT:      26707  MISS:      12010  HIT %:      68.98  MISS %:      31.02   MPKI: 0.2402
PSCL2 LOAD TRANSLATION ACCESS:      38717  HIT:      26707  MISS:      12010  HIT %:      68.98  MISS %:      31.02   MPKI: 0.2402
PSCL2 PREFETCH  REQUESTED:          0  ISSUED:          0  USEFUL:          0  USELESS:          0
PSCL2 USEFUL LOAD PREFETCHES:          0 PREFETCH ISSUED TO LOWER LEVEL:          0  ACCURACY: -nan
PSCL2 TIMELY PREFETCHES:          0 LATE PREFETCHES: 0 DROPPED PREFETCHES: 0
PSCL2 PREFETCHES SAME FILL-ORIGIN LEVEL: 0 DIFFERENT FILL-ORIGIN LEVEL: 0

LLC TOTAL     ACCESS:    2974186  HIT:    1485115  MISS:    1489071  HIT %:    49.9335  MISS %:    50.0665   MPKI: 29.7814
LLC LOAD      ACCESS:     433027  HIT:     388402  MISS:      44625  HIT %:    89.6946  MISS %:    10.3054   MPKI: 0.8925
LLC RFO       ACCESS:     927653  HIT:     318965  MISS:     608688  HIT %:    34.3841  MISS %:    65.6159   MPKI: 12.1738
LLC PREFETCH  ACCESS:     489326  HIT:     273251  MISS:     216075  HIT %:    55.8423  MISS %:    44.1577   MPKI: 4.3215
LLC WRITEBACK ACCESS:    1094580  HIT:     479552  MISS:     615028  HIT %:    43.8115  MISS %:    56.1885   MPKI: 12.3006
LLC LOAD TRANSLATION ACCESS:      29600  HIT:      24945  MISS:       4655  HIT %:    84.2736  MISS %:    15.7264   MPKI: 0.0931
LLC PREFETCH  REQUESTED:          0  ISSUED:          0  USEFUL:       1918  USELESS:     214672
LLC USEFUL LOAD PREFETCHES:       1918 PREFETCH ISSUED TO LOWER LEVEL:     216075  ACCURACY: 0.887655
LLC TIMELY PREFETCHES:       1918 LATE PREFETCHES: 0 DROPPED PREFETCHES: 0
LLC PREFETCHES SAME FILL-ORIGIN LEVEL: 0 DIFFERENT FILL-ORIGIN LEVEL: 0
LLC AVERAGE MISS LATENCY: 126.06 cycles
LLC RQ	ACCESS:    1390286	FORWARD:          0	MERGED:          0	TO_CACHE:    1390281
LLC WQ	ACCESS:    1094581	FORWARD:          6	MERGED:          0	TO_CACHE:    1094581
LLC PQ	ACCESS:     489327	FORWARD:          0	MERGED:          0	TO_CACHE:     489326

LLC Dense regions hint to LLC: 0

RAW hits: 785361
Loads Generated: 12385973
Loads sent to L1D: 11600608
Stores Generated: 8685034
Stores sent to L1D: 8685053
Major fault: 0 Minor fault: 17732
Allocated PAGES: 17732

stream: 
stream:times selected: 2326688
stream:pref_filled: 91858
stream:pref_useful: 12651
stream:pref_late: 2118
stream:misses: 19765
stream:misses_by_poll: 0

CS: 
CS:times selected: 2001077
CS:pref_filled: 384357
CS:pref_useful: 366969
CS:pref_late: 18281
CS:misses: 50076
CS:misses_by_poll: 613

CPLX: 
CPLX:times selected: 318423
CPLX:pref_filled: 33534
CPLX:pref_useful: 1521
CPLX:pref_late: 149
CPLX:misses: 62214
CPLX:misses_by_poll: 42

NL_L1: 
NL:times selected: 1171
NL:pref_filled: 376
NL:pref_useful: 27
NL:pref_late: 14
NL:misses: 407
NL:misses_by_poll: 0

total selections: 4647359
total_filled: 426762
total_useful: 316574
total_late: 21574
total_polluted: 655
total_misses_after_warmup: 608360
conflicts: 2699268
Degree Incremented Times: 21886
Degree Decremented Times: 173734

L1 IP Table Write Accesses: 5235646
L1 IP Table Read Accesses: 2536378
L1 RST Write Accesses: 1934396
L1 RST Read Accesses: 3868792
L1 CSPT Write Accesses: 1934396
L1 CSPT Read Accesses: 2197636
L1 RR Filter Tag Write Accesses: 765330
L1 RR Filter Tag Read Accesses: 213214280
L1 IP Table Tag Write Accesses: 8108218
L1 IP Table Tag Read Accesses: 8108218
L1 RST Tag Write Accesses: 0
L1 RST Tag Read Accesses: 17740413
L1 RR Filter Write Accesses: 0
L1 RR Filter Read Accesses: 6949729
test: 164658
L2 IP Table Read Accesses: 1331150
L2 IP Table Write Accesses: 1413520
L2 IP Table Tag Read Accesses: 833155
L2 IP Table Tag Write Accesses: 833155

DRAM Statistics
 CHANNEL 0
 RQ ROW_BUFFER_HIT:     452945  ROW_BUFFER_MISS:     421094
 DBUS_CONGESTED:        697
 WQ ROW_BUFFER_HIT:     265038  ROW_BUFFER_MISS:     378683  FULL:      19939

 AVG_CONGESTED_CYCLE: 3
 All warmup complete: 2
Channel 0 Bank busy for read cycles: 0
Channel 0 Bank busy for write cycles: 0
Channel 0
Rank 0
0banks busy for read cycles: 50590033
0banks busy for write cycles: 78982
1banks busy for read cycles: 12700612
1banks busy for write cycles: 9753457
2banks busy for read cycles: 5247143
2banks busy for write cycles: 4424898
3banks busy for read cycles: 2772165
3banks busy for write cycles: 2368336
4banks busy for read cycles: 2746243
4banks busy for write cycles: 1490720
5banks busy for read cycles: 428517
5banks busy for write cycles: 1055788
6banks busy for read cycles: 522710
6banks busy for write cycles: 867337
7banks busy for read cycles: 950856
7banks busy for write cycles: 1154084
8banks busy for read cycles: 4093314
8banks busy for write cycles: 5355439

CPU 0 Branch Prediction Accuracy: 96.293% MPKI: 6.14724 Average ROB Occupancy at Mispredict: 46.6342
Branch types
NOT_BRANCH: 41708620 83.4172%
BRANCH_DIRECT_JUMP: 456444 0.912888%
BRANCH_INDIRECT: 50083 0.100166%
BRANCH_CONDITIONAL: 5963860 11.9277%
BRANCH_DIRECT_CALL: 742789 1.48558%
BRANCH_INDIRECT_CALL: 167677 0.335354%
BRANCH_RETURN: 910472 1.82094%
BRANCH_OTHER: 0 0%

@sumon_overall_L1D    316574     53996     53996    110185    426762   1527075   1528855
@Sumon_Early_by_class_L1D      9654    304934      1212        14
@Sumon_Late_by_class_L1D      1605     18188       105        14

@Sumon_Early_by_cycle_L1D     80630    228468      1446       123       265      1002       426       241      2233      1571        87        82
@Sumon_Late_by_cycle_L1D     13534      2045       610      3706      1025         0
@Sumon_Early_stream_L1D      6833       273       152        26        68       577       167        37       134      1232        78        77
@Sumon_Early_CS_L1D     72909    228005      1227        34       139       140        96       144      2055       182         3         0
@Sumon_Early_CPLX_L1D       326        79        35        61        54       273       151        53        43       127         5         5
@Sumon_Late_stream_L1D       264       424        14        64       839         0
@Sumon_Late_CS_L1D     13169      1513       568      2884        54         0
@Sumon_Late_CPLX_L1D        20        15         6         9        55         0
@sumon_overall_L2C     54437      5346         0    429536    483981    948407    948409
@Sumon_Early_by_class_L2C      1907      2407       450         0
@Sumon_Late_by_class_L2C         0       419         0         0

@Sumon_Early_by_cycle_L2C      6904      5365      6976       870      5127      8764      2583       885      3807      2812      2176      8168
@Sumon_Late_by_cycle_L2C       895      1092       763       607      1989         0
@Sumon_Early_stream_L2C         0         0         0         0         0         0         2        17         8       408       489       983
@Sumon_Early_CS_L2C      1047       346        72        11         2        35        26        49       182       223        88       326
@Sumon_Early_CPLX_L2C         0         0         0         0         0         0        13        93         1        26        42       275
@Sumon_Late_stream_L2C         0         0         0         0         0         0
@Sumon_Late_CS_L2C         0        12        40       297        70         0
@Sumon_Late_CPLX_L2C         0         0         0         0         0         0
DRAM PAGES: 1048576
Allocated PAGES: 17732
