
*** ChampSim Multicore Out-of-Order Simulator ***

Warmup Instructions: 10000000
Simulation Instructions: 50000000
Number of CPUs: 1
LLC sets: 2048
LLC ways: 16
Off-chip DRAM Size: 4096 MB Channels: 1 Width: 64-bit Data Rate: 6400 MT/s
CPU 0 runs traces/graph/bf_94B.trace.gz
.gz
CPU 0 Bimodal branch predictor
BTB has LRU replacement policy
ITLB has LRU replacement policy
DTLB has LRU replacement policy
STLB has LRU replacement policy
L1I has LRU replacement policy
IP Table Entries: 256
L1D has LRU replacement policy
IP_Table L2 entries: 256
L2C has LRU replacement policy
LLC has LRU replacement policy
Heartbeat CPU 0 instructions: 10000002 cycles: 3254670 heartbeat IPC: 3.07251 cumulative IPC: 3.07251 (Simulation time: 0 hr 3 min 57 sec) 

Warmup complete CPU 0 instructions: 10000002 cycles: 3254670 (Simulation time: 0 hr 3 min 57 sec) 

Heartbeat CPU 0 instructions: 20000002 cycles: 84934554 heartbeat IPC: 0.122429 cumulative IPC: 0.122429 (Simulation time: 0 hr 25 min 21 sec) 
Heartbeat CPU 0 instructions: 30000001 cycles: 161189197 heartbeat IPC: 0.13114 cumulative IPC: 0.126635 (Simulation time: 0 hr 49 min 10 sec) 
Heartbeat CPU 0 instructions: 40000001 cycles: 241948653 heartbeat IPC: 0.123825 cumulative IPC: 0.125684 (Simulation time: 1 hr 12 min 34 sec) 
Heartbeat CPU 0 instructions: 50000000 cycles: 323702212 heartbeat IPC: 0.122319 cumulative IPC: 0.124825 (Simulation time: 1 hr 34 min 23 sec) 
Heartbeat CPU 0 instructions: 60000000 cycles: 410964868 heartbeat IPC: 0.114597 cumulative IPC: 0.122636 (Simulation time: 1 hr 51 min 42 sec) 
Finished CPU 0 instructions: 50000000 cycles: 407710205 cumulative IPC: 0.122636 (Simulation time: 1 hr 51 min 42 sec) 

ChampSim completed all CPUs

Region of Interest Statistics

CPU 0 cumulative IPC: 0.122636 instructions: 50000000 cycles: 407710205
ITLB TOTAL     ACCESS:    7089344  HIT:    7089344  MISS:          0  HIT %:        100  MISS %:          0   MPKI: 0
ITLB LOAD TRANSLATION ACCESS:    7089344  HIT:    7089344  MISS:          0  HIT %:        100  MISS %:          0   MPKI: 0
ITLB PREFETCH  REQUESTED:          0  ISSUED:          0  USEFUL:          0  USELESS:          0
ITLB USEFUL LOAD PREFETCHES:          0 PREFETCH ISSUED TO LOWER LEVEL:          0  ACCURACY: -nan
ITLB TIMELY PREFETCHES:          0 LATE PREFETCHES: 0 DROPPED PREFETCHES: 0
ITLB PREFETCHES SAME FILL-ORIGIN LEVEL: 0 DIFFERENT FILL-ORIGIN LEVEL: 0
ITLB AVERAGE MISS LATENCY: -nan cycles
ITLB RQ	ACCESS:    8034731	FORWARD:          0	MERGED:     945387	TO_CACHE:    7089344

DTLB TOTAL     ACCESS:   13493161  HIT:   10297676  MISS:    3195485  HIT %:    76.3177  MISS %:    23.6823   MPKI: 63.9097
DTLB LOAD TRANSLATION ACCESS:   13493161  HIT:   10297676  MISS:    3195485  HIT %:    76.3177  MISS %:    23.6823   MPKI: 63.9097
DTLB PREFETCH  REQUESTED:          0  ISSUED:          0  USEFUL:          0  USELESS:          0
DTLB USEFUL LOAD PREFETCHES:          0 PREFETCH ISSUED TO LOWER LEVEL:          0  ACCURACY: -nan
DTLB TIMELY PREFETCHES:          0 LATE PREFETCHES: 0 DROPPED PREFETCHES: 0
DTLB PREFETCHES SAME FILL-ORIGIN LEVEL: 0 DIFFERENT FILL-ORIGIN LEVEL: 0
DTLB AVERAGE MISS LATENCY: 55.7233 cycles
DTLB RQ	ACCESS:   13722016	FORWARD:          0	MERGED:     225147	TO_CACHE:   13496869

STLB TOTAL     ACCESS:    6330197  HIT:    4385352  MISS:    1944845  HIT %:    69.2767  MISS %:    30.7233   MPKI: 38.8969
STLB LOAD TRANSLATION ACCESS:    3195485  HIT:    1252398  MISS:    1943087  HIT %:    39.1927  MISS %:    60.8073   MPKI: 38.8617
STLB TRANSLATION FROM L1D PREFETCHER ACCESS:    3134712  HIT:    3132954  MISS:       1758  HIT %:    99.9439  MISS %:  0.0560817   MPKI: 0.03516
STLB PREFETCH  REQUESTED:          0  ISSUED:          0  USEFUL:       1672  USELESS:         86
STLB USEFUL LOAD PREFETCHES:       1672 PREFETCH ISSUED TO LOWER LEVEL:          0  ACCURACY: inf
STLB TIMELY PREFETCHES:       1672 LATE PREFETCHES: 1 DROPPED PREFETCHES: 0
STLB PREFETCHES SAME FILL-ORIGIN LEVEL: 0 DIFFERENT FILL-ORIGIN LEVEL: 0
STLB AVERAGE MISS LATENCY: 76.2099 cycles
STLB RQ	ACCESS:    6748405	FORWARD:          0	MERGED:     418169	TO_CACHE:    6330236

STLB Hit, L1D data hit: 0
STLB Hit, L2C data hit: 0
STLB Hit, LLC data hit: 0
STLB Hit, LLC data miss: 0
STLB STLB hints to L2: 0
L1D TOTAL     ACCESS:   17235563  HIT:   10751807  MISS:    6483756  HIT %:    62.3815  MISS %:    37.6185   MPKI: 129.675
L1D LOAD      ACCESS:   12711041  HIT:    9712423  MISS:    2998618  HIT %:    76.4093  MISS %:    23.5907   MPKI: 59.9724
L1D RFO       ACCESS:     980167  HIT:     678687  MISS:     301480  HIT %:     69.242  MISS %:     30.758   MPKI: 6.0296
L1D PREFETCH  ACCESS:    3544355  HIT:     360697  MISS:    3183658  HIT %:    10.1767  MISS %:    89.8233   MPKI: 63.6732
L1D PREFETCH  REQUESTED:    7105842  ISSUED:    7105842  USEFUL:     656614  USELESS:    2527065
L1D USEFUL LOAD PREFETCHES:     656614 PREFETCH ISSUED TO LOWER LEVEL:    3186690  ACCURACY: 20.6049
L1D TIMELY PREFETCHES:     656614 LATE PREFETCHES: 3030 DROPPED PREFETCHES: 0
L1D PREFETCHES SAME FILL-ORIGIN LEVEL: 3186690 DIFFERENT FILL-ORIGIN LEVEL: 0
L1D AVERAGE MISS LATENCY: 84127.5 cycles
L1D RQ	ACCESS:   19137029	FORWARD:          0	MERGED:    6395208	TO_CACHE:   12741821
L1D WQ	ACCESS:     980195	FORWARD:          0	MERGED:          0	TO_CACHE:     980195
L1D PQ	ACCESS:    3552921	FORWARD:          0	MERGED:          0	TO_CACHE:    3552921

L1D UNIQUE REGIONS ACCESSED: 0
L1D REGIONS CONFLICTS: 0
L1D Cross Page Prefetch Requests: 0
L1D Same Page Prefetch Requests: 4276633
L1D ROI Sum of L1D PQ occupancy: 47354560
L1D PREFETCHES PUSHED FROM L2C: 0
L1I TOTAL     ACCESS:    8034731  HIT:    8034731  MISS:          0  HIT %:        100  MISS %:          0   MPKI: 0
L1I LOAD      ACCESS:    8034731  HIT:    8034731  MISS:          0  HIT %:        100  MISS %:          0   MPKI: 0
L1I PREFETCH  REQUESTED:          0  ISSUED:          0  USEFUL:          0  USELESS:          0
L1I USEFUL LOAD PREFETCHES:          0 PREFETCH ISSUED TO LOWER LEVEL:          0  ACCURACY: -nan
L1I TIMELY PREFETCHES:          0 LATE PREFETCHES: 0 DROPPED PREFETCHES: 0
L1I PREFETCHES SAME FILL-ORIGIN LEVEL: 0 DIFFERENT FILL-ORIGIN LEVEL: 0
L1I AVERAGE MISS LATENCY: -nan cycles
L1I RQ	ACCESS:   12758659	FORWARD:          0	MERGED:    4723928	TO_CACHE:    8034731

BTB TOTAL     ACCESS:    7642883  HIT:    7642876  MISS:          7  HIT %:    99.9999  MISS %: 9.15885e-05   MPKI: 0.00014
BTB BRANCH_DIRECT_JUMP	ACCESS:     389208  HIT:     389207  MISS:          1
BTB BRANCH_INDIRECT	ACCESS:          0  HIT:          0  MISS:          0
BTB BRANCH_CONDITIONAL	ACCESS:    7253675  HIT:    7253669  MISS:          6
BTB BRANCH_DIRECT_CALL	ACCESS:          0  HIT:          0  MISS:          0
BTB BRANCH_INDIRECT_CALL	ACCESS:          0  HIT:          0  MISS:          0
BTB BRANCH_RETURN	ACCESS:          0  HIT:          0  MISS:          0
BTB BRANCH_OTHER ACCESS:          0  HIT:          0  MISS:          0

L2C TOTAL     ACCESS:   11587578  HIT:    5403758  MISS:    6183820  HIT %:    46.6341  MISS %:    53.3659   MPKI: 123.676
L2C LOAD      ACCESS:    2995582  HIT:     436736  MISS:    2558846  HIT %:    14.5793  MISS %:    85.4207   MPKI: 51.1769
L2C DATA LOAD MPKI: 51.1769
L2C INSTRUCTION LOAD MPKI: 0
L2C RFO       ACCESS:     301476  HIT:      11169  MISS:     290307  HIT %:    3.70477  MISS %:    96.2952   MPKI: 5.80614
L2C PREFETCH  ACCESS:    4816318  HIT:    1940799  MISS:    2875519  HIT %:    40.2963  MISS %:    59.7037   MPKI: 57.5104
L2C DATA PREFETCH MPKI: 57.5104
L2C INSTRUCTION PREFETCH MPKI: 0
L2C WRITEBACK ACCESS:     973221  HIT:     973144  MISS:         77  HIT %:    99.9921  MISS %: 0.00791187   MPKI: 0.00154
L2C LOAD TRANSLATION ACCESS:    2499011  HIT:    2039964  MISS:     459047  HIT %:    81.6309  MISS %:    18.3691   MPKI: 9.18094
L2C TRANSLATION FROM L1D PREFETCHER ACCESS:       1970  HIT:       1946  MISS:         24  HIT %:    98.7817  MISS %:    1.21827   MPKI: 0.00048
L2C PREFETCH  REQUESTED:    1892763  ISSUED:    1892757  USEFUL:     148740  USELESS:    2726820
L2C USEFUL LOAD PREFETCHES:     148740 PREFETCH ISSUED TO LOWER LEVEL:    2876002  ACCURACY: 5.17176
L2C TIMELY PREFETCHES:     148740 LATE PREFETCHES: 483 DROPPED PREFETCHES: 0
L2C PREFETCHES SAME FILL-ORIGIN LEVEL: 639174 DIFFERENT FILL-ORIGIN LEVEL: 0
L2C AVERAGE MISS LATENCY: 215.985 cycles
L2C RQ	ACCESS:    5798050	FORWARD:          0	MERGED:          0	TO_CACHE:    5798040
L2C WQ	ACCESS:     973221	FORWARD:         12	MERGED:          0	TO_CACHE:     973221
L2C PQ	ACCESS:    5079440	FORWARD:          0	MERGED:     222002	TO_CACHE:    4857436

L2C Instructions Evicting Data 0
L2C Translations Evicting Data 424983
L2C Data Evicting Data 5299845
L2C Instructions Evicting Instructions 0
L2C Translations Evicting Instructions 0
L2C Data Evicting Instructions 0
L2C Instructions Evicting Translations 0
L2C Translations Evicting Translations 34088
L2C Data Evicting Translations 424827
L2C Dense regions hint from L2: 0
PSCL5 TOTAL     ACCESS:    1944844  HIT:    1944844  MISS:          0  HIT %:        100  MISS %:          0   MPKI: 0
PSCL5 LOAD TRANSLATION ACCESS:    1943085  HIT:    1943085  MISS:          0  HIT %:        100  MISS %:          0   MPKI: 0
PSCL5 TRANSLATION FROM L1D PREFETCHER ACCESS:       1759  HIT:       1759  MISS:          0  HIT %:        100  MISS %:          0   MPKI: 0
PSCL5 PREFETCH  REQUESTED:          0  ISSUED:          0  USEFUL:          0  USELESS:          0
PSCL5 USEFUL LOAD PREFETCHES:          0 PREFETCH ISSUED TO LOWER LEVEL:          0  ACCURACY: -nan
PSCL5 TIMELY PREFETCHES:          0 LATE PREFETCHES: 0 DROPPED PREFETCHES: 0
PSCL5 PREFETCHES SAME FILL-ORIGIN LEVEL: 0 DIFFERENT FILL-ORIGIN LEVEL: 0

PSCL4 TOTAL     ACCESS:    1944844  HIT:    1944844  MISS:          0  HIT %:        100  MISS %:          0   MPKI: 0
PSCL4 LOAD TRANSLATION ACCESS:    1943085  HIT:    1943085  MISS:          0  HIT %:        100  MISS %:          0   MPKI: 0
PSCL4 TRANSLATION FROM L1D PREFETCHER ACCESS:       1759  HIT:       1759  MISS:          0  HIT %:        100  MISS %:          0   MPKI: 0
PSCL4 PREFETCH  REQUESTED:          0  ISSUED:          0  USEFUL:          0  USELESS:          0
PSCL4 USEFUL LOAD PREFETCHES:          0 PREFETCH ISSUED TO LOWER LEVEL:          0  ACCURACY: -nan
PSCL4 TIMELY PREFETCHES:          0 LATE PREFETCHES: 0 DROPPED PREFETCHES: 0
PSCL4 PREFETCHES SAME FILL-ORIGIN LEVEL: 0 DIFFERENT FILL-ORIGIN LEVEL: 0

PSCL3 TOTAL     ACCESS:    1944844  HIT:    1944844  MISS:          0  HIT %:        100  MISS %:          0   MPKI: 0
PSCL3 LOAD TRANSLATION ACCESS:    1943085  HIT:    1943085  MISS:          0  HIT %:        100  MISS %:          0   MPKI: 0
PSCL3 TRANSLATION FROM L1D PREFETCHER ACCESS:       1759  HIT:       1759  MISS:          0  HIT %:        100  MISS %:          0   MPKI: 0
PSCL3 PREFETCH  REQUESTED:          0  ISSUED:          0  USEFUL:          0  USELESS:          0
PSCL3 USEFUL LOAD PREFETCHES:          0 PREFETCH ISSUED TO LOWER LEVEL:          0  ACCURACY: -nan
PSCL3 TIMELY PREFETCHES:          0 LATE PREFETCHES: 0 DROPPED PREFETCHES: 0
PSCL3 PREFETCHES SAME FILL-ORIGIN LEVEL: 0 DIFFERENT FILL-ORIGIN LEVEL: 0

PSCL2 TOTAL     ACCESS:    1944845  HIT:    1388686  MISS:     556159  HIT %:    71.4034  MISS %:    28.5966   MPKI: 11.1232
PSCL2 LOAD TRANSLATION ACCESS:    1943297  HIT:    1387138  MISS:     556159  HIT %:    71.3806  MISS %:    28.6194   MPKI: 11.1232
PSCL2 TRANSLATION FROM L1D PREFETCHER ACCESS:       1548  HIT:       1548  MISS:          0  HIT %:        100  MISS %:          0   MPKI: 0
PSCL2 PREFETCH  REQUESTED:          0  ISSUED:          0  USEFUL:          0  USELESS:          0
PSCL2 USEFUL LOAD PREFETCHES:          0 PREFETCH ISSUED TO LOWER LEVEL:          0  ACCURACY: -nan
PSCL2 TIMELY PREFETCHES:          0 LATE PREFETCHES: 0 DROPPED PREFETCHES: 0
PSCL2 PREFETCHES SAME FILL-ORIGIN LEVEL: 0 DIFFERENT FILL-ORIGIN LEVEL: 0

LLC TOTAL     ACCESS:    7136181  HIT:    2063227  MISS:    5072954  HIT %:    28.9122  MISS %:    71.0878   MPKI: 101.459
LLC LOAD      ACCESS:    2558360  HIT:     426811  MISS:    2131549  HIT %:     16.683  MISS %:     83.317   MPKI: 42.631
LLC RFO       ACCESS:     290303  HIT:      19514  MISS:     270789  HIT %:    6.72194  MISS %:    93.2781   MPKI: 5.41578
LLC PREFETCH  ACCESS:    2876002  HIT:     362481  MISS:    2513521  HIT %:    12.6036  MISS %:    87.3964   MPKI: 50.2704
LLC WRITEBACK ACCESS:     952445  HIT:     951750  MISS:        695  HIT %:     99.927  MISS %:  0.0729701   MPKI: 0.0139
LLC LOAD TRANSLATION ACCESS:     459047  HIT:     302656  MISS:     156391  HIT %:    65.9314  MISS %:    34.0686   MPKI: 3.12782
LLC TRANSLATION FROM L1D PREFETCHER ACCESS:         24  HIT:         15  MISS:          9  HIT %:       62.5  MISS %:       37.5   MPKI: 0.00018
LLC PREFETCH  REQUESTED:          0  ISSUED:          0  USEFUL:     143971  USELESS:    2368654
LLC USEFUL LOAD PREFETCHES:     143971 PREFETCH ISSUED TO LOWER LEVEL:    2513521  ACCURACY: 5.72786
LLC TIMELY PREFETCHES:     143971 LATE PREFETCHES: 0 DROPPED PREFETCHES: 0
LLC PREFETCHES SAME FILL-ORIGIN LEVEL: 0 DIFFERENT FILL-ORIGIN LEVEL: 0
LLC AVERAGE MISS LATENCY: 226.544 cycles
LLC RQ	ACCESS:    3307741	FORWARD:          0	MERGED:          0	TO_CACHE:    3307734
LLC WQ	ACCESS:     952445	FORWARD:          7	MERGED:          0	TO_CACHE:     952445
LLC PQ	ACCESS:    2876002	FORWARD:          0	MERGED:          0	TO_CACHE:    2876002

LLC Dense regions hint to LLC: 0

RAW hits: 0
Loads Generated: 19137030
Loads sent to L1D: 19137029
Stores Generated: 980194
Stores sent to L1D: 980195
Major fault: 0 Minor fault: 49786
Allocated PAGES: 49786

stream: 
stream:times selected: 5549770
stream:pref_filled: 2872066
stream:pref_useful: 53452
stream:pref_late: 766
stream:misses: 1028727
stream:misses_by_poll: 0

CS: 
CS:times selected: 1768434
CS:pref_filled: 832504
CS:pref_useful: 726219
CS:pref_late: 3025
CS:misses: 78708
CS:misses_by_poll: 1928

CPLX: 
CPLX:times selected: 3656151
CPLX:pref_filled: 125624
CPLX:pref_useful: 2452
CPLX:pref_late: 22
CPLX:misses: 2532739
CPLX:misses_by_poll: 130

NL_L1: 
NL:times selected: 4478
NL:pref_filled: 3683
NL:pref_useful: 80
NL:pref_late: 1
NL:misses: 4381
NL:misses_by_poll: 0

total selections: 10978833
total_filled: 3183658
total_useful: 656614
total_late: 3897
total_polluted: 2058
total_misses_after_warmup: 3029401
conflicts: 0
Degree Incremented Times: 59305
Degree Decremented Times: 134004

L1 IP Table Write Accesses: 12741824
L1 IP Table Read Accesses: 12741824
L1 RST Write Accesses: 4676308
L1 RST Read Accesses: 9352616
L1 CSPT Write Accesses: 4676308
L1 CSPT Read Accesses: 7720824
L1 RR Filter Tag Write Accesses: 3552921
L1 RR Filter Tag Read Accesses: 229361130
L1 IP Table Tag Write Accesses: 12741824
L1 IP Table Tag Read Accesses: 12741824
L1 RST Tag Write Accesses: 0
L1 RST Tag Read Accesses: 42678081
L1 RR Filter Write Accesses: 0
L1 RR Filter Read Accesses: 9253328
test: 2800232
L2 IP Table Read Accesses: 12158198
L2 IP Table Write Accesses: 9162616
L2 IP Table Tag Read Accesses: 6079099
L2 IP Table Tag Write Accesses: 6079099

DRAM Statistics
 CHANNEL 0
 RQ ROW_BUFFER_HIT:      92503  ROW_BUFFER_MISS:    4979403
 DBUS_CONGESTED:        359
 WQ ROW_BUFFER_HIT:     458843  ROW_BUFFER_MISS:     457047  FULL:          0

 AVG_CONGESTED_CYCLE: 4
 All warmup complete: 2
Channel 0 Bank busy for read cycles: 0
Channel 0 Bank busy for write cycles: 0
Channel 0
Rank 0
0banks busy for read cycles: 8999488
0banks busy for write cycles: 66432
1banks busy for read cycles: 99782926
1banks busy for write cycles: 15507810
2banks busy for read cycles: 90528884
2banks busy for write cycles: 19685869
3banks busy for read cycles: 51393921
3banks busy for write cycles: 19107368
4banks busy for read cycles: 33301679
4banks busy for write cycles: 15571974
5banks busy for read cycles: 18620216
5banks busy for write cycles: 10671548
6banks busy for read cycles: 9501255
6banks busy for write cycles: 6358934
7banks busy for read cycles: 3650918
7banks busy for write cycles: 3053264
8banks busy for read cycles: 957278
8banks busy for write cycles: 950442

CPU 0 Branch Prediction Accuracy: 87.5765% MPKI: 21.333 Average ROB Occupancy at Mispredict: 27.3024
Branch types
NOT_BRANCH: 41413878 82.8278%
BRANCH_DIRECT_JUMP: 389208 0.778416%
BRANCH_INDIRECT: 0 0%
BRANCH_CONDITIONAL: 8196553 16.3931%
BRANCH_DIRECT_CALL: 0 0%
BRANCH_INDIRECT_CALL: 0 0%
BRANCH_RETURN: 0 0%
BRANCH_OTHER: 0 0%

@sumon_overall_L1D    656614      3030   2527065   3183658   7105842   7105842
@Sumon_Early_by_class_L1D     44324    610232      2058         0
@Sumon_Late_by_class_L1D       493      2462        20         0

@Sumon_Early_by_cycle_L1D      5718      3347      9604     13224     16568    179142    260795    109297     28757     19896      7070      3196
@Sumon_Late_by_cycle_L1D       811      1972       245         2         0         0         0         0         0         0         0         0
@Sumon_Early_stream_L1D      2138       580      1816      1784      1524      5363      4460      6223      7405      7976      4156       899
@Sumon_Early_CS_L1D      3552      2745      7733     11370     14987    173562    256139    102795     20960     11452      2687      2250
@Sumon_Early_CPLX_L1D        28        22        55        70        57       217       196       279       392       468       227        47
@Sumon_Late_stream_L1D       309       162        21         1         0         0         0         0         0         0         0         0
@Sumon_Late_CS_L1D       435      1804       223         0         0         0         0         0         0         0         0         0
@Sumon_Late_CPLX_L1D        12         6         1         1         0         0         0         0         0         0         0         0
@sumon_overall_L2C    148740       483   2726820   2875543   1892757   1892763
@Sumon_Early_by_class_L2C    122958     20300      5481         0
@Sumon_Late_by_class_L2C         0       470         0         0

@Sumon_Early_by_cycle_L2C       146       251       720       864       873      4760      3033      3011      7418     17413     20838     89413
@Sumon_Late_by_cycle_L2C        79       360        44         0         0         0         0         0         0         0         0         0
@Sumon_Early_stream_L2C         0         0         0         0         0         2       189      1812      6566     15163     17941     81285
@Sumon_Early_CS_L2C       146       251       720       864       873      4758      2840      1152       662      1709      2155      4170
@Sumon_Early_CPLX_L2C         0         0         0         0         0         0         4        47       190       540       742      3958
@Sumon_Late_stream_L2C         0         0         0         0         0         0         0         0         0         0         0         0
@Sumon_Late_CS_L2C        66       360        44         0         0         0         0         0         0         0         0         0
@Sumon_Late_CPLX_L2C         0         0         0         0         0         0         0         0         0         0         0         0
DRAM PAGES: 1048576
Allocated PAGES: 49786
