
*** ChampSim Multicore Out-of-Order Simulator ***

Warmup Instructions: 10000000
Simulation Instructions: 50000000
Number of CPUs: 1
LLC sets: 2048
LLC ways: 16
Off-chip DRAM Size: 4096 MB Channels: 1 Width: 64-bit Data Rate: 6400 MT/s
CPU 0 runs traces/graph/canneal_44B.trace.gz
.gz
CPU 0 Bimodal branch predictor
BTB has LRU replacement policy
ITLB has LRU replacement policy
DTLB has LRU replacement policy
STLB has LRU replacement policy
L1I has LRU replacement policy
IP Table Entries: 256
L1D has LRU replacement policy
IP_Table L2 entries: 256
L2C has LRU replacement policy
LLC has LRU replacement policy
Heartbeat CPU 0 instructions: 10000002 cycles: 3286084 heartbeat IPC: 3.04314 cumulative IPC: 3.04314 (Simulation time: 0 hr 2 min 36 sec) 

Warmup complete CPU 0 instructions: 10000002 cycles: 3286084 (Simulation time: 0 hr 2 min 36 sec) 

Heartbeat CPU 0 instructions: 20000001 cycles: 67384202 heartbeat IPC: 0.156011 cumulative IPC: 0.156011 (Simulation time: 0 hr 19 min 59 sec) 
Heartbeat CPU 0 instructions: 30000001 cycles: 130864159 heartbeat IPC: 0.15753 cumulative IPC: 0.156767 (Simulation time: 0 hr 42 min 18 sec) 
Heartbeat CPU 0 instructions: 40000000 cycles: 193983868 heartbeat IPC: 0.158429 cumulative IPC: 0.157317 (Simulation time: 1 hr 4 min 39 sec) 
Heartbeat CPU 0 instructions: 50000001 cycles: 256967928 heartbeat IPC: 0.15877 cumulative IPC: 0.157678 (Simulation time: 1 hr 26 min 13 sec) 
Heartbeat CPU 0 instructions: 60000000 cycles: 319881073 heartbeat IPC: 0.158949 cumulative IPC: 0.15793 (Simulation time: 1 hr 45 min 10 sec) 
Finished CPU 0 instructions: 50000002 cycles: 316594990 cumulative IPC: 0.15793 (Simulation time: 1 hr 45 min 10 sec) 

ChampSim completed all CPUs

Region of Interest Statistics

CPU 0 cumulative IPC: 0.15793 instructions: 50000002 cycles: 316594990
ITLB TOTAL     ACCESS:    7621997  HIT:    7621997  MISS:          0  HIT %:        100  MISS %:          0   MPKI: 0
ITLB LOAD TRANSLATION ACCESS:    7621997  HIT:    7621997  MISS:          0  HIT %:        100  MISS %:          0   MPKI: 0
ITLB PREFETCH  REQUESTED:          0  ISSUED:          0  USEFUL:          0  USELESS:          0
ITLB USEFUL LOAD PREFETCHES:          0 PREFETCH ISSUED TO LOWER LEVEL:          0  ACCURACY: -nan
ITLB TIMELY PREFETCHES:          0 LATE PREFETCHES: 0 DROPPED PREFETCHES: 0
ITLB PREFETCHES SAME FILL-ORIGIN LEVEL: 0 DIFFERENT FILL-ORIGIN LEVEL: 0
ITLB AVERAGE MISS LATENCY: -nan cycles
ITLB RQ	ACCESS:   10226199	FORWARD:          0	MERGED:    2604202	TO_CACHE:    7621997

DTLB TOTAL     ACCESS:   11545213  HIT:   10311624  MISS:    1233589  HIT %:    89.3151  MISS %:    10.6849   MPKI: 24.6718
DTLB LOAD TRANSLATION ACCESS:   11545213  HIT:   10311624  MISS:    1233589  HIT %:    89.3151  MISS %:    10.6849   MPKI: 24.6718
DTLB PREFETCH  REQUESTED:          0  ISSUED:          0  USEFUL:          0  USELESS:          0
DTLB USEFUL LOAD PREFETCHES:          0 PREFETCH ISSUED TO LOWER LEVEL:          0  ACCURACY: -nan
DTLB TIMELY PREFETCHES:          0 LATE PREFETCHES: 0 DROPPED PREFETCHES: 0
DTLB PREFETCHES SAME FILL-ORIGIN LEVEL: 0 DIFFERENT FILL-ORIGIN LEVEL: 0
DTLB AVERAGE MISS LATENCY: 94.7393 cycles
DTLB RQ	ACCESS:   12654662	FORWARD:          0	MERGED:    1087640	TO_CACHE:   11567022

STLB TOTAL     ACCESS:    2541469  HIT:    1643874  MISS:     897595  HIT %:     64.682  MISS %:     35.318   MPKI: 17.9519
STLB LOAD TRANSLATION ACCESS:    1233588  HIT:     335993  MISS:     897595  HIT %:    27.2371  MISS %:    72.7629   MPKI: 17.9519
STLB TRANSLATION FROM L1D PREFETCHER ACCESS:    1307881  HIT:    1307881  MISS:          0  HIT %:        100  MISS %:          0   MPKI: 0
STLB PREFETCH  REQUESTED:          0  ISSUED:          0  USEFUL:          0  USELESS:          0
STLB USEFUL LOAD PREFETCHES:          0 PREFETCH ISSUED TO LOWER LEVEL:          0  ACCURACY: -nan
STLB TIMELY PREFETCHES:          0 LATE PREFETCHES: 0 DROPPED PREFETCHES: 0
STLB PREFETCHES SAME FILL-ORIGIN LEVEL: 0 DIFFERENT FILL-ORIGIN LEVEL: 0
STLB AVERAGE MISS LATENCY: 117.829 cycles
STLB RQ	ACCESS:    2702938	FORWARD:          0	MERGED:     161469	TO_CACHE:    2541469

STLB Hit, L1D data hit: 0
STLB Hit, L2C data hit: 0
STLB Hit, LLC data hit: 0
STLB Hit, LLC data miss: 0
STLB STLB hints to L2: 0
L1D TOTAL     ACCESS:   14006406  HIT:   11761082  MISS:    2245324  HIT %:    83.9693  MISS %:    16.0307   MPKI: 44.9065
L1D LOAD      ACCESS:    8788039  HIT:    7725466  MISS:    1062573  HIT %:    87.9089  MISS %:    12.0911   MPKI: 21.2515
L1D RFO       ACCESS:    3767355  HIT:    3767355  MISS:          0  HIT %:        100  MISS %:          0   MPKI: 0
L1D PREFETCH  ACCESS:    1451012  HIT:     268261  MISS:    1182751  HIT %:    18.4879  MISS %:    81.5121   MPKI: 23.655
L1D PREFETCH  REQUESTED:    2938751  ISSUED:    2938751  USEFUL:      46049  USELESS:    1136706
L1D USEFUL LOAD PREFETCHES:      46049 PREFETCH ISSUED TO LOWER LEVEL:    1184053  ACCURACY: 3.8891
L1D TIMELY PREFETCHES:      46049 LATE PREFETCHES: 1301 DROPPED PREFETCHES: 0
L1D PREFETCHES SAME FILL-ORIGIN LEVEL: 1184053 DIFFERENT FILL-ORIGIN LEVEL: 0
L1D AVERAGE MISS LATENCY: 94599.2 cycles
L1D RQ	ACCESS:   13412489	FORWARD:          0	MERGED:    4413825	TO_CACHE:    8887307
L1D WQ	ACCESS:    3768403	FORWARD:     111408	MERGED:       1048	TO_CACHE:    3767355
L1D PQ	ACCESS:    1469401	FORWARD:          0	MERGED:          0	TO_CACHE:    1469350

L1D UNIQUE REGIONS ACCESSED: 0
L1D REGIONS CONFLICTS: 0
L1D Cross Page Prefetch Requests: 0
L1D Same Page Prefetch Requests: 1775102
L1D ROI Sum of L1D PQ occupancy: 19126877
L1D PREFETCHES PUSHED FROM L2C: 0
L1I TOTAL     ACCESS:   10226198  HIT:   10226198  MISS:          0  HIT %:        100  MISS %:          0   MPKI: 0
L1I LOAD      ACCESS:   10226198  HIT:   10226198  MISS:          0  HIT %:        100  MISS %:          0   MPKI: 0
L1I PREFETCH  REQUESTED:          0  ISSUED:          0  USEFUL:          0  USELESS:          0
L1I USEFUL LOAD PREFETCHES:          0 PREFETCH ISSUED TO LOWER LEVEL:          0  ACCURACY: -nan
L1I TIMELY PREFETCHES:          0 LATE PREFETCHES: 0 DROPPED PREFETCHES: 0
L1I PREFETCHES SAME FILL-ORIGIN LEVEL: 0 DIFFERENT FILL-ORIGIN LEVEL: 0
L1I AVERAGE MISS LATENCY: -nan cycles
L1I RQ	ACCESS:   13726208	FORWARD:          0	MERGED:    3500009	TO_CACHE:   10226199

BTB TOTAL     ACCESS:    2690697  HIT:    2591600  MISS:      99097  HIT %:    96.3171  MISS %:    3.68295   MPKI: 1.98194
BTB BRANCH_DIRECT_JUMP	ACCESS:     274203  HIT:     274189  MISS:         14
BTB BRANCH_INDIRECT	ACCESS:      44256  HIT:      44255  MISS:          1
BTB BRANCH_CONDITIONAL	ACCESS:    1701174  HIT:    1701141  MISS:         33
BTB BRANCH_DIRECT_CALL	ACCESS:     335532  HIT:     335522  MISS:         10
BTB BRANCH_INDIRECT_CALL	ACCESS:          0  HIT:          0  MISS:          0
BTB BRANCH_RETURN	ACCESS:     335532  HIT:     236493  MISS:      99039
BTB BRANCH_OTHER ACCESS:          0  HIT:          0  MISS:          0

L2C TOTAL     ACCESS:    4238978  HIT:    1481130  MISS:    2757848  HIT %:    34.9407  MISS %:    65.0593   MPKI: 55.157
L2C LOAD      ACCESS:    1061272  HIT:       4540  MISS:    1056732  HIT %:   0.427789  MISS %:    99.5722   MPKI: 21.1346
L2C DATA LOAD MPKI: 21.1346
L2C INSTRUCTION LOAD MPKI: 0
L2C PREFETCH  ACCESS:    1252077  HIT:      83280  MISS:    1168797  HIT %:    6.65135  MISS %:    93.3487   MPKI: 23.3759
L2C DATA PREFETCH MPKI: 23.3759
L2C INSTRUCTION PREFETCH MPKI: 0
L2C WRITEBACK ACCESS:     483046  HIT:     483040  MISS:          6  HIT %:    99.9988  MISS %: 0.00124212   MPKI: 0.00012
L2C LOAD TRANSLATION ACCESS:    1442583  HIT:     910270  MISS:     532313  HIT %:       63.1  MISS %:       36.9   MPKI: 10.6463
L2C PREFETCH  REQUESTED:      74427  ISSUED:      74427  USEFUL:       2295  USELESS:    1166545
L2C USEFUL LOAD PREFETCHES:       2295 PREFETCH ISSUED TO LOWER LEVEL:    1168801  ACCURACY: 0.196355
L2C TIMELY PREFETCHES:       2295 LATE PREFETCHES: 3 DROPPED PREFETCHES: 0
L2C PREFETCHES SAME FILL-ORIGIN LEVEL: 13284 DIFFERENT FILL-ORIGIN LEVEL: 0
L2C AVERAGE MISS LATENCY: 190.019 cycles
L2C RQ	ACCESS:    2503855	FORWARD:          0	MERGED:          0	TO_CACHE:    2503855
L2C WQ	ACCESS:     483046	FORWARD:          0	MERGED:          0	TO_CACHE:     483046
L2C PQ	ACCESS:    1258480	FORWARD:          0	MERGED:       5711	TO_CACHE:    1252769

L2C Instructions Evicting Data 0
L2C Translations Evicting Data 427973
L2C Data Evicting Data 1797555
L2C Instructions Evicting Instructions 0
L2C Translations Evicting Instructions 0
L2C Data Evicting Instructions 0
L2C Instructions Evicting Translations 0
L2C Translations Evicting Translations 104340
L2C Data Evicting Translations 427974
L2C Dense regions hint from L2: 0
PSCL5 TOTAL     ACCESS:     897595  HIT:     897595  MISS:          0  HIT %:        100  MISS %:          0   MPKI: 0
PSCL5 LOAD TRANSLATION ACCESS:     897595  HIT:     897595  MISS:          0  HIT %:        100  MISS %:          0   MPKI: 0
PSCL5 PREFETCH  REQUESTED:          0  ISSUED:          0  USEFUL:          0  USELESS:          0
PSCL5 USEFUL LOAD PREFETCHES:          0 PREFETCH ISSUED TO LOWER LEVEL:          0  ACCURACY: -nan
PSCL5 TIMELY PREFETCHES:          0 LATE PREFETCHES: 0 DROPPED PREFETCHES: 0
PSCL5 PREFETCHES SAME FILL-ORIGIN LEVEL: 0 DIFFERENT FILL-ORIGIN LEVEL: 0

PSCL4 TOTAL     ACCESS:     897595  HIT:     897595  MISS:          0  HIT %:        100  MISS %:          0   MPKI: 0
PSCL4 LOAD TRANSLATION ACCESS:     897595  HIT:     897595  MISS:          0  HIT %:        100  MISS %:          0   MPKI: 0
PSCL4 PREFETCH  REQUESTED:          0  ISSUED:          0  USEFUL:          0  USELESS:          0
PSCL4 USEFUL LOAD PREFETCHES:          0 PREFETCH ISSUED TO LOWER LEVEL:          0  ACCURACY: -nan
PSCL4 TIMELY PREFETCHES:          0 LATE PREFETCHES: 0 DROPPED PREFETCHES: 0
PSCL4 PREFETCHES SAME FILL-ORIGIN LEVEL: 0 DIFFERENT FILL-ORIGIN LEVEL: 0

PSCL3 TOTAL     ACCESS:     897595  HIT:     897595  MISS:          0  HIT %:        100  MISS %:          0   MPKI: 0
PSCL3 LOAD TRANSLATION ACCESS:     897595  HIT:     897595  MISS:          0  HIT %:        100  MISS %:          0   MPKI: 0
PSCL3 PREFETCH  REQUESTED:          0  ISSUED:          0  USEFUL:          0  USELESS:          0
PSCL3 USEFUL LOAD PREFETCHES:          0 PREFETCH ISSUED TO LOWER LEVEL:          0  ACCURACY: -nan
PSCL3 TIMELY PREFETCHES:          0 LATE PREFETCHES: 0 DROPPED PREFETCHES: 0
PSCL3 PREFETCHES SAME FILL-ORIGIN LEVEL: 0 DIFFERENT FILL-ORIGIN LEVEL: 0

PSCL2 TOTAL     ACCESS:     897595  HIT:     352607  MISS:     544988  HIT %:    39.2835  MISS %:    60.7165   MPKI: 10.8998
PSCL2 LOAD TRANSLATION ACCESS:     897595  HIT:     352607  MISS:     544988  HIT %:    39.2835  MISS %:    60.7165   MPKI: 10.8998
PSCL2 PREFETCH  REQUESTED:          0  ISSUED:          0  USEFUL:          0  USELESS:          0
PSCL2 USEFUL LOAD PREFETCHES:          0 PREFETCH ISSUED TO LOWER LEVEL:          0  ACCURACY: -nan
PSCL2 TIMELY PREFETCHES:          0 LATE PREFETCHES: 0 DROPPED PREFETCHES: 0
PSCL2 PREFETCHES SAME FILL-ORIGIN LEVEL: 0 DIFFERENT FILL-ORIGIN LEVEL: 0

LLC TOTAL     ACCESS:    3237600  HIT:     757857  MISS:    2479743  HIT %:     23.408  MISS %:     76.592   MPKI: 49.5949
LLC LOAD      ACCESS:    1056729  HIT:      15175  MISS:    1041554  HIT %:    1.43604  MISS %:     98.564   MPKI: 20.8311
LLC PREFETCH  ACCESS:    1168800  HIT:      28724  MISS:    1140076  HIT %:    2.45756  MISS %:    97.5424   MPKI: 22.8015
LLC WRITEBACK ACCESS:     479758  HIT:     479327  MISS:        431  HIT %:    99.9102  MISS %:   0.089837   MPKI: 0.00862
LLC LOAD TRANSLATION ACCESS:     532313  HIT:     234631  MISS:     297682  HIT %:    44.0776  MISS %:    55.9224   MPKI: 5.95364
LLC PREFETCH  REQUESTED:          0  ISSUED:          0  USEFUL:       7393  USELESS:    1132723
LLC USEFUL LOAD PREFETCHES:       7393 PREFETCH ISSUED TO LOWER LEVEL:    1140077  ACCURACY: 0.648465
LLC TIMELY PREFETCHES:       7393 LATE PREFETCHES: 0 DROPPED PREFETCHES: 0
LLC PREFETCHES SAME FILL-ORIGIN LEVEL: 0 DIFFERENT FILL-ORIGIN LEVEL: 0
LLC AVERAGE MISS LATENCY: 177.347 cycles
LLC RQ	ACCESS:    1589042	FORWARD:          0	MERGED:          0	TO_CACHE:    1589042
LLC WQ	ACCESS:     479758	FORWARD:          0	MERGED:          0	TO_CACHE:     479758
LLC PQ	ACCESS:    1168801	FORWARD:          0	MERGED:          0	TO_CACHE:    1168801

LLC Dense regions hint to LLC: 0

RAW hits: 229728
Loads Generated: 13642214
Loads sent to L1D: 13412489
Stores Generated: 3768401
Stores sent to L1D: 3768403
Major fault: 0 Minor fault: 135174
Allocated PAGES: 135174

stream: 
stream:times selected: 3218882
stream:pref_filled: 1175338
stream:pref_useful: 25799
stream:pref_late: 1274
stream:misses: 316060
stream:misses_by_poll: 0

CS: 
CS:times selected: 191687
CS:pref_filled: 32134
CS:pref_useful: 29349
CS:pref_late: 110
CS:misses: 2256
CS:misses_by_poll: 3

CPLX: 
CPLX:times selected: 2993572
CPLX:pref_filled: 200658
CPLX:pref_useful: 813
CPLX:pref_late: 9
CPLX:misses: 957240
CPLX:misses_by_poll: 234

NL_L1: 
NL:times selected: 26924
NL:pref_filled: 15487
NL:pref_useful: 507
NL:pref_late: 11
NL:misses: 12358
NL:misses_by_poll: 0

total selections: 6431065
total_filled: 1182751
total_useful: 46049
total_late: 1438
total_polluted: 237
total_misses_after_warmup: 1161843
conflicts: 197141
Degree Incremented Times: 35414
Degree Decremented Times: 126829

L1 IP Table Write Accesses: 8227732
L1 IP Table Read Accesses: 8030591
L1 RST Write Accesses: 2661548
L1 RST Read Accesses: 5323096
L1 CSPT Write Accesses: 2661548
L1 CSPT Read Accesses: 5133999
L1 RR Filter Tag Write Accesses: 1469401
L1 RR Filter Tag Read Accesses: 86162933
L1 IP Table Tag Write Accesses: 8887309
L1 IP Table Tag Read Accesses: 8887309
L1 RST Tag Write Accesses: 0
L1 RST Tag Read Accesses: 23962506
L1 RR Filter Write Accesses: 0
L1 RR Filter Read Accesses: 3297431
test: 2131795
L2 IP Table Read Accesses: 4481726
L2 IP Table Write Accesses: 3421197
L2 IP Table Tag Read Accesses: 2241191
L2 IP Table Tag Write Accesses: 2241191

DRAM Statistics
 CHANNEL 0
 RQ ROW_BUFFER_HIT:      29068  ROW_BUFFER_MISS:    2450241
 DBUS_CONGESTED:         37
 WQ ROW_BUFFER_HIT:     235059  ROW_BUFFER_MISS:     233025  FULL:          0

 AVG_CONGESTED_CYCLE: 4
 All warmup complete: 2
Channel 0 Bank busy for read cycles: 0
Channel 0 Bank busy for write cycles: 0
Channel 0
Rank 0
0banks busy for read cycles: 53264546
0banks busy for write cycles: 125540
1banks busy for read cycles: 65875963
1banks busy for write cycles: 28963153
2banks busy for read cycles: 80733076
2banks busy for write cycles: 20049769
3banks busy for read cycles: 31657421
3banks busy for write cycles: 12842656
4banks busy for read cycles: 10160665
4banks busy for write cycles: 7030169
5banks busy for read cycles: 1039641
5banks busy for write cycles: 3218119
6banks busy for read cycles: 99279
6banks busy for write cycles: 1159669
7banks busy for read cycles: 23316
7banks busy for write cycles: 301928
8banks busy for read cycles: 9471
8banks busy for write cycles: 40610

CPU 0 Branch Prediction Accuracy: 94.2493% MPKI: 4.86266 Average ROB Occupancy at Mispredict: 140.859
Branch types
NOT_BRANCH: 45771806 91.5436%
BRANCH_DIRECT_JUMP: 274203 0.548406%
BRANCH_INDIRECT: 44256 0.088512%
BRANCH_CONDITIONAL: 3238332 6.47666%
BRANCH_DIRECT_CALL: 335532 0.671064%
BRANCH_INDIRECT_CALL: 0 0%
BRANCH_RETURN: 335532 0.671064%
BRANCH_OTHER: 0 0%

@sumon_overall_L1D     46049      1301   1136706   1182751   2938751   2938751
@Sumon_Early_by_class_L1D     20471     24486       638         9
@Sumon_Late_by_class_L1D      1170        88         8         9

@Sumon_Early_by_cycle_L1D      4115     10670      2657      5084      2318      4701      3352        24        70      1344     11675        39
@Sumon_Late_by_cycle_L1D       288       980        33         0         0         0         0         0         0         0         0         0
@Sumon_Early_stream_L1D      3139       397      2019      4838      2187      4431      3250        13        17        69        79        32
@Sumon_Early_CS_L1D       781     10217       517        23         9        25         2         8        50      1261     11589         4
@Sumon_Early_CPLX_L1D        76        46        73       116        71       139        88         3         3        14         6         3
@Sumon_Late_stream_L1D       181       956        33         0         0         0         0         0         0         0         0         0
@Sumon_Late_CS_L1D        81         7         0         0         0         0         0         0         0         0         0         0
@Sumon_Late_CPLX_L1D         1         7         0         0         0         0         0         0         0         0         0         0
@sumon_overall_L2C      2295         3   1166545   1168797     74427     74427
@Sumon_Early_by_class_L2C      1670       258       328         0
@Sumon_Late_by_class_L2C         0         3         0         0

@Sumon_Early_by_cycle_L2C        22         3         8        18        21        22         2         0         0         1        31      2167
@Sumon_Late_by_cycle_L2C         2         1         0         0         0         0         0         0         0         0         0         0
@Sumon_Early_stream_L2C         0         0         0         0         0         0         0         0         0         1        25      1644
@Sumon_Early_CS_L2C         4         2         8        18        21        22         2         0         0         0         0       181
@Sumon_Early_CPLX_L2C         0         0         0         0         0         0         0         0         0         0         4       324
@Sumon_Late_stream_L2C         0         0         0         0         0         0         0         0         0         0         0         0
@Sumon_Late_CS_L2C         2         1         0         0         0         0         0         0         0         0         0         0
@Sumon_Late_CPLX_L2C         0         0         0         0         0         0         0         0         0         0         0         0
DRAM PAGES: 1048576
Allocated PAGES: 135174
