
*** ChampSim Multicore Out-of-Order Simulator ***

Warmup Instructions: 10000000
Simulation Instructions: 50000000
Number of CPUs: 1
LLC sets: 2048
LLC ways: 16
Off-chip DRAM Size: 4096 MB Channels: 1 Width: 64-bit Data Rate: 400 MT/s
CPU 0 runs traces/SPEC2017/600.perlbench_s-570B.champsimtrace.xz
.xz
CPU 0 Bimodal branch predictor
BTB has LRU replacement policy
ITLB has LRU replacement policy
DTLB has LRU replacement policy
STLB has LRU replacement policy
L1I has LRU replacement policy
IP Table Entries: 256
L1D has LRU replacement policy
IP_Table L2 entries: 256
L2C has LRU replacement policy
LLC has LRU replacement policy
Heartbeat CPU 0 instructions: 10000003 cycles: 2893542 heartbeat IPC: 3.45597 cumulative IPC: 3.45597 (Simulation time: 0 hr 18 min 52 sec) 

Warmup complete CPU 0 instructions: 10000003 cycles: 2893542 (Simulation time: 0 hr 18 min 52 sec) 

Heartbeat CPU 0 instructions: 20000003 cycles: 18680542 heartbeat IPC: 0.633433 cumulative IPC: 0.633433 (Simulation time: 0 hr 36 min 52 sec) 
Heartbeat CPU 0 instructions: 30000002 cycles: 35046311 heartbeat IPC: 0.611031 cumulative IPC: 0.62203 (Simulation time: 0 hr 55 min 12 sec) 
Heartbeat CPU 0 instructions: 40000000 cycles: 51098449 heartbeat IPC: 0.62297 cumulative IPC: 0.622343 (Simulation time: 1 hr 12 min 57 sec) 
Heartbeat CPU 0 instructions: 50000003 cycles: 66555615 heartbeat IPC: 0.646949 cumulative IPC: 0.628318 (Simulation time: 1 hr 30 min 27 sec) 
Heartbeat CPU 0 instructions: 60000000 cycles: 81761537 heartbeat IPC: 0.657638 cumulative IPC: 0.633971 (Simulation time: 1 hr 47 min 56 sec) 
Finished CPU 0 instructions: 50000001 cycles: 78867996 cumulative IPC: 0.633971 (Simulation time: 1 hr 47 min 56 sec) 

ChampSim completed all CPUs

Region of Interest Statistics

CPU 0 cumulative IPC: 0.633971 instructions: 50000001 cycles: 78867996
ITLB TOTAL     ACCESS:    7354570  HIT:    7354381  MISS:        189  HIT %:    99.9974  MISS %: 0.00256983   MPKI: 0.00378
ITLB LOAD TRANSLATION ACCESS:    7354570  HIT:    7354381  MISS:        189  HIT %:    99.9974  MISS %: 0.00256983   MPKI: 0.00378
ITLB PREFETCH  REQUESTED:          0  ISSUED:          0  USEFUL:          0  USELESS:          0
ITLB USEFUL LOAD PREFETCHES:          0 PREFETCH ISSUED TO LOWER LEVEL:          0  ACCURACY: -nan
ITLB TIMELY PREFETCHES:          0 LATE PREFETCHES: 0 DROPPED PREFETCHES: 0
ITLB PREFETCHES SAME FILL-ORIGIN LEVEL: 0 DIFFERENT FILL-ORIGIN LEVEL: 0
ITLB AVERAGE MISS LATENCY: 10.6455 cycles
ITLB RQ	ACCESS:    8343806	FORWARD:          0	MERGED:     989193	TO_CACHE:    7354613

DTLB TOTAL     ACCESS:   12653336  HIT:   12619425  MISS:      33911  HIT %:     99.732  MISS %:      0.268   MPKI: 0.67822
DTLB LOAD TRANSLATION ACCESS:   12653336  HIT:   12619425  MISS:      33911  HIT %:     99.732  MISS %:      0.268   MPKI: 0.67822
DTLB PREFETCH  REQUESTED:          0  ISSUED:          0  USEFUL:          0  USELESS:          0
DTLB USEFUL LOAD PREFETCHES:          0 PREFETCH ISSUED TO LOWER LEVEL:          0  ACCURACY: -nan
DTLB TIMELY PREFETCHES:          0 LATE PREFETCHES: 0 DROPPED PREFETCHES: 0
DTLB PREFETCHES SAME FILL-ORIGIN LEVEL: 0 DIFFERENT FILL-ORIGIN LEVEL: 0
DTLB AVERAGE MISS LATENCY: 10.5373 cycles
DTLB RQ	ACCESS:   19242789	FORWARD:          0	MERGED:    6589265	TO_CACHE:   12653524

STLB TOTAL     ACCESS:     101458  HIT:     101149  MISS:        309  HIT %:    99.6954  MISS %:    0.30456   MPKI: 0.00618
STLB LOAD TRANSLATION ACCESS:      34100  HIT:      33791  MISS:        309  HIT %:    99.0938  MISS %:   0.906158   MPKI: 0.00618
STLB TRANSLATION FROM L1D PREFETCHER ACCESS:      67358  HIT:      67358  MISS:          0  HIT %:        100  MISS %:          0   MPKI: 0
STLB PREFETCH  REQUESTED:          0  ISSUED:          0  USEFUL:          0  USELESS:          0
STLB USEFUL LOAD PREFETCHES:          0 PREFETCH ISSUED TO LOWER LEVEL:          0  ACCURACY: -nan
STLB TIMELY PREFETCHES:          0 LATE PREFETCHES: 0 DROPPED PREFETCHES: 0
STLB PREFETCHES SAME FILL-ORIGIN LEVEL: 0 DIFFERENT FILL-ORIGIN LEVEL: 0
STLB AVERAGE MISS LATENCY: 168.434 cycles
STLB RQ	ACCESS:     116271	FORWARD:          0	MERGED:      14812	TO_CACHE:     101459

STLB Hit, L1D data hit: 0
STLB Hit, L2C data hit: 0
STLB Hit, LLC data hit: 0
STLB Hit, LLC data miss: 0
STLB STLB hints to L2: 0
L1D TOTAL     ACCESS:   19324114  HIT:   19316819  MISS:       7295  HIT %:    99.9622  MISS %:  0.0377508   MPKI: 0.1459
L1D LOAD      ACCESS:    8507396  HIT:    8504221  MISS:       3175  HIT %:    99.9627  MISS %:  0.0373205   MPKI: 0.0635
L1D RFO       ACCESS:   10734580  HIT:   10734396  MISS:        184  HIT %:    99.9983  MISS %: 0.00171409   MPKI: 0.00368
L1D PREFETCH  ACCESS:      82138  HIT:      78202  MISS:       3936  HIT %:    95.2081  MISS %:    4.79194   MPKI: 0.07872
L1D PREFETCH  REQUESTED:     164342  ISSUED:     164342  USEFUL:       1263  USELESS:       2629
L1D USEFUL LOAD PREFETCHES:       1263 PREFETCH ISSUED TO LOWER LEVEL:       3936  ACCURACY: 32.0884
L1D TIMELY PREFETCHES:       1263 LATE PREFETCHES: 189 DROPPED PREFETCHES: 0
L1D PREFETCHES SAME FILL-ORIGIN LEVEL: 3936 DIFFERENT FILL-ORIGIN LEVEL: 0
L1D AVERAGE MISS LATENCY: 162.652 cycles
L1D RQ	ACCESS:   10818807	FORWARD:          0	MERGED:    1977723	TO_CACHE:    8507916
L1D WQ	ACCESS:   10830029	FORWARD:     333168	MERGED:      95156	TO_CACHE:   10734873
L1D PQ	ACCESS:      82171	FORWARD:          0	MERGED:          0	TO_CACHE:      82171

L1D UNIQUE REGIONS ACCESSED: 0
L1D REGIONS CONFLICTS: 0
L1D Cross Page Prefetch Requests: 0
L1D Same Page Prefetch Requests: 175549
L1D ROI Sum of L1D PQ occupancy: 1070252
L1D PREFETCHES PUSHED FROM L2C: 0
L1I TOTAL     ACCESS:    8343316  HIT:    8341430  MISS:       1886  HIT %:    99.9774  MISS %:  0.0226049   MPKI: 0.03772
L1I LOAD      ACCESS:    8343316  HIT:    8341430  MISS:       1886  HIT %:    99.9774  MISS %:  0.0226049   MPKI: 0.03772
L1I PREFETCH  REQUESTED:          0  ISSUED:          0  USEFUL:          0  USELESS:          0
L1I USEFUL LOAD PREFETCHES:          0 PREFETCH ISSUED TO LOWER LEVEL:          0  ACCURACY: -nan
L1I TIMELY PREFETCHES:          0 LATE PREFETCHES: 0 DROPPED PREFETCHES: 0
L1I PREFETCHES SAME FILL-ORIGIN LEVEL: 0 DIFFERENT FILL-ORIGIN LEVEL: 0
L1I AVERAGE MISS LATENCY: 28.4189 cycles
L1I RQ	ACCESS:   13352830	FORWARD:          0	MERGED:    5009024	TO_CACHE:    8343806

BTB TOTAL     ACCESS:    4994041  HIT:    4730753  MISS:     263288  HIT %:     94.728  MISS %:    5.27204   MPKI: 5.26576
BTB BRANCH_DIRECT_JUMP	ACCESS:    1003467  HIT:    1003316  MISS:        151
BTB BRANCH_INDIRECT	ACCESS:     365932  HIT:     110976  MISS:     254956
BTB BRANCH_CONDITIONAL	ACCESS:    2901535  HIT:    2901105  MISS:        430
BTB BRANCH_DIRECT_CALL	ACCESS:     355129  HIT:     355070  MISS:         59
BTB BRANCH_INDIRECT_CALL	ACCESS:       6424  HIT:       3196  MISS:       3228
BTB BRANCH_RETURN	ACCESS:     361554  HIT:     357090  MISS:       4464
BTB BRANCH_OTHER ACCESS:          0  HIT:          0  MISS:          0

L2C TOTAL     ACCESS:      11400  HIT:       4984  MISS:       6416  HIT %:    43.7193  MISS %:    56.2807   MPKI: 0.12832
L2C LOAD      ACCESS:       5061  HIT:       2007  MISS:       3054  HIT %:    39.6562  MISS %:    60.3438   MPKI: 0.06108
L2C DATA LOAD MPKI: 0.058
L2C INSTRUCTION LOAD MPKI: 0.00308
L2C RFO       ACCESS:        184  HIT:         44  MISS:        140  HIT %:     23.913  MISS %:     76.087   MPKI: 0.0028
L2C PREFETCH  ACCESS:       5246  HIT:       2111  MISS:       3135  HIT %:    40.2402  MISS %:    59.7598   MPKI: 0.0627
L2C DATA PREFETCH MPKI: 0.0627
L2C INSTRUCTION PREFETCH MPKI: 0
L2C WRITEBACK ACCESS:        593  HIT:        588  MISS:          5  HIT %:    99.1568  MISS %:    0.84317   MPKI: 0.0001
L2C LOAD TRANSLATION ACCESS:        316  HIT:        234  MISS:         82  HIT %:    74.0506  MISS %:    25.9494   MPKI: 0.00164
L2C PREFETCH  REQUESTED:       1648  ISSUED:       1648  USEFUL:        145  USELESS:        969
L2C USEFUL LOAD PREFETCHES:        145 PREFETCH ISSUED TO LOWER LEVEL:       3144  ACCURACY: 4.61196
L2C TIMELY PREFETCHES:        145 LATE PREFETCHES: 9 DROPPED PREFETCHES: 0
L2C PREFETCHES SAME FILL-ORIGIN LEVEL: 518 DIFFERENT FILL-ORIGIN LEVEL: 0
L2C AVERAGE MISS LATENCY: 196.62 cycles
L2C RQ	ACCESS:       5561	FORWARD:          0	MERGED:          0	TO_CACHE:       5561
L2C WQ	ACCESS:        593	FORWARD:          0	MERGED:          0	TO_CACHE:        593
L2C PQ	ACCESS:       5584	FORWARD:          0	MERGED:        255	TO_CACHE:       5329

L2C Instructions Evicting Data 44
L2C Translations Evicting Data 19
L2C Data Evicting Data 1688
L2C Instructions Evicting Instructions 6
L2C Translations Evicting Instructions 0
L2C Data Evicting Instructions 291
L2C Instructions Evicting Translations 0
L2C Translations Evicting Translations 1
L2C Data Evicting Translations 61
L2C Dense regions hint from L2: 0
PSCL5 TOTAL     ACCESS:        309  HIT:        309  MISS:          0  HIT %:        100  MISS %:          0   MPKI: 0
PSCL5 LOAD TRANSLATION ACCESS:        309  HIT:        309  MISS:          0  HIT %:        100  MISS %:          0   MPKI: 0
PSCL5 PREFETCH  REQUESTED:          0  ISSUED:          0  USEFUL:          0  USELESS:          0
PSCL5 USEFUL LOAD PREFETCHES:          0 PREFETCH ISSUED TO LOWER LEVEL:          0  ACCURACY: -nan
PSCL5 TIMELY PREFETCHES:          0 LATE PREFETCHES: 0 DROPPED PREFETCHES: 0
PSCL5 PREFETCHES SAME FILL-ORIGIN LEVEL: 0 DIFFERENT FILL-ORIGIN LEVEL: 0

PSCL4 TOTAL     ACCESS:        309  HIT:        309  MISS:          0  HIT %:        100  MISS %:          0   MPKI: 0
PSCL4 LOAD TRANSLATION ACCESS:        309  HIT:        309  MISS:          0  HIT %:        100  MISS %:          0   MPKI: 0
PSCL4 PREFETCH  REQUESTED:          0  ISSUED:          0  USEFUL:          0  USELESS:          0
PSCL4 USEFUL LOAD PREFETCHES:          0 PREFETCH ISSUED TO LOWER LEVEL:          0  ACCURACY: -nan
PSCL4 TIMELY PREFETCHES:          0 LATE PREFETCHES: 0 DROPPED PREFETCHES: 0
PSCL4 PREFETCHES SAME FILL-ORIGIN LEVEL: 0 DIFFERENT FILL-ORIGIN LEVEL: 0

PSCL3 TOTAL     ACCESS:        309  HIT:        309  MISS:          0  HIT %:        100  MISS %:          0   MPKI: 0
PSCL3 LOAD TRANSLATION ACCESS:        309  HIT:        309  MISS:          0  HIT %:        100  MISS %:          0   MPKI: 0
PSCL3 PREFETCH  REQUESTED:          0  ISSUED:          0  USEFUL:          0  USELESS:          0
PSCL3 USEFUL LOAD PREFETCHES:          0 PREFETCH ISSUED TO LOWER LEVEL:          0  ACCURACY: -nan
PSCL3 TIMELY PREFETCHES:          0 LATE PREFETCHES: 0 DROPPED PREFETCHES: 0
PSCL3 PREFETCHES SAME FILL-ORIGIN LEVEL: 0 DIFFERENT FILL-ORIGIN LEVEL: 0

PSCL2 TOTAL     ACCESS:        309  HIT:        296  MISS:         13  HIT %:    95.7929  MISS %:    4.20712   MPKI: 0.00026
PSCL2 LOAD TRANSLATION ACCESS:        309  HIT:        296  MISS:         13  HIT %:    95.7929  MISS %:    4.20712   MPKI: 0.00026
PSCL2 PREFETCH  REQUESTED:          0  ISSUED:          0  USEFUL:          0  USELESS:          0
PSCL2 USEFUL LOAD PREFETCHES:          0 PREFETCH ISSUED TO LOWER LEVEL:          0  ACCURACY: -nan
PSCL2 TIMELY PREFETCHES:          0 LATE PREFETCHES: 0 DROPPED PREFETCHES: 0
PSCL2 PREFETCHES SAME FILL-ORIGIN LEVEL: 0 DIFFERENT FILL-ORIGIN LEVEL: 0

LLC TOTAL     ACCESS:       6562  HIT:        206  MISS:       6356  HIT %:    3.13929  MISS %:    96.8607   MPKI: 0.12712
LLC LOAD      ACCESS:       3045  HIT:         24  MISS:       3021  HIT %:   0.788177  MISS %:    99.2118   MPKI: 0.06042
LLC RFO       ACCESS:        140  HIT:          0  MISS:        140  HIT %:          0  MISS %:        100   MPKI: 0.0028
LLC PREFETCH  ACCESS:       3144  HIT:         29  MISS:       3115  HIT %:   0.922392  MISS %:    99.0776   MPKI: 0.0623
LLC WRITEBACK ACCESS:        151  HIT:        151  MISS:          0  HIT %:        100  MISS %:          0   MPKI: 0
LLC LOAD TRANSLATION ACCESS:         82  HIT:          2  MISS:         80  HIT %:    2.43902  MISS %:     97.561   MPKI: 0.0016
LLC PREFETCH  REQUESTED:          0  ISSUED:          0  USEFUL:          1  USELESS:          0
LLC USEFUL LOAD PREFETCHES:          1 PREFETCH ISSUED TO LOWER LEVEL:       3115  ACCURACY: 0.0321027
LLC TIMELY PREFETCHES:          1 LATE PREFETCHES: 0 DROPPED PREFETCHES: 0
LLC PREFETCHES SAME FILL-ORIGIN LEVEL: 0 DIFFERENT FILL-ORIGIN LEVEL: 0
LLC AVERAGE MISS LATENCY: 168.13 cycles
LLC RQ	ACCESS:       3267	FORWARD:          0	MERGED:          0	TO_CACHE:       3267
LLC WQ	ACCESS:        151	FORWARD:          0	MERGED:          0	TO_CACHE:        151
LLC PQ	ACCESS:       3144	FORWARD:          0	MERGED:          0	TO_CACHE:       3144

LLC Dense regions hint to LLC: 0

RAW hits: 778123
Loads Generated: 11596922
Loads sent to L1D: 10818807
Stores Generated: 10830023
Stores sent to L1D: 10830029
Major fault: 0 Minor fault: 672
Allocated PAGES: 672

stream: 
stream:times selected: 771791
stream:pref_filled: 3010
stream:pref_useful: 1026
stream:pref_late: 151
stream:misses: 173
stream:misses_by_poll: 0

CS: 
CS:times selected: 18201
CS:pref_filled: 588
CS:pref_useful: 502
CS:pref_late: 0
CS:misses: 23
CS:misses_by_poll: 0

CPLX: 
CPLX:times selected: 753362
CPLX:pref_filled: 2075
CPLX:pref_useful: 245
CPLX:pref_late: 16
CPLX:misses: 1596
CPLX:misses_by_poll: 1

NL_L1: 
NL:times selected: 617
NL:pref_filled: 17
NL:pref_useful: 7
NL:pref_late: 0
NL:misses: 9
NL:misses_by_poll: 0

total selections: 1543971
total_filled: 3936
total_useful: 1263
total_late: 174
total_polluted: 1
total_misses_after_warmup: 3698
conflicts: 121691
Degree Incremented Times: 159
Degree Decremented Times: 128769

L1 IP Table Write Accesses: 7566350
L1 IP Table Read Accesses: 7444659
L1 RST Write Accesses: 646252
L1 RST Read Accesses: 1292504
L1 CSPT Write Accesses: 646252
L1 CSPT Read Accesses: 1277997
L1 RR Filter Tag Write Accesses: 82171
L1 RR Filter Tag Read Accesses: 20807011
L1 IP Table Tag Write Accesses: 8507919
L1 IP Table Tag Read Accesses: 8507919
L1 RST Tag Write Accesses: 0
L1 RST Tag Read Accesses: 9048450
L1 RR Filter Write Accesses: 0
L1 RR Filter Read Accesses: 1160387
test: 9378
L2 IP Table Read Accesses: 13299
L2 IP Table Write Accesses: 10952
L2 IP Table Tag Read Accesses: 7011
L2 IP Table Tag Write Accesses: 7011

DRAM Statistics
 CHANNEL 0
 RQ ROW_BUFFER_HIT:       2952  ROW_BUFFER_MISS:       3404
 DBUS_CONGESTED:       2524
 WQ ROW_BUFFER_HIT:          0  ROW_BUFFER_MISS:          0  FULL:          0

 AVG_CONGESTED_CYCLE: 65
 All warmup complete: 2
Channel 0 Bank busy for read cycles: 0
Channel 0 Bank busy for write cycles: 0
Channel 0
Rank 0
0banks busy for read cycles: 78296032
0banks busy for write cycles: 0
1banks busy for read cycles: 355495
1banks busy for write cycles: 0
2banks busy for read cycles: 147884
2banks busy for write cycles: 0
3banks busy for read cycles: 41104
3banks busy for write cycles: 0
4banks busy for read cycles: 16327
4banks busy for write cycles: 0
5banks busy for read cycles: 6264
5banks busy for write cycles: 0
6banks busy for read cycles: 3682
6banks busy for write cycles: 0
7banks busy for read cycles: 841
7banks busy for write cycles: 0
8banks busy for read cycles: 368
8banks busy for write cycles: 0

CPU 0 Branch Prediction Accuracy: 97.8399% MPKI: 3.0284 Average ROB Occupancy at Mispredict: 45.9383
Branch types
NOT_BRANCH: 42989829 85.9797%
BRANCH_DIRECT_JUMP: 1003467 2.00693%
BRANCH_INDIRECT: 365932 0.731864%
BRANCH_CONDITIONAL: 4917335 9.83467%
BRANCH_DIRECT_CALL: 355129 0.710258%
BRANCH_INDIRECT_CALL: 6424 0.012848%
BRANCH_RETURN: 361554 0.723108%
BRANCH_OTHER: 0 0%

@sumon_overall_L1D      1263       189      2629      3936    164342    164342
@Sumon_Early_by_class_L1D       685       374       184         0
@Sumon_Late_by_class_L1D       147         0        15         0

@Sumon_Early_by_cycle_L1D       102       106        64        45        46       170        84        31        33        61        95       426
@Sumon_Late_by_cycle_L1D       141        25         3         0         0         0         0         0         0         0         0         0
@Sumon_Early_stream_L1D        84        89        47        36        33       111        59        16        24        24        35       127
@Sumon_Early_CS_L1D         6         4         9         1         6        26        11        10         6        33        52       210
@Sumon_Early_CPLX_L1D        11         6         8         6         5        29        14         5         3         3         7        87
@Sumon_Late_stream_L1D       124        20         3         0         0         0         0         0         0         0         0         0
@Sumon_Late_CS_L1D         0         0         0         0         0         0         0         0         0         0         0         0
@Sumon_Late_CPLX_L1D        10         5         0         0         0         0         0         0         0         0         0         0
@sumon_overall_L2C       145         9       969      3135      1648      1648
@Sumon_Early_by_class_L2C        13        58        12         0
@Sumon_Late_by_class_L2C         0         0         0         0

@Sumon_Early_by_cycle_L2C         1         3        12        10         0         7         0         8         2         4         2        96
@Sumon_Late_by_cycle_L2C         6         2         1         0         0         0         0         0         0         0         0         0
@Sumon_Early_stream_L2C         0         0         0         0         0         0         0         0         0         0         0        13
@Sumon_Early_CS_L2C         0         0         1         2         0         0         0         3         0         0         1        51
@Sumon_Early_CPLX_L2C         0         0         0         0         0         0         0         0         0         0         0        12
@Sumon_Late_stream_L2C         0         0         0         0         0         0         0         0         0         0         0         0
@Sumon_Late_CS_L2C         0         0         0         0         0         0         0         0         0         0         0         0
@Sumon_Late_CPLX_L2C         0         0         0         0         0         0         0         0         0         0         0         0
DRAM PAGES: 1048576
Allocated PAGES: 672
