
*** ChampSim Multicore Out-of-Order Simulator ***

Warmup Instructions: 10000000
Simulation Instructions: 50000000
Number of CPUs: 1
LLC sets: 2048
LLC ways: 16
Off-chip DRAM Size: 4096 MB Channels: 1 Width: 64-bit Data Rate: 400 MT/s
CPU 0 runs traces/SPEC2017/603.bwaves_s-891B.champsimtrace.xz
.xz
CPU 0 Bimodal branch predictor
BTB has LRU replacement policy
ITLB has LRU replacement policy
DTLB has LRU replacement policy
STLB has LRU replacement policy
L1I has LRU replacement policy
IP Table Entries: 256
L1D has LRU replacement policy
IP_Table L2 entries: 256
L2C has LRU replacement policy
LLC has LRU replacement policy
Heartbeat CPU 0 instructions: 10000003 cycles: 2716412 heartbeat IPC: 3.68133 cumulative IPC: 3.68133 (Simulation time: 0 hr 10 min 29 sec) 

Warmup complete CPU 0 instructions: 10000003 cycles: 2716412 (Simulation time: 0 hr 10 min 29 sec) 

Heartbeat CPU 0 instructions: 20000000 cycles: 37694875 heartbeat IPC: 0.28589 cumulative IPC: 0.28589 (Simulation time: 0 hr 36 min 13 sec) 
Heartbeat CPU 0 instructions: 30000000 cycles: 72664345 heartbeat IPC: 0.285964 cumulative IPC: 0.285927 (Simulation time: 1 hr 2 min 6 sec) 
Heartbeat CPU 0 instructions: 40000001 cycles: 107644586 heartbeat IPC: 0.285876 cumulative IPC: 0.28591 (Simulation time: 1 hr 27 min 51 sec) 
Heartbeat CPU 0 instructions: 50000000 cycles: 130705506 heartbeat IPC: 0.433634 cumulative IPC: 0.312527 (Simulation time: 1 hr 44 min 40 sec) 
Heartbeat CPU 0 instructions: 60000001 cycles: 147488389 heartbeat IPC: 0.595845 cumulative IPC: 0.345371 (Simulation time: 1 hr 53 min 38 sec) 
Finished CPU 0 instructions: 50000002 cycles: 144771980 cumulative IPC: 0.345371 (Simulation time: 1 hr 53 min 38 sec) 

ChampSim completed all CPUs

Region of Interest Statistics

CPU 0 cumulative IPC: 0.345371 instructions: 50000002 cycles: 144771980
ITLB TOTAL     ACCESS:    7209117  HIT:    7209117  MISS:          0  HIT %:        100  MISS %:          0   MPKI: 0
ITLB LOAD TRANSLATION ACCESS:    7209117  HIT:    7209117  MISS:          0  HIT %:        100  MISS %:          0   MPKI: 0
ITLB PREFETCH  REQUESTED:          0  ISSUED:          0  USEFUL:          0  USELESS:          0
ITLB USEFUL LOAD PREFETCHES:          0 PREFETCH ISSUED TO LOWER LEVEL:          0  ACCURACY: -nan
ITLB TIMELY PREFETCHES:          0 LATE PREFETCHES: 0 DROPPED PREFETCHES: 0
ITLB PREFETCHES SAME FILL-ORIGIN LEVEL: 0 DIFFERENT FILL-ORIGIN LEVEL: 0
ITLB AVERAGE MISS LATENCY: -nan cycles
ITLB RQ	ACCESS:    9708755	FORWARD:          0	MERGED:    2499638	TO_CACHE:    7209117

DTLB TOTAL     ACCESS:    8532942  HIT:    8514770  MISS:      18172  HIT %:     99.787  MISS %:   0.212963   MPKI: 0.36344
DTLB LOAD TRANSLATION ACCESS:    8532942  HIT:    8514770  MISS:      18172  HIT %:     99.787  MISS %:   0.212963   MPKI: 0.36344
DTLB PREFETCH  REQUESTED:          0  ISSUED:          0  USEFUL:          0  USELESS:          0
DTLB USEFUL LOAD PREFETCHES:          0 PREFETCH ISSUED TO LOWER LEVEL:          0  ACCURACY: -nan
DTLB TIMELY PREFETCHES:          0 LATE PREFETCHES: 0 DROPPED PREFETCHES: 0
DTLB PREFETCHES SAME FILL-ORIGIN LEVEL: 0 DIFFERENT FILL-ORIGIN LEVEL: 0
DTLB AVERAGE MISS LATENCY: 357.244 cycles
DTLB RQ	ACCESS:    9062967	FORWARD:          0	MERGED:     529189	TO_CACHE:    8533778

STLB TOTAL     ACCESS:    1081000  HIT:    1062884  MISS:      18116  HIT %:    98.3241  MISS %:    1.67586   MPKI: 0.36232
STLB LOAD TRANSLATION ACCESS:      18172  HIT:         56  MISS:      18116  HIT %:   0.308166  MISS %:    99.6918   MPKI: 0.36232
STLB TRANSLATION FROM L1D PREFETCHER ACCESS:    1062828  HIT:    1062828  MISS:          0  HIT %:        100  MISS %:          0   MPKI: 0
STLB PREFETCH  REQUESTED:          0  ISSUED:          0  USEFUL:          0  USELESS:          0
STLB USEFUL LOAD PREFETCHES:          0 PREFETCH ISSUED TO LOWER LEVEL:          0  ACCURACY: -nan
STLB TIMELY PREFETCHES:          0 LATE PREFETCHES: 0 DROPPED PREFETCHES: 0
STLB PREFETCHES SAME FILL-ORIGIN LEVEL: 0 DIFFERENT FILL-ORIGIN LEVEL: 0
STLB AVERAGE MISS LATENCY: 344.072 cycles
STLB RQ	ACCESS:    1198433	FORWARD:          0	MERGED:     117434	TO_CACHE:    1080999

STLB Hit, L1D data hit: 0
STLB Hit, L2C data hit: 0
STLB Hit, LLC data hit: 0
STLB Hit, LLC data miss: 0
STLB STLB hints to L2: 0
L1D TOTAL     ACCESS:    9481575  HIT:    8322075  MISS:    1159500  HIT %:     87.771  MISS %:     12.229   MPKI: 23.19
L1D LOAD      ACCESS:    5788518  HIT:    5763574  MISS:      24944  HIT %:    99.5691  MISS %:   0.430922   MPKI: 0.49888
L1D RFO       ACCESS:    2573869  HIT:    2520759  MISS:      53110  HIT %:    97.9366  MISS %:    2.06343   MPKI: 1.0622
L1D PREFETCH  ACCESS:    1119188  HIT:      37742  MISS:    1081446  HIT %:    3.37227  MISS %:    96.6277   MPKI: 21.6289
L1D PREFETCH  REQUESTED:    2368090  ISSUED:    2360545  USEFUL:    1001318  USELESS:      80134
L1D USEFUL LOAD PREFETCHES:    1001318 PREFETCH ISSUED TO LOWER LEVEL:    1144454  ACCURACY: 87.4931
L1D TIMELY PREFETCHES:    1001318 LATE PREFETCHES: 518835 DROPPED PREFETCHES: 0
L1D PREFETCHES SAME FILL-ORIGIN LEVEL: 1144454 DIFFERENT FILL-ORIGIN LEVEL: 0
L1D AVERAGE MISS LATENCY: 2.76037e+06 cycles
L1D RQ	ACCESS:    7957215	FORWARD:          0	MERGED:    1479824	TO_CACHE:    6477212
L1D WQ	ACCESS:    2590179	FORWARD:        179	MERGED:       4424	TO_CACHE:    2585755
L1D PQ	ACCESS:    1180284	FORWARD:          0	MERGED:         23	TO_CACHE:    1180261

L1D UNIQUE REGIONS ACCESSED: 0
L1D REGIONS CONFLICTS: 0
L1D Cross Page Prefetch Requests: 0
L1D Same Page Prefetch Requests: 1455077
L1D ROI Sum of L1D PQ occupancy: 217515134
L1D PREFETCHES PUSHED FROM L2C: 0
L1I TOTAL     ACCESS:    9708752  HIT:    9708748  MISS:          4  HIT %:        100  MISS %: 4.11999e-05   MPKI: 8e-05
L1I LOAD      ACCESS:    9708752  HIT:    9708748  MISS:          4  HIT %:        100  MISS %: 4.11999e-05   MPKI: 8e-05
L1I PREFETCH  REQUESTED:          0  ISSUED:          0  USEFUL:          0  USELESS:          0
L1I USEFUL LOAD PREFETCHES:          0 PREFETCH ISSUED TO LOWER LEVEL:          0  ACCURACY: -nan
L1I TIMELY PREFETCHES:          0 LATE PREFETCHES: 0 DROPPED PREFETCHES: 0
L1I PREFETCHES SAME FILL-ORIGIN LEVEL: 0 DIFFERENT FILL-ORIGIN LEVEL: 0
L1I AVERAGE MISS LATENCY: 542 cycles
L1I RQ	ACCESS:   13132954	FORWARD:          0	MERGED:    3424199	TO_CACHE:    9708755

BTB TOTAL     ACCESS:    3628114  HIT:    3628106  MISS:          8  HIT %:    99.9998  MISS %:  0.0002205   MPKI: 0.00016
BTB BRANCH_DIRECT_JUMP	ACCESS:          0  HIT:          0  MISS:          0
BTB BRANCH_INDIRECT	ACCESS:          0  HIT:          0  MISS:          0
BTB BRANCH_CONDITIONAL	ACCESS:    3628114  HIT:    3628106  MISS:          8
BTB BRANCH_DIRECT_CALL	ACCESS:          0  HIT:          0  MISS:          0
BTB BRANCH_INDIRECT_CALL	ACCESS:          0  HIT:          0  MISS:          0
BTB BRANCH_RETURN	ACCESS:          0  HIT:          0  MISS:          0
BTB BRANCH_OTHER ACCESS:          0  HIT:          0  MISS:          0

L2C TOTAL     ACCESS:    2628983  HIT:    1467176  MISS:    1161807  HIT %:    55.8077  MISS %:    44.1923   MPKI: 23.2361
L2C LOAD      ACCESS:      24948  HIT:       4288  MISS:      20660  HIT %:    17.1878  MISS %:    82.8122   MPKI: 0.4132
L2C DATA LOAD MPKI: 0.41312
L2C INSTRUCTION LOAD MPKI: 8e-05
L2C RFO       ACCESS:          1  HIT:          0  MISS:          1  HIT %:          0  MISS %:        100   MPKI: 2e-05
L2C PREFETCH  ACCESS:    2138545  HIT:     999702  MISS:    1138843  HIT %:    46.7468  MISS %:    53.2532   MPKI: 22.7769
L2C DATA PREFETCH MPKI: 22.7769
L2C INSTRUCTION PREFETCH MPKI: 0
L2C WRITEBACK ACCESS:     447373  HIT:     447371  MISS:          2  HIT %:    99.9996  MISS %: 0.000447054   MPKI: 4e-05
L2C LOAD TRANSLATION ACCESS:      18116  HIT:      15815  MISS:       2301  HIT %:    87.2985  MISS %:    12.7015   MPKI: 0.04602
L2C PREFETCH  REQUESTED:    2537065  ISSUED:    2405327  USEFUL:       4288  USELESS:    1134539
L2C USEFUL LOAD PREFETCHES:       4288 PREFETCH ISSUED TO LOWER LEVEL:    1140053  ACCURACY: 0.376123
L2C TIMELY PREFETCHES:       4288 LATE PREFETCHES: 1207 DROPPED PREFETCHES: 0
L2C PREFETCHES SAME FILL-ORIGIN LEVEL: 985229 DIFFERENT FILL-ORIGIN LEVEL: 0
L2C AVERAGE MISS LATENCY: 2146.74 cycles
L2C RQ	ACCESS:      43065	FORWARD:          0	MERGED:          0	TO_CACHE:      43065
L2C WQ	ACCESS:     447373	FORWARD:          0	MERGED:          0	TO_CACHE:     447373
L2C PQ	ACCESS:    3539882	FORWARD:          0	MERGED:      98287	TO_CACHE:    3441595

L2C Instructions Evicting Data 4
L2C Translations Evicting Data 2301
L2C Data Evicting Data 1157189
L2C Instructions Evicting Instructions 0
L2C Translations Evicting Instructions 0
L2C Data Evicting Instructions 4
L2C Instructions Evicting Translations 0
L2C Translations Evicting Translations 0
L2C Data Evicting Translations 2307
L2C Dense regions hint from L2: 0
PSCL5 TOTAL     ACCESS:      18116  HIT:      18116  MISS:          0  HIT %:        100  MISS %:          0   MPKI: 0
PSCL5 LOAD TRANSLATION ACCESS:      18116  HIT:      18116  MISS:          0  HIT %:        100  MISS %:          0   MPKI: 0
PSCL5 PREFETCH  REQUESTED:          0  ISSUED:          0  USEFUL:          0  USELESS:          0
PSCL5 USEFUL LOAD PREFETCHES:          0 PREFETCH ISSUED TO LOWER LEVEL:          0  ACCURACY: -nan
PSCL5 TIMELY PREFETCHES:          0 LATE PREFETCHES: 0 DROPPED PREFETCHES: 0
PSCL5 PREFETCHES SAME FILL-ORIGIN LEVEL: 0 DIFFERENT FILL-ORIGIN LEVEL: 0

PSCL4 TOTAL     ACCESS:      18116  HIT:      18116  MISS:          0  HIT %:        100  MISS %:          0   MPKI: 0
PSCL4 LOAD TRANSLATION ACCESS:      18116  HIT:      18116  MISS:          0  HIT %:        100  MISS %:          0   MPKI: 0
PSCL4 PREFETCH  REQUESTED:          0  ISSUED:          0  USEFUL:          0  USELESS:          0
PSCL4 USEFUL LOAD PREFETCHES:          0 PREFETCH ISSUED TO LOWER LEVEL:          0  ACCURACY: -nan
PSCL4 TIMELY PREFETCHES:          0 LATE PREFETCHES: 0 DROPPED PREFETCHES: 0
PSCL4 PREFETCHES SAME FILL-ORIGIN LEVEL: 0 DIFFERENT FILL-ORIGIN LEVEL: 0

PSCL3 TOTAL     ACCESS:      18116  HIT:      18116  MISS:          0  HIT %:        100  MISS %:          0   MPKI: 0
PSCL3 LOAD TRANSLATION ACCESS:      18116  HIT:      18116  MISS:          0  HIT %:        100  MISS %:          0   MPKI: 0
PSCL3 PREFETCH  REQUESTED:          0  ISSUED:          0  USEFUL:          0  USELESS:          0
PSCL3 USEFUL LOAD PREFETCHES:          0 PREFETCH ISSUED TO LOWER LEVEL:          0  ACCURACY: -nan
PSCL3 TIMELY PREFETCHES:          0 LATE PREFETCHES: 0 DROPPED PREFETCHES: 0
PSCL3 PREFETCHES SAME FILL-ORIGIN LEVEL: 0 DIFFERENT FILL-ORIGIN LEVEL: 0

PSCL2 TOTAL     ACCESS:      18116  HIT:      18080  MISS:         36  HIT %:    99.8013  MISS %:   0.198719   MPKI: 0.00072
PSCL2 LOAD TRANSLATION ACCESS:      18116  HIT:      18080  MISS:         36  HIT %:    99.8013  MISS %:   0.198719   MPKI: 0.00072
PSCL2 PREFETCH  REQUESTED:          0  ISSUED:          0  USEFUL:          0  USELESS:          0
PSCL2 USEFUL LOAD PREFETCHES:          0 PREFETCH ISSUED TO LOWER LEVEL:          0  ACCURACY: -nan
PSCL2 TIMELY PREFETCHES:          0 LATE PREFETCHES: 0 DROPPED PREFETCHES: 0
PSCL2 PREFETCHES SAME FILL-ORIGIN LEVEL: 0 DIFFERENT FILL-ORIGIN LEVEL: 0

LLC TOTAL     ACCESS:    1612863  HIT:     451124  MISS:    1161739  HIT %:    27.9704  MISS %:    72.0296   MPKI: 23.2348
LLC LOAD      ACCESS:      19453  HIT:         62  MISS:      19391  HIT %:   0.318717  MISS %:    99.6813   MPKI: 0.38782
LLC RFO       ACCESS:          1  HIT:          0  MISS:          1  HIT %:          0  MISS %:        100   MPKI: 2e-05
LLC PREFETCH  ACCESS:    1140050  HIT:          2  MISS:    1140048  HIT %: 0.000175431  MISS %:    99.9998   MPKI: 22.801
LLC WRITEBACK ACCESS:     451058  HIT:     451056  MISS:          2  HIT %:    99.9996  MISS %: 0.000443402   MPKI: 4e-05
LLC LOAD TRANSLATION ACCESS:       2301  HIT:          4  MISS:       2297  HIT %:   0.173837  MISS %:    99.8262   MPKI: 0.04594
LLC PREFETCH  REQUESTED:          0  ISSUED:          0  USEFUL:          0  USELESS:    1140121
LLC USEFUL LOAD PREFETCHES:          0 PREFETCH ISSUED TO LOWER LEVEL:    1140051  ACCURACY: 0
LLC TIMELY PREFETCHES:          0 LATE PREFETCHES: 0 DROPPED PREFETCHES: 0
LLC PREFETCHES SAME FILL-ORIGIN LEVEL: 0 DIFFERENT FILL-ORIGIN LEVEL: 0
LLC AVERAGE MISS LATENCY: 2118.94 cycles
LLC RQ	ACCESS:      21755	FORWARD:          0	MERGED:          0	TO_CACHE:      21755
LLC WQ	ACCESS:     451058	FORWARD:          0	MERGED:          0	TO_CACHE:     451058
LLC PQ	ACCESS:    1140053	FORWARD:          0	MERGED:          0	TO_CACHE:    1140053

LLC Dense regions hint to LLC: 0

RAW hits: 12912
Loads Generated: 7970129
Loads sent to L1D: 7957215
Stores Generated: 2590179
Stores sent to L1D: 2590179
Major fault: 0 Minor fault: 22421
Allocated PAGES: 22421

stream: 
stream:times selected: 2694798
stream:pref_filled: 1345666
stream:pref_useful: 1265668
stream:pref_late: 124276
stream:misses: 76
stream:misses_by_poll: 0

CS: 
CS:times selected: 2693028
CS:pref_filled: 1483
CS:pref_useful: 1330
CS:pref_late: 204
CS:misses: 718170
CS:misses_by_poll: 13

CPLX: 
CPLX:times selected: 1747
CPLX:pref_filled: 3
CPLX:pref_useful: 3
CPLX:pref_late: 0
CPLX:misses: 1020
CPLX:misses_by_poll: 0

NL_L1: 
NL:times selected: 1
NL:pref_filled: 1
NL:pref_useful: 1
NL:pref_late: 0
NL:misses: 0
NL:misses_by_poll: 0

total selections: 5389574
total_filled: 1081446
total_useful: 1001318
total_late: 124480
total_polluted: 13
total_misses_after_warmup: 713639
conflicts: 14
Degree Incremented Times: 47409
Degree Decremented Times: 0

L1 IP Table Write Accesses: 6477211
L1 IP Table Read Accesses: 6477197
L1 RST Write Accesses: 2152738
L1 RST Read Accesses: 4305476
L1 CSPT Write Accesses: 2152738
L1 CSPT Read Accesses: 2157738
L1 RR Filter Tag Write Accesses: 1187829
L1 RR Filter Tag Read Accesses: 392896874
L1 IP Table Tag Write Accesses: 6477213
L1 IP Table Tag Read Accesses: 6477213
L1 RST Tag Write Accesses: 0
L1 RST Tag Read Accesses: 19372760
L1 RR Filter Write Accesses: 0
L1 RR Filter Read Accesses: 18443945
test: 40246
L2 IP Table Read Accesses: 908879
L2 IP Table Write Accesses: 883945
L2 IP Table Tag Read Accesses: 454442
L2 IP Table Tag Write Accesses: 454442

DRAM Statistics
 CHANNEL 0
 RQ ROW_BUFFER_HIT:     730704  ROW_BUFFER_MISS:     431033
 DBUS_CONGESTED:    1521407
 WQ ROW_BUFFER_HIT:      71121  ROW_BUFFER_MISS:     392264  FULL:          0

 AVG_CONGESTED_CYCLE: 78
 All warmup complete: 2
Channel 0 Bank busy for read cycles: 0
Channel 0 Bank busy for write cycles: 0
Channel 0
Rank 0
0banks busy for read cycles: 7982491
0banks busy for write cycles: 3
1banks busy for read cycles: 4929552
1banks busy for write cycles: 54193
2banks busy for read cycles: 3373927
2banks busy for write cycles: 54190
3banks busy for read cycles: 3569802
3banks busy for write cycles: 54326
4banks busy for read cycles: 4170106
4banks busy for write cycles: 54623
5banks busy for read cycles: 4639932
5banks busy for write cycles: 54318
6banks busy for read cycles: 5758142
6banks busy for write cycles: 55423
7banks busy for read cycles: 13180162
7banks busy for write cycles: 535216
8banks busy for read cycles: 56447217
8banks busy for write cycles: 39858358

CPU 0 Branch Prediction Accuracy: 85.6192% MPKI: 15.7911 Average ROB Occupancy at Mispredict: 30.0346
Branch types
NOT_BRANCH: 44509664 89.0193%
BRANCH_DIRECT_JUMP: 0 0%
BRANCH_INDIRECT: 0 0%
BRANCH_CONDITIONAL: 5490333 10.9807%
BRANCH_DIRECT_CALL: 0 0%
BRANCH_INDIRECT_CALL: 0 0%
BRANCH_RETURN: 0 0%
BRANCH_OTHER: 0 0%

@sumon_overall_L1D   1001318    518835     80134   1081446   2360545   2368090
@Sumon_Early_by_class_L1D   1000513       803         2         0
@Sumon_Late_by_class_L1D    124276       204         0         0

@Sumon_Early_by_cycle_L1D     59246     52257     88048    203769     50918    333999    176906     36175         0         0         0         0
@Sumon_Late_by_cycle_L1D     38728      9675     13966     12592      8871     20031     16292      4192       133         0         0         0
@Sumon_Early_stream_L1D     59226     52237     87993    203301     50852    333917    176823     36164         0         0         0         0
@Sumon_Early_CS_L1D        20        20        53       468        66        82        83        11         0         0         0         0
@Sumon_Early_CPLX_L1D         0         0         2         0         0         0         0         0         0         0         0         0
@Sumon_Late_stream_L1D     38708      9666     13957     12551      8845     19958     16272      4186       133         0         0         0
@Sumon_Late_CS_L1D        20         9         9        41        26        73        20         6         0         0         0         0
@Sumon_Late_CPLX_L1D         0         0         0         0         0         0         0         0         0         0         0         0
@sumon_overall_L2C      4288      1207   1134539   1138843   2405327   2537065
@Sumon_Early_by_class_L2C      4288         0         0         0
@Sumon_Late_by_class_L2C      1199         1         0         0

@Sumon_Early_by_cycle_L2C        73        86       144       186       202      1063      1760       773         1         0         0         0
@Sumon_Late_by_cycle_L2C        57        71        90       181        37       521       236        14         0         0         0         0
@Sumon_Early_stream_L2C        73        86       144       186       202      1063      1760       773         1         0         0         0
@Sumon_Early_CS_L2C         0         0         0         0         0         0         0         0         0         0         0         0
@Sumon_Early_CPLX_L2C         0         0         0         0         0         0         0         0         0         0         0         0
@Sumon_Late_stream_L2C        50        71        90       181        37       520       236        14         0         0         0         0
@Sumon_Late_CS_L2C         0         0         0         0         0         1         0         0         0         0         0         0
@Sumon_Late_CPLX_L2C         0         0         0         0         0         0         0         0         0         0         0         0
DRAM PAGES: 1048576
Allocated PAGES: 22421
