
*** ChampSim Multicore Out-of-Order Simulator ***

Warmup Instructions: 10000000
Simulation Instructions: 50000000
Number of CPUs: 1
LLC sets: 2048
LLC ways: 16
Off-chip DRAM Size: 4096 MB Channels: 1 Width: 64-bit Data Rate: 400 MT/s
CPU 0 runs traces/SPEC2017/654.roms_s-1390B.champsimtrace.xz
.xz
CPU 0 Bimodal branch predictor
BTB has LRU replacement policy
ITLB has LRU replacement policy
DTLB has LRU replacement policy
STLB has LRU replacement policy
L1I has LRU replacement policy
IP Table Entries: 256
L1D has LRU replacement policy
IP_Table L2 entries: 256
L2C has LRU replacement policy
LLC has LRU replacement policy
Heartbeat CPU 0 instructions: 10000001 cycles: 3756032 heartbeat IPC: 2.66238 cumulative IPC: 2.66238 (Simulation time: 0 hr 30 min 24 sec) 

Warmup complete CPU 0 instructions: 10000001 cycles: 3756032 (Simulation time: 0 hr 30 min 24 sec) 

Heartbeat CPU 0 instructions: 20000002 cycles: 48757727 heartbeat IPC: 0.222214 cumulative IPC: 0.222214 (Simulation time: 1 hr 13 min 10 sec) 
Heartbeat CPU 0 instructions: 30000003 cycles: 89732297 heartbeat IPC: 0.244054 cumulative IPC: 0.232622 (Simulation time: 1 hr 47 min 10 sec) 
Heartbeat CPU 0 instructions: 40000000 cycles: 138384786 heartbeat IPC: 0.205539 cumulative IPC: 0.222835 (Simulation time: 2 hr 10 min 59 sec) 
Heartbeat CPU 0 instructions: 50000000 cycles: 189995092 heartbeat IPC: 0.19376 cumulative IPC: 0.214778 (Simulation time: 2 hr 22 min 52 sec) 
Heartbeat CPU 0 instructions: 60000001 cycles: 209627573 heartbeat IPC: 0.50936 cumulative IPC: 0.24287 (Simulation time: 2 hr 25 min 18 sec) 
Finished CPU 0 instructions: 50000000 cycles: 205871541 cumulative IPC: 0.24287 (Simulation time: 2 hr 25 min 18 sec) 

ChampSim completed all CPUs

Region of Interest Statistics

CPU 0 cumulative IPC: 0.24287 instructions: 50000000 cycles: 205871541
ITLB TOTAL     ACCESS:    7932749  HIT:    7932726  MISS:         23  HIT %:    99.9997  MISS %: 0.000289937   MPKI: 0.00046
ITLB LOAD TRANSLATION ACCESS:    7932749  HIT:    7932726  MISS:         23  HIT %:    99.9997  MISS %: 0.000289937   MPKI: 0.00046
ITLB PREFETCH  REQUESTED:          0  ISSUED:          0  USEFUL:          0  USELESS:          0
ITLB USEFUL LOAD PREFETCHES:          0 PREFETCH ISSUED TO LOWER LEVEL:          0  ACCURACY: -nan
ITLB TIMELY PREFETCHES:          0 LATE PREFETCHES: 0 DROPPED PREFETCHES: 0
ITLB PREFETCHES SAME FILL-ORIGIN LEVEL: 0 DIFFERENT FILL-ORIGIN LEVEL: 0
ITLB AVERAGE MISS LATENCY: 520.609 cycles
ITLB RQ	ACCESS:    8796579	FORWARD:          0	MERGED:     863824	TO_CACHE:    7932755

DTLB TOTAL     ACCESS:   13321084  HIT:   13266529  MISS:      54555  HIT %:    99.5905  MISS %:   0.409539   MPKI: 1.0911
DTLB LOAD TRANSLATION ACCESS:   13321084  HIT:   13266529  MISS:      54555  HIT %:    99.5905  MISS %:   0.409539   MPKI: 1.0911
DTLB PREFETCH  REQUESTED:          0  ISSUED:          0  USEFUL:          0  USELESS:          0
DTLB USEFUL LOAD PREFETCHES:          0 PREFETCH ISSUED TO LOWER LEVEL:          0  ACCURACY: -nan
DTLB TIMELY PREFETCHES:          0 LATE PREFETCHES: 0 DROPPED PREFETCHES: 0
DTLB PREFETCHES SAME FILL-ORIGIN LEVEL: 0 DIFFERENT FILL-ORIGIN LEVEL: 0
DTLB AVERAGE MISS LATENCY: 624.283 cycles
DTLB RQ	ACCESS:   14586857	FORWARD:          0	MERGED:    1190438	TO_CACHE:   13396419

STLB TOTAL     ACCESS:    1020570  HIT:     981596  MISS:      38974  HIT %:    96.1812  MISS %:    3.81885   MPKI: 0.77948
STLB LOAD TRANSLATION ACCESS:      54578  HIT:      15605  MISS:      38973  HIT %:    28.5921  MISS %:    71.4079   MPKI: 0.77946
STLB TRANSLATION FROM L1D PREFETCHER ACCESS:     965992  HIT:     965991  MISS:          1  HIT %:    99.9999  MISS %: 0.000103521   MPKI: 2e-05
STLB PREFETCH  REQUESTED:          0  ISSUED:          0  USEFUL:          0  USELESS:          1
STLB USEFUL LOAD PREFETCHES:          0 PREFETCH ISSUED TO LOWER LEVEL:          0  ACCURACY: -nan
STLB TIMELY PREFETCHES:          0 LATE PREFETCHES: 0 DROPPED PREFETCHES: 0
STLB PREFETCHES SAME FILL-ORIGIN LEVEL: 0 DIFFERENT FILL-ORIGIN LEVEL: 0
STLB AVERAGE MISS LATENCY: 860.505 cycles
STLB RQ	ACCESS:    2578359	FORWARD:          0	MERGED:    1557788	TO_CACHE:    1020571

STLB Hit, L1D data hit: 0
STLB Hit, L2C data hit: 0
STLB Hit, LLC data hit: 0
STLB Hit, LLC data miss: 0
STLB STLB hints to L2: 0
L1D TOTAL     ACCESS:   12648881  HIT:   10837207  MISS:    1811674  HIT %:    85.6772  MISS %:    14.3228   MPKI: 36.2335
L1D LOAD      ACCESS:    8457380  HIT:    8227633  MISS:     229747  HIT %:    97.2835  MISS %:    2.71653   MPKI: 4.59494
L1D RFO       ACCESS:    1825196  HIT:    1288780  MISS:     536416  HIT %:    70.6105  MISS %:    29.3895   MPKI: 10.7283
L1D PREFETCH  ACCESS:    2366305  HIT:    1320794  MISS:    1045511  HIT %:    55.8167  MISS %:    44.1833   MPKI: 20.9102
L1D PREFETCH  REQUESTED:    7027326  ISSUED:    5092905  USEFUL:     832523  USELESS:     212975
L1D USEFUL LOAD PREFETCHES:     832523 PREFETCH ISSUED TO LOWER LEVEL:    1723633  ACCURACY: 48.3005
L1D TIMELY PREFETCHES:     832523 LATE PREFETCHES: 824114 DROPPED PREFETCHES: 0
L1D PREFETCHES SAME FILL-ORIGIN LEVEL: 1723633 DIFFERENT FILL-ORIGIN LEVEL: 0
L1D AVERAGE MISS LATENCY: 1.89343e+06 cycles
L1D RQ	ACCESS:   17793053	FORWARD:          0	MERGED:    8399242	TO_CACHE:    9393573
L1D WQ	ACCESS:    5193302	FORWARD:        239	MERGED:         18	TO_CACHE:    5193284
L1D PQ	ACCESS:    2569124	FORWARD:          0	MERGED:      45342	TO_CACHE:    2523781

L1D UNIQUE REGIONS ACCESSED: 0
L1D REGIONS CONFLICTS: 0
L1D Cross Page Prefetch Requests: 0
L1D Same Page Prefetch Requests: 4007785
L1D ROI Sum of L1D PQ occupancy: 1134047261
L1D PREFETCHES PUSHED FROM L2C: 0
L1I TOTAL     ACCESS:    8796350  HIT:    8795931  MISS:        419  HIT %:    99.9952  MISS %: 0.00476334   MPKI: 0.00838
L1I LOAD      ACCESS:    8796350  HIT:    8795931  MISS:        419  HIT %:    99.9952  MISS %: 0.00476334   MPKI: 0.00838
L1I PREFETCH  REQUESTED:          0  ISSUED:          0  USEFUL:          0  USELESS:          0
L1I USEFUL LOAD PREFETCHES:          0 PREFETCH ISSUED TO LOWER LEVEL:          0  ACCURACY: -nan
L1I TIMELY PREFETCHES:          0 LATE PREFETCHES: 0 DROPPED PREFETCHES: 0
L1I PREFETCHES SAME FILL-ORIGIN LEVEL: 0 DIFFERENT FILL-ORIGIN LEVEL: 0
L1I AVERAGE MISS LATENCY: 593.52 cycles
L1I RQ	ACCESS:   13294026	FORWARD:          0	MERGED:    4497447	TO_CACHE:    8796579

BTB TOTAL     ACCESS:    3086896  HIT:    3086656  MISS:        240  HIT %:    99.9922  MISS %:  0.0077748   MPKI: 0.0048
BTB BRANCH_DIRECT_JUMP	ACCESS:        167  HIT:        144  MISS:         23
BTB BRANCH_INDIRECT	ACCESS:          0  HIT:          0  MISS:          0
BTB BRANCH_CONDITIONAL	ACCESS:    3086455  HIT:    3086363  MISS:         92
BTB BRANCH_DIRECT_CALL	ACCESS:        137  HIT:         76  MISS:         61
BTB BRANCH_INDIRECT_CALL	ACCESS:          0  HIT:          0  MISS:          0
BTB BRANCH_RETURN	ACCESS:        137  HIT:         73  MISS:         64
BTB BRANCH_OTHER ACCESS:          0  HIT:          0  MISS:          0

L2C TOTAL     ACCESS:    4261857  HIT:    2526863  MISS:    1734994  HIT %:    59.2902  MISS %:    40.7098   MPKI: 34.6999
L2C LOAD      ACCESS:     230166  HIT:     141228  MISS:      88938  HIT %:    61.3592  MISS %:    38.6408   MPKI: 1.77876
L2C DATA LOAD MPKI: 1.77038
L2C INSTRUCTION LOAD MPKI: 0.00838
L2C RFO       ACCESS:     498456  HIT:         17  MISS:     498439  HIT %: 0.00341053  MISS %:    99.9966   MPKI: 9.96878
L2C PREFETCH  ACCESS:    2826831  HIT:    1687845  MISS:    1138986  HIT %:     59.708  MISS %:     40.292   MPKI: 22.7797
L2C DATA PREFETCH MPKI: 22.7797
L2C INSTRUCTION PREFETCH MPKI: 0
L2C WRITEBACK ACCESS:     667334  HIT:     667320  MISS:         14  HIT %:    99.9979  MISS %:  0.0020979   MPKI: 0.00028
L2C LOAD TRANSLATION ACCESS:      39068  HIT:      30453  MISS:       8615  HIT %:    77.9487  MISS %:    22.0513   MPKI: 0.1723
L2C TRANSLATION FROM L1D PREFETCHER ACCESS:          2  HIT:          0  MISS:          2  HIT %:          0  MISS %:        100   MPKI: 4e-05
L2C PREFETCH  REQUESTED:    3771047  ISSUED:    3640777  USEFUL:     124924  USELESS:    1014450
L2C USEFUL LOAD PREFETCHES:     124924 PREFETCH ISSUED TO LOWER LEVEL:    1184106  ACCURACY: 10.5501
L2C TIMELY PREFETCHES:     124924 LATE PREFETCHES: 45115 DROPPED PREFETCHES: 0
L2C PREFETCHES SAME FILL-ORIGIN LEVEL: 996414 DIFFERENT FILL-ORIGIN LEVEL: 0
L2C AVERAGE MISS LATENCY: 2410.41 cycles
L2C RQ	ACCESS:     767693	FORWARD:          0	MERGED:          0	TO_CACHE:     767693
L2C WQ	ACCESS:     667334	FORWARD:          0	MERGED:          0	TO_CACHE:     667334
L2C PQ	ACCESS:    4724252	FORWARD:          0	MERGED:     683644	TO_CACHE:    4040608

L2C Instructions Evicting Data 417
L2C Translations Evicting Data 8566
L2C Data Evicting Data 1716948
L2C Instructions Evicting Instructions 0
L2C Translations Evicting Instructions 4
L2C Data Evicting Instructions 415
L2C Instructions Evicting Translations 2
L2C Translations Evicting Translations 47
L2C Data Evicting Translations 8581
L2C Dense regions hint from L2: 0
PSCL5 TOTAL     ACCESS:      38974  HIT:      38974  MISS:          0  HIT %:        100  MISS %:          0   MPKI: 0
PSCL5 LOAD TRANSLATION ACCESS:      38973  HIT:      38973  MISS:          0  HIT %:        100  MISS %:          0   MPKI: 0
PSCL5 TRANSLATION FROM L1D PREFETCHER ACCESS:          1  HIT:          1  MISS:          0  HIT %:        100  MISS %:          0   MPKI: 0
PSCL5 PREFETCH  REQUESTED:          0  ISSUED:          0  USEFUL:          0  USELESS:          0
PSCL5 USEFUL LOAD PREFETCHES:          0 PREFETCH ISSUED TO LOWER LEVEL:          0  ACCURACY: -nan
PSCL5 TIMELY PREFETCHES:          0 LATE PREFETCHES: 0 DROPPED PREFETCHES: 0
PSCL5 PREFETCHES SAME FILL-ORIGIN LEVEL: 0 DIFFERENT FILL-ORIGIN LEVEL: 0

PSCL4 TOTAL     ACCESS:      38974  HIT:      38974  MISS:          0  HIT %:        100  MISS %:          0   MPKI: 0
PSCL4 LOAD TRANSLATION ACCESS:      38973  HIT:      38973  MISS:          0  HIT %:        100  MISS %:          0   MPKI: 0
PSCL4 TRANSLATION FROM L1D PREFETCHER ACCESS:          1  HIT:          1  MISS:          0  HIT %:        100  MISS %:          0   MPKI: 0
PSCL4 PREFETCH  REQUESTED:          0  ISSUED:          0  USEFUL:          0  USELESS:          0
PSCL4 USEFUL LOAD PREFETCHES:          0 PREFETCH ISSUED TO LOWER LEVEL:          0  ACCURACY: -nan
PSCL4 TIMELY PREFETCHES:          0 LATE PREFETCHES: 0 DROPPED PREFETCHES: 0
PSCL4 PREFETCHES SAME FILL-ORIGIN LEVEL: 0 DIFFERENT FILL-ORIGIN LEVEL: 0

PSCL3 TOTAL     ACCESS:      38974  HIT:      38973  MISS:          1  HIT %:    99.9974  MISS %: 0.00256581   MPKI: 2e-05
PSCL3 LOAD TRANSLATION ACCESS:      38973  HIT:      38972  MISS:          1  HIT %:    99.9974  MISS %: 0.00256588   MPKI: 2e-05
PSCL3 TRANSLATION FROM L1D PREFETCHER ACCESS:          1  HIT:          1  MISS:          0  HIT %:        100  MISS %:          0   MPKI: 0
PSCL3 PREFETCH  REQUESTED:          0  ISSUED:          0  USEFUL:          0  USELESS:          0
PSCL3 USEFUL LOAD PREFETCHES:          0 PREFETCH ISSUED TO LOWER LEVEL:          0  ACCURACY: -nan
PSCL3 TIMELY PREFETCHES:          0 LATE PREFETCHES: 0 DROPPED PREFETCHES: 0
PSCL3 PREFETCHES SAME FILL-ORIGIN LEVEL: 0 DIFFERENT FILL-ORIGIN LEVEL: 0

PSCL2 TOTAL     ACCESS:      38974  HIT:      38782  MISS:        192  HIT %:    99.5074  MISS %:   0.492636   MPKI: 0.00384
PSCL2 LOAD TRANSLATION ACCESS:      38974  HIT:      38782  MISS:        192  HIT %:    99.5074  MISS %:   0.492636   MPKI: 0.00384
PSCL2 PREFETCH  REQUESTED:          0  ISSUED:          0  USEFUL:          0  USELESS:          0
PSCL2 USEFUL LOAD PREFETCHES:          0 PREFETCH ISSUED TO LOWER LEVEL:          0  ACCURACY: -nan
PSCL2 TIMELY PREFETCHES:          0 LATE PREFETCHES: 0 DROPPED PREFETCHES: 0
PSCL2 PREFETCHES SAME FILL-ORIGIN LEVEL: 0 DIFFERENT FILL-ORIGIN LEVEL: 0

LLC TOTAL     ACCESS:    2400395  HIT:     666677  MISS:    1733718  HIT %:    27.7736  MISS %:    72.2264   MPKI: 34.6744
LLC LOAD      ACCESS:      43824  HIT:        207  MISS:      43617  HIT %:   0.472344  MISS %:    99.5277   MPKI: 0.87234
LLC RFO       ACCESS:     498438  HIT:         19  MISS:     498419  HIT %: 0.00381191  MISS %:    99.9962   MPKI: 9.96838
LLC PREFETCH  ACCESS:    1184101  HIT:       1019  MISS:    1183082  HIT %:  0.0860568  MISS %:    99.9139   MPKI: 23.6616
LLC WRITEBACK ACCESS:     665415  HIT:     665394  MISS:         21  HIT %:    99.9968  MISS %: 0.00315593   MPKI: 0.00042
LLC LOAD TRANSLATION ACCESS:       8615  HIT:         38  MISS:       8577  HIT %:   0.441091  MISS %:    99.5589   MPKI: 0.17154
LLC TRANSLATION FROM L1D PREFETCHER ACCESS:          2  HIT:          0  MISS:          2  HIT %:          0  MISS %:        100   MPKI: 4e-05
LLC PREFETCH  REQUESTED:          0  ISSUED:          0  USEFUL:          0  USELESS:    1184670
LLC USEFUL LOAD PREFETCHES:          0 PREFETCH ISSUED TO LOWER LEVEL:    1183087  ACCURACY: 0
LLC TIMELY PREFETCHES:          0 LATE PREFETCHES: 0 DROPPED PREFETCHES: 0
LLC PREFETCHES SAME FILL-ORIGIN LEVEL: 0 DIFFERENT FILL-ORIGIN LEVEL: 0
LLC AVERAGE MISS LATENCY: 2418.34 cycles
LLC RQ	ACCESS:     550880	FORWARD:          0	MERGED:          0	TO_CACHE:     550880
LLC WQ	ACCESS:     665415	FORWARD:          0	MERGED:          0	TO_CACHE:     665415
LLC PQ	ACCESS:    1184106	FORWARD:          0	MERGED:          0	TO_CACHE:    1184106

LLC Dense regions hint to LLC: 0

RAW hits: 1949
Loads Generated: 17795006
Loads sent to L1D: 17793053
Stores Generated: 5193403
Stores sent to L1D: 5193404
Major fault: 0 Minor fault: 31870
Allocated PAGES: 31870

stream: 
stream:times selected: 2235502
stream:pref_filled: 1331765
stream:pref_useful: 1105142
stream:pref_late: 202914
stream:misses: 1045
stream:misses_by_poll: 0

CS: 
CS:times selected: 2138729
CS:pref_filled: 1811
CS:pref_useful: 1565
CS:pref_late: 127
CS:misses: 1129263
CS:misses_by_poll: 21

CPLX: 
CPLX:times selected: 96657
CPLX:pref_filled: 412
CPLX:pref_useful: 70
CPLX:pref_late: 29
CPLX:misses: 35568
CPLX:misses_by_poll: 2

NL_L1: 
NL:times selected: 134
NL:pref_filled: 3
NL:pref_useful: 3
NL:pref_late: 0
NL:misses: 64
NL:misses_by_poll: 0

total selections: 4471022
total_filled: 1045511
total_useful: 832523
total_late: 203072
total_polluted: 23
total_misses_after_warmup: 1165941
conflicts: 1102
Degree Incremented Times: 80945
Degree Decremented Times: 3

L1 IP Table Write Accesses: 9379773
L1 IP Table Read Accesses: 9378671
L1 RST Write Accesses: 1827678
L1 RST Read Accesses: 3655356
L1 CSPT Write Accesses: 1827678
L1 CSPT Read Accesses: 1954667
L1 RR Filter Tag Write Accesses: 4503545
L1 RR Filter Tag Read Accesses: 397383955
L1 IP Table Tag Write Accesses: 9393574
L1 IP Table Tag Read Accesses: 9393574
L1 RST Tag Write Accesses: 0
L1 RST Tag Read Accesses: 16481776
L1 RR Filter Write Accesses: 0
L1 RR Filter Read Accesses: 15484490
test: 49214
L2 IP Table Read Accesses: 1343882
L2 IP Table Write Accesses: 1116329
L2 IP Table Tag Read Accesses: 672732
L2 IP Table Tag Write Accesses: 672732

DRAM Statistics
 CHANNEL 0
 RQ ROW_BUFFER_HIT:     671459  ROW_BUFFER_MISS:    1062238
 DBUS_CONGESTED:    2310125
 WQ ROW_BUFFER_HIT:      64492  ROW_BUFFER_MISS:     599527  FULL:          0

 AVG_CONGESTED_CYCLE: 78
 All warmup complete: 2
Channel 0 Bank busy for read cycles: 0
Channel 0 Bank busy for write cycles: 0
Channel 0
Rank 0
0banks busy for read cycles: 1175705
0banks busy for write cycles: 1821
1banks busy for read cycles: 1973611
1banks busy for write cycles: 345888
2banks busy for read cycles: 2144091
2banks busy for write cycles: 142099
3banks busy for read cycles: 1860992
3banks busy for write cycles: 131892
4banks busy for read cycles: 2472826
4banks busy for write cycles: 152047
5banks busy for read cycles: 3666704
5banks busy for write cycles: 151442
6banks busy for read cycles: 6074821
6banks busy for write cycles: 184331
7banks busy for read cycles: 15796074
7banks busy for write cycles: 1193851
8banks busy for read cycles: 112051393
8banks busy for write cycles: 56351954

CPU 0 Branch Prediction Accuracy: 99.7911% MPKI: 0.12922 Average ROB Occupancy at Mispredict: 176.509
Branch types
NOT_BRANCH: 46907122 93.8142%
BRANCH_DIRECT_JUMP: 167 0.000334%
BRANCH_INDIRECT: 0 0%
BRANCH_CONDITIONAL: 3092362 6.18472%
BRANCH_DIRECT_CALL: 137 0.000274%
BRANCH_INDIRECT_CALL: 0 0%
BRANCH_RETURN: 137 0.000274%
BRANCH_OTHER: 0 0%

@sumon_overall_L1D    832523    824114    212975   1045511   5092905   7027326
@Sumon_Early_by_class_L1D    831123      1319        70         0
@Sumon_Late_by_class_L1D    202822       127        29         0

@Sumon_Early_by_cycle_L1D     41215     43328     82908     67763     52255    175170    233503     94988     23249     15450      2694         0
@Sumon_Late_by_cycle_L1D     37585     28234     28903     16512     15090     52396     21158      3023        78         1         0         0
@Sumon_Early_stream_L1D     41058     43156     82789     67707     52212    174839    233308     94742     23191     15427      2694         0
@Sumon_Early_CS_L1D       148       168       107        55        43       321       181       222        55        19         0         0
@Sumon_Early_CPLX_L1D         9         4         9         1         0         5        12        23         3         4         0         0
@Sumon_Late_stream_L1D     37540     28217     28889     16504     15080     52353     21141      3019        78         1         0         0
@Sumon_Late_CS_L1D        37        14        13         6         9        33        13         2         0         0         0         0
@Sumon_Late_CPLX_L1D         8         3         1         2         1         9         3         2         0         0         0         0
@sumon_overall_L2C    124924     45115   1014450   1138988   3640777   3771047
@Sumon_Early_by_class_L2C    124535       322         0         0
@Sumon_Late_by_class_L2C     44950        77         0         0

@Sumon_Early_by_cycle_L2C      1984      2773      6473      3919      2779     14795     14412     36948     27376      3560       317      9588
@Sumon_Late_by_cycle_L2C      2428      4475      4240      3124      2928     20933      6716       270         1         0         0         0
@Sumon_Early_stream_L2C      1973      2759      6456      3893      2754     14679     14306     36902     27373      3558       312      9570
@Sumon_Early_CS_L2C         8        10        13        23        23       104        95        38         3         0         0         5
@Sumon_Early_CPLX_L2C         0         0         0         0         0         0         0         0         0         0         0         0
@Sumon_Late_stream_L2C      2355      4458      4223      3113      2923     20911      6698       268         1         0         0         0
@Sumon_Late_CS_L2C         5         8         9        10         5        20        18         2         0         0         0         0
@Sumon_Late_CPLX_L2C         0         0         0         0         0         0         0         0         0         0         0         0
DRAM PAGES: 1048576
Allocated PAGES: 31870
