
*** ChampSim Multicore Out-of-Order Simulator ***

Warmup Instructions: 10000000
Simulation Instructions: 50000000
Number of CPUs: 1
LLC sets: 2048
LLC ways: 16
Off-chip DRAM Size: 4096 MB Channels: 1 Width: 64-bit Data Rate: 6400 MT/s
CPU 0 runs traces/clientserver/client_003.champsimtrace.xz
.xz
CPU 0 Bimodal branch predictor
BTB has LRU replacement policy
ITLB has LRU replacement policy
DTLB has LRU replacement policy
STLB has LRU replacement policy
L1I has LRU replacement policy
IP Table Entries: 256
L1D has LRU replacement policy
IP_Table L2 entries: 256
L2C has LRU replacement policy
LLC has LRU replacement policy
Heartbeat CPU 0 instructions: 10000000 cycles: 2803281 heartbeat IPC: 3.56725 cumulative IPC: 3.56725 (Simulation time: 0 hr 8 min 45 sec) 

Warmup complete CPU 0 instructions: 10000004 cycles: 2803282 (Simulation time: 0 hr 8 min 45 sec) 

Heartbeat CPU 0 instructions: 20000000 cycles: 20723400 heartbeat IPC: 0.558032 cumulative IPC: 0.558032 (Simulation time: 0 hr 16 min 55 sec) 
Heartbeat CPU 0 instructions: 30000000 cycles: 35750138 heartbeat IPC: 0.66548 cumulative IPC: 0.607038 (Simulation time: 0 hr 25 min 30 sec) 
Heartbeat CPU 0 instructions: 40000000 cycles: 50321759 heartbeat IPC: 0.686265 cumulative IPC: 0.631333 (Simulation time: 0 hr 34 min 9 sec) 
Heartbeat CPU 0 instructions: 50000003 cycles: 64383101 heartbeat IPC: 0.71117 cumulative IPC: 0.649563 (Simulation time: 0 hr 42 min 38 sec) 
Heartbeat CPU 0 instructions: 60000002 cycles: 78966619 heartbeat IPC: 0.685706 cumulative IPC: 0.656484 (Simulation time: 0 hr 50 min 34 sec) 
Finished CPU 0 instructions: 50000001 cycles: 76163339 cumulative IPC: 0.656484 (Simulation time: 0 hr 50 min 34 sec) 

ChampSim completed all CPUs

Region of Interest Statistics

CPU 0 cumulative IPC: 0.656484 instructions: 50000001 cycles: 76163339
ITLB TOTAL     ACCESS:    8474345  HIT:    8402947  MISS:      71398  HIT %:    99.1575  MISS %:   0.842519   MPKI: 1.42796
ITLB LOAD TRANSLATION ACCESS:    8474345  HIT:    8402947  MISS:      71398  HIT %:    99.1575  MISS %:   0.842519   MPKI: 1.42796
ITLB PREFETCH  REQUESTED:          0  ISSUED:          0  USEFUL:          0  USELESS:          0
ITLB USEFUL LOAD PREFETCHES:          0 PREFETCH ISSUED TO LOWER LEVEL:          0  ACCURACY: -nan
ITLB TIMELY PREFETCHES:          0 LATE PREFETCHES: 0 DROPPED PREFETCHES: 0
ITLB PREFETCHES SAME FILL-ORIGIN LEVEL: 0 DIFFERENT FILL-ORIGIN LEVEL: 0
ITLB AVERAGE MISS LATENCY: 9.96843 cycles
ITLB RQ	ACCESS:   10051589	FORWARD:          0	MERGED:    1556959	TO_CACHE:    8494630

DTLB TOTAL     ACCESS:   11004235  HIT:   10884004  MISS:     120231  HIT %:    98.9074  MISS %:    1.09259   MPKI: 2.40462
DTLB LOAD TRANSLATION ACCESS:   11004235  HIT:   10884004  MISS:     120231  HIT %:    98.9074  MISS %:    1.09259   MPKI: 2.40462
DTLB PREFETCH  REQUESTED:          0  ISSUED:          0  USEFUL:          0  USELESS:          0
DTLB USEFUL LOAD PREFETCHES:          0 PREFETCH ISSUED TO LOWER LEVEL:          0  ACCURACY: -nan
DTLB TIMELY PREFETCHES:          0 LATE PREFETCHES: 0 DROPPED PREFETCHES: 0
DTLB PREFETCHES SAME FILL-ORIGIN LEVEL: 0 DIFFERENT FILL-ORIGIN LEVEL: 0
DTLB AVERAGE MISS LATENCY: 10.3142 cycles
DTLB RQ	ACCESS:   15122021	FORWARD:          0	MERGED:    4109482	TO_CACHE:   11012539

STLB TOTAL     ACCESS:     490484  HIT:     488712  MISS:       1772  HIT %:    99.6387  MISS %:   0.361276   MPKI: 0.03544
STLB LOAD TRANSLATION ACCESS:     191629  HIT:     189857  MISS:       1772  HIT %:    99.0753  MISS %:   0.924703   MPKI: 0.03544
STLB TRANSLATION FROM L1D PREFETCHER ACCESS:     298855  HIT:     298855  MISS:          0  HIT %:        100  MISS %:          0   MPKI: 0
STLB PREFETCH  REQUESTED:          0  ISSUED:          0  USEFUL:          0  USELESS:          0
STLB USEFUL LOAD PREFETCHES:          0 PREFETCH ISSUED TO LOWER LEVEL:          0  ACCURACY: -nan
STLB TIMELY PREFETCHES:          0 LATE PREFETCHES: 0 DROPPED PREFETCHES: 0
STLB PREFETCHES SAME FILL-ORIGIN LEVEL: 0 DIFFERENT FILL-ORIGIN LEVEL: 0
STLB AVERAGE MISS LATENCY: 125.305 cycles
STLB RQ	ACCESS:     565087	FORWARD:          0	MERGED:      74603	TO_CACHE:     490484

STLB Hit, L1D data hit: 0
STLB Hit, L2C data hit: 0
STLB Hit, LLC data hit: 0
STLB Hit, LLC data miss: 0
STLB STLB hints to L2: 0
L1D TOTAL     ACCESS:   15139381  HIT:   14789858  MISS:     349523  HIT %:    97.6913  MISS %:     2.3087   MPKI: 6.99046
L1D LOAD      ACCESS:    7433406  HIT:    7310892  MISS:     122514  HIT %:    98.3518  MISS %:    1.64815   MPKI: 2.45028
L1D RFO       ACCESS:    7338834  HIT:    7183490  MISS:     155344  HIT %:    97.8833  MISS %:    2.11674   MPKI: 3.10688
L1D PREFETCH  ACCESS:     367141  HIT:     295476  MISS:      71665  HIT %:    80.4803  MISS %:    19.5197   MPKI: 1.4333
L1D PREFETCH  REQUESTED:     747582  ISSUED:     747582  USEFUL:      21342  USELESS:      50297
L1D USEFUL LOAD PREFETCHES:      21342 PREFETCH ISSUED TO LOWER LEVEL:      73982  ACCURACY: 28.8476
L1D TIMELY PREFETCHES:      21342 LATE PREFETCHES: 2176 DROPPED PREFETCHES: 0
L1D PREFETCHES SAME FILL-ORIGIN LEVEL: 73982 DIFFERENT FILL-ORIGIN LEVEL: 0
L1D AVERAGE MISS LATENCY: 300584 cycles
L1D RQ	ACCESS:   12011014	FORWARD:          0	MERGED:    4401095	TO_CACHE:    7445732
L1D WQ	ACCESS:    7811254	FORWARD:     164853	MERGED:     134965	TO_CACHE:    7676289
L1D PQ	ACCESS:     374124	FORWARD:          0	MERGED:          0	TO_CACHE:     373458

L1D UNIQUE REGIONS ACCESSED: 0
L1D REGIONS CONFLICTS: 0
L1D Cross Page Prefetch Requests: 0
L1D Same Page Prefetch Requests: 444595
L1D ROI Sum of L1D PQ occupancy: 4822705
L1D PREFETCHES PUSHED FROM L2C: 0
L1I TOTAL     ACCESS:    9924698  HIT:    9389583  MISS:     535115  HIT %:    94.6082  MISS %:    5.39175   MPKI: 10.7023
L1I LOAD      ACCESS:    9924698  HIT:    9389583  MISS:     535115  HIT %:    94.6082  MISS %:    5.39175   MPKI: 10.7023
L1I PREFETCH  REQUESTED:          0  ISSUED:          0  USEFUL:          0  USELESS:          0
L1I USEFUL LOAD PREFETCHES:          0 PREFETCH ISSUED TO LOWER LEVEL:          0  ACCURACY: -nan
L1I TIMELY PREFETCHES:          0 LATE PREFETCHES: 0 DROPPED PREFETCHES: 0
L1I PREFETCHES SAME FILL-ORIGIN LEVEL: 0 DIFFERENT FILL-ORIGIN LEVEL: 0
L1I AVERAGE MISS LATENCY: 23.2428 cycles
L1I RQ	ACCESS:   14767339	FORWARD:          0	MERGED:    4715750	TO_CACHE:   10051589

BTB TOTAL     ACCESS:    6766808  HIT:    6169221  MISS:     597587  HIT %:    91.1688  MISS %:    8.83115   MPKI: 11.9517
BTB BRANCH_DIRECT_JUMP	ACCESS:     494781  HIT:     477302  MISS:      17479
BTB BRANCH_INDIRECT	ACCESS:     114379  HIT:      50385  MISS:      63994
BTB BRANCH_CONDITIONAL	ACCESS:    3862756  HIT:    3810705  MISS:      52051
BTB BRANCH_DIRECT_CALL	ACCESS:     995377  HIT:     956807  MISS:      38570
BTB BRANCH_INDIRECT_CALL	ACCESS:     151743  HIT:     115162  MISS:      36581
BTB BRANCH_RETURN	ACCESS:    1147772  HIT:     758860  MISS:     388912
BTB BRANCH_OTHER ACCESS:          0  HIT:          0  MISS:          0

L2C TOTAL     ACCESS:    1138861  HIT:     867296  MISS:     271565  HIT %:    76.1547  MISS %:    23.8453   MPKI: 5.4313
L2C LOAD      ACCESS:     655453  HIT:     547103  MISS:     108350  HIT %:    83.4694  MISS %:    16.5306   MPKI: 2.167
L2C DATA LOAD MPKI: 0.70228
L2C INSTRUCTION LOAD MPKI: 1.46472
L2C RFO       ACCESS:     155202  HIT:      40331  MISS:     114871  HIT %:    25.9861  MISS %:    74.0139   MPKI: 2.29742
L2C PREFETCH  ACCESS:     137252  HIT:      91156  MISS:      46096  HIT %:    66.4151  MISS %:    33.5849   MPKI: 0.92192
L2C DATA PREFETCH MPKI: 0.92192
L2C INSTRUCTION PREFETCH MPKI: 0
L2C WRITEBACK ACCESS:     189114  HIT:     187827  MISS:       1287  HIT %:    99.3195  MISS %:   0.680542   MPKI: 0.02574
L2C LOAD TRANSLATION ACCESS:       1840  HIT:        879  MISS:        961  HIT %:    47.7717  MISS %:    52.2283   MPKI: 0.01922
L2C PREFETCH  REQUESTED:      65431  ISSUED:      65431  USEFUL:      10165  USELESS:      35880
L2C USEFUL LOAD PREFETCHES:      10165 PREFETCH ISSUED TO LOWER LEVEL:      46370  ACCURACY: 21.9215
L2C TIMELY PREFETCHES:      10165 LATE PREFETCHES: 274 DROPPED PREFETCHES: 0
L2C PREFETCHES SAME FILL-ORIGIN LEVEL: 14659 DIFFERENT FILL-ORIGIN LEVEL: 0
L2C AVERAGE MISS LATENCY: 75.7615 cycles
L2C RQ	ACCESS:     812496	FORWARD:          0	MERGED:          0	TO_CACHE:     812495
L2C WQ	ACCESS:     189114	FORWARD:          2	MERGED:          0	TO_CACHE:     189114
L2C PQ	ACCESS:     139413	FORWARD:          0	MERGED:       1294	TO_CACHE:     138118

L2C Instructions Evicting Data 47472
L2C Translations Evicting Data 667
L2C Data Evicting Data 147321
L2C Instructions Evicting Instructions 25451
L2C Translations Evicting Instructions 290
L2C Data Evicting Instructions 48093
L2C Instructions Evicting Translations 313
L2C Translations Evicting Translations 4
L2C Data Evicting Translations 667
L2C Dense regions hint from L2: 0
PSCL5 TOTAL     ACCESS:       1772  HIT:       1772  MISS:          0  HIT %:        100  MISS %:          0   MPKI: 0
PSCL5 LOAD TRANSLATION ACCESS:       1772  HIT:       1772  MISS:          0  HIT %:        100  MISS %:          0   MPKI: 0
PSCL5 PREFETCH  REQUESTED:          0  ISSUED:          0  USEFUL:          0  USELESS:          0
PSCL5 USEFUL LOAD PREFETCHES:          0 PREFETCH ISSUED TO LOWER LEVEL:          0  ACCURACY: -nan
PSCL5 TIMELY PREFETCHES:          0 LATE PREFETCHES: 0 DROPPED PREFETCHES: 0
PSCL5 PREFETCHES SAME FILL-ORIGIN LEVEL: 0 DIFFERENT FILL-ORIGIN LEVEL: 0

PSCL4 TOTAL     ACCESS:       1772  HIT:       1772  MISS:          0  HIT %:        100  MISS %:          0   MPKI: 0
PSCL4 LOAD TRANSLATION ACCESS:       1772  HIT:       1772  MISS:          0  HIT %:        100  MISS %:          0   MPKI: 0
PSCL4 PREFETCH  REQUESTED:          0  ISSUED:          0  USEFUL:          0  USELESS:          0
PSCL4 USEFUL LOAD PREFETCHES:          0 PREFETCH ISSUED TO LOWER LEVEL:          0  ACCURACY: -nan
PSCL4 TIMELY PREFETCHES:          0 LATE PREFETCHES: 0 DROPPED PREFETCHES: 0
PSCL4 PREFETCHES SAME FILL-ORIGIN LEVEL: 0 DIFFERENT FILL-ORIGIN LEVEL: 0

PSCL3 TOTAL     ACCESS:       1770  HIT:       1770  MISS:          0  HIT %:        100  MISS %:          0   MPKI: 0
PSCL3 LOAD TRANSLATION ACCESS:       1770  HIT:       1770  MISS:          0  HIT %:        100  MISS %:          0   MPKI: 0
PSCL3 PREFETCH  REQUESTED:          0  ISSUED:          0  USEFUL:          0  USELESS:          0
PSCL3 USEFUL LOAD PREFETCHES:          0 PREFETCH ISSUED TO LOWER LEVEL:          0  ACCURACY: -nan
PSCL3 TIMELY PREFETCHES:          0 LATE PREFETCHES: 0 DROPPED PREFETCHES: 0
PSCL3 PREFETCHES SAME FILL-ORIGIN LEVEL: 0 DIFFERENT FILL-ORIGIN LEVEL: 0

PSCL2 TOTAL     ACCESS:       1772  HIT:       1701  MISS:         71  HIT %:    95.9932  MISS %:    4.00677   MPKI: 0.00142
PSCL2 LOAD TRANSLATION ACCESS:       1772  HIT:       1701  MISS:         71  HIT %:    95.9932  MISS %:    4.00677   MPKI: 0.00142
PSCL2 PREFETCH  REQUESTED:          0  ISSUED:          0  USEFUL:          0  USELESS:          0
PSCL2 USEFUL LOAD PREFETCHES:          0 PREFETCH ISSUED TO LOWER LEVEL:          0  ACCURACY: -nan
PSCL2 TIMELY PREFETCHES:          0 LATE PREFETCHES: 0 DROPPED PREFETCHES: 0
PSCL2 PREFETCHES SAME FILL-ORIGIN LEVEL: 0 DIFFERENT FILL-ORIGIN LEVEL: 0

LLC TOTAL     ACCESS:     404060  HIT:     313859  MISS:      90201  HIT %:    77.6763  MISS %:    22.3237   MPKI: 1.80402
LLC LOAD      ACCESS:     108146  HIT:      85695  MISS:      22451  HIT %:    79.2401  MISS %:    20.7599   MPKI: 0.44902
LLC RFO       ACCESS:     114801  HIT:      59670  MISS:      55131  HIT %:    51.9769  MISS %:    48.0231   MPKI: 1.10262
LLC PREFETCH  ACCESS:      46370  HIT:      34422  MISS:      11948  HIT %:    74.2333  MISS %:    25.7667   MPKI: 0.23896
LLC WRITEBACK ACCESS:     133782  HIT:     133560  MISS:        222  HIT %:    99.8341  MISS %:   0.165942   MPKI: 0.00444
LLC LOAD TRANSLATION ACCESS:        961  HIT:        512  MISS:        449  HIT %:    53.2778  MISS %:    46.7222   MPKI: 0.00898
LLC PREFETCH  REQUESTED:          0  ISSUED:          0  USEFUL:       2879  USELESS:       9547
LLC USEFUL LOAD PREFETCHES:       2879 PREFETCH ISSUED TO LOWER LEVEL:      11948  ACCURACY: 24.0961
LLC TIMELY PREFETCHES:       2879 LATE PREFETCHES: 0 DROPPED PREFETCHES: 0
LLC PREFETCHES SAME FILL-ORIGIN LEVEL: 0 DIFFERENT FILL-ORIGIN LEVEL: 0
LLC AVERAGE MISS LATENCY: 138.107 cycles
LLC RQ	ACCESS:     223908	FORWARD:          0	MERGED:          0	TO_CACHE:     223908
LLC WQ	ACCESS:     133782	FORWARD:          0	MERGED:          0	TO_CACHE:     133782
LLC PQ	ACCESS:      46370	FORWARD:          0	MERGED:          0	TO_CACHE:      46370

LLC Dense regions hint to LLC: 0

RAW hits: 1563842
Loads Generated: 13574857
Loads sent to L1D: 12011014
Stores Generated: 7811247
Stores sent to L1D: 7811254
Major fault: 0 Minor fault: 2338
Allocated PAGES: 2338

stream: 
stream:times selected: 675528
stream:pref_filled: 50854
stream:pref_useful: 13397
stream:pref_late: 1069
stream:misses: 5823
stream:misses_by_poll: 0

CS: 
CS:times selected: 49783
CS:pref_filled: 15231
CS:pref_useful: 9914
CS:pref_late: 926
CS:misses: 4038
CS:misses_by_poll: 8

CPLX: 
CPLX:times selected: 623197
CPLX:pref_filled: 21363
CPLX:pref_useful: 3268
CPLX:pref_late: 79
CPLX:misses: 29750
CPLX:misses_by_poll: 25

NL_L1: 
NL:times selected: 6462
NL:pref_filled: 624
NL:pref_useful: 209
NL:pref_late: 18
NL:misses: 344
NL:misses_by_poll: 0

total selections: 1354970
total_filled: 71665
total_useful: 21342
total_late: 2304
total_polluted: 33
total_misses_after_warmup: 134838
conflicts: 2432760
Degree Incremented Times: 0
Degree Decremented Times: 89875

L1 IP Table Write Accesses: 4573077
L1 IP Table Read Accesses: 2140317
L1 RST Write Accesses: 574924
L1 RST Read Accesses: 1149848
L1 CSPT Write Accesses: 574924
L1 CSPT Read Accesses: 1108941
L1 RR Filter Tag Write Accesses: 374124
L1 RR Filter Tag Read Accesses: 21803074
L1 IP Table Tag Write Accesses: 7445730
L1 IP Table Tag Read Accesses: 7445730
L1 RST Tag Write Accesses: 0
L1 RST Tag Read Accesses: 5316008
L1 RR Filter Write Accesses: 0
L1 RR Filter Read Accesses: 832482
test: 181658
L2 IP Table Read Accesses: 319663
L2 IP Table Write Accesses: 306197
L2 IP Table Tag Read Accesses: 193141
L2 IP Table Tag Write Accesses: 193141

DRAM Statistics
 CHANNEL 0
 RQ ROW_BUFFER_HIT:      33649  ROW_BUFFER_MISS:      56328
 DBUS_CONGESTED:         56
 WQ ROW_BUFFER_HIT:      12008  ROW_BUFFER_MISS:      47294  FULL:          0

 AVG_CONGESTED_CYCLE: 3
 All warmup complete: 2
Channel 0 Bank busy for read cycles: 0
Channel 0 Bank busy for write cycles: 0
Channel 0
Rank 0
0banks busy for read cycles: 64895521
0banks busy for write cycles: 21019
1banks busy for read cycles: 4847744
1banks busy for write cycles: 2676039
2banks busy for read cycles: 1118686
2banks busy for write cycles: 910417
3banks busy for read cycles: 218632
3banks busy for write cycles: 361373
4banks busy for read cycles: 96689
4banks busy for write cycles: 199379
5banks busy for read cycles: 59370
5banks busy for write cycles: 124155
6banks busy for read cycles: 63980
6banks busy for write cycles: 91249
7banks busy for read cycles: 64235
7banks busy for write cycles: 91661
8banks busy for read cycles: 109695
8banks busy for write cycles: 213496

CPU 0 Branch Prediction Accuracy: 95.2436% MPKI: 8.774 Average ROB Occupancy at Mispredict: 37.8829
Branch types
NOT_BRANCH: 40776380 81.5528%
BRANCH_DIRECT_JUMP: 494781 0.989562%
BRANCH_INDIRECT: 114379 0.228758%
BRANCH_CONDITIONAL: 6319235 12.6385%
BRANCH_DIRECT_CALL: 995377 1.99075%
BRANCH_INDIRECT_CALL: 151743 0.303486%
BRANCH_RETURN: 1147772 2.29554%
BRANCH_OTHER: 0 0%

@sumon_overall_L1D     21342      2176     50297     71665    747582    747582
@Sumon_Early_by_class_L1D     10918      7200      2696        14
@Sumon_Late_by_class_L1D       978       906        76        14

@Sumon_Early_by_cycle_L1D      3689      2336      1379       754       643      3002      2895      1442      1194      1547      1273      1188
@Sumon_Late_by_cycle_L1D      1678       497         1         0         0         0         0         0         0         0         0         0
@Sumon_Early_stream_L1D      2490      1195       760       465       450      1332       882       687       630       909       599       519
@Sumon_Early_CS_L1D       771       949       471       168       120      1381      1748       422       217       171       355       427
@Sumon_Early_CPLX_L1D       277       155       122       100        61       251       220       275       298       417       297       223
@Sumon_Late_stream_L1D       644       333         1         0         0         0         0         0         0         0         0         0
@Sumon_Late_CS_L1D       784       122         0         0         0         0         0         0         0         0         0         0
@Sumon_Late_CPLX_L1D        51        25         0         0         0         0         0         0         0         0         0         0
@sumon_overall_L2C     10165       274     35880     46096     65431     65431
@Sumon_Early_by_class_L2C      3028      1463      1242         0
@Sumon_Late_by_class_L2C         0         0         0         0

@Sumon_Early_by_cycle_L2C       404       209       245       148        90       399       250       277       228       293       452      7170
@Sumon_Late_by_cycle_L2C       181        93         0         0         0         0         0         0         0         0         0         0
@Sumon_Early_stream_L2C         0         0         0         0         0         0         0         0         4        28       113      2883
@Sumon_Early_CS_L2C         0         0         0         0         0         0         0         0         0         6        73      1384
@Sumon_Early_CPLX_L2C         0         0         0         0         0         0         0         0         1         8        63      1170
@Sumon_Late_stream_L2C         0         0         0         0         0         0         0         0         0         0         0         0
@Sumon_Late_CS_L2C         0         0         0         0         0         0         0         0         0         0         0         0
@Sumon_Late_CPLX_L2C         0         0         0         0         0         0         0         0         0         0         0         0
DRAM PAGES: 1048576
Allocated PAGES: 2338
