
*** ChampSim Multicore Out-of-Order Simulator ***

Warmup Instructions: 10000000
Simulation Instructions: 50000000
Number of CPUs: 1
LLC sets: 2048
LLC ways: 16
Off-chip DRAM Size: 4096 MB Channels: 1 Width: 64-bit Data Rate: 6400 MT/s
CPU 0 runs traces/clientserver/server_035.champsimtrace.xz
.xz
CPU 0 Bimodal branch predictor
BTB has LRU replacement policy
ITLB has LRU replacement policy
DTLB has LRU replacement policy
STLB has LRU replacement policy
L1I has LRU replacement policy
IP Table Entries: 256
L1D has LRU replacement policy
IP_Table L2 entries: 256
L2C has LRU replacement policy
LLC has LRU replacement policy
Heartbeat CPU 0 instructions: 10000001 cycles: 2770422 heartbeat IPC: 3.60956 cumulative IPC: 3.60956 (Simulation time: 0 hr 8 min 24 sec) 

Warmup complete CPU 0 instructions: 10000001 cycles: 2770422 (Simulation time: 0 hr 8 min 24 sec) 

Heartbeat CPU 0 instructions: 20000000 cycles: 24434780 heartbeat IPC: 0.461588 cumulative IPC: 0.461588 (Simulation time: 0 hr 16 min 59 sec) 
Heartbeat CPU 0 instructions: 30000000 cycles: 45435672 heartbeat IPC: 0.47617 cumulative IPC: 0.468766 (Simulation time: 0 hr 25 min 27 sec) 
Heartbeat CPU 0 instructions: 40000000 cycles: 67105623 heartbeat IPC: 0.461469 cumulative IPC: 0.466308 (Simulation time: 0 hr 34 min 8 sec) 
Heartbeat CPU 0 instructions: 50000000 cycles: 87939511 heartbeat IPC: 0.479987 cumulative IPC: 0.469654 (Simulation time: 0 hr 42 min 35 sec) 
Heartbeat CPU 0 instructions: 60000001 cycles: 109407567 heartbeat IPC: 0.465808 cumulative IPC: 0.46888 (Simulation time: 0 hr 50 min 41 sec) 
Finished CPU 0 instructions: 50000000 cycles: 106637145 cumulative IPC: 0.46888 (Simulation time: 0 hr 50 min 41 sec) 

ChampSim completed all CPUs

Region of Interest Statistics

CPU 0 cumulative IPC: 0.46888 instructions: 50000000 cycles: 106637145
ITLB TOTAL     ACCESS:    8918686  HIT:    8415022  MISS:     503664  HIT %:    94.3527  MISS %:    5.64729   MPKI: 10.0733
ITLB LOAD TRANSLATION ACCESS:    8918686  HIT:    8415022  MISS:     503664  HIT %:    94.3527  MISS %:    5.64729   MPKI: 10.0733
ITLB PREFETCH  REQUESTED:          0  ISSUED:          0  USEFUL:          0  USELESS:          0
ITLB USEFUL LOAD PREFETCHES:          0 PREFETCH ISSUED TO LOWER LEVEL:          0  ACCURACY: -nan
ITLB TIMELY PREFETCHES:          0 LATE PREFETCHES: 0 DROPPED PREFETCHES: 0
ITLB PREFETCHES SAME FILL-ORIGIN LEVEL: 0 DIFFERENT FILL-ORIGIN LEVEL: 0
ITLB AVERAGE MISS LATENCY: 9.13362 cycles
ITLB RQ	ACCESS:   10582577	FORWARD:          0	MERGED:    1540281	TO_CACHE:    9042296

DTLB TOTAL     ACCESS:   10603975  HIT:   10154031  MISS:     449944  HIT %:    95.7568  MISS %:    4.24316   MPKI: 8.99888
DTLB LOAD TRANSLATION ACCESS:   10603975  HIT:   10154031  MISS:     449944  HIT %:    95.7568  MISS %:    4.24316   MPKI: 8.99888
DTLB PREFETCH  REQUESTED:          0  ISSUED:          0  USEFUL:          0  USELESS:          0
DTLB USEFUL LOAD PREFETCHES:          0 PREFETCH ISSUED TO LOWER LEVEL:          0  ACCURACY: -nan
DTLB TIMELY PREFETCHES:          0 LATE PREFETCHES: 0 DROPPED PREFETCHES: 0
DTLB PREFETCHES SAME FILL-ORIGIN LEVEL: 0 DIFFERENT FILL-ORIGIN LEVEL: 0
DTLB AVERAGE MISS LATENCY: 11.1506 cycles
DTLB RQ	ACCESS:   14202310	FORWARD:          0	MERGED:    3586605	TO_CACHE:   10615705

STLB TOTAL     ACCESS:    1203700  HIT:    1194755  MISS:       8945  HIT %:    99.2569  MISS %:   0.743125   MPKI: 0.1789
STLB LOAD TRANSLATION ACCESS:     953608  HIT:     944663  MISS:       8945  HIT %:     99.062  MISS %:   0.938016   MPKI: 0.1789
STLB TRANSLATION FROM L1D PREFETCHER ACCESS:     250092  HIT:     250092  MISS:          0  HIT %:        100  MISS %:          0   MPKI: 0
STLB PREFETCH  REQUESTED:          0  ISSUED:          0  USEFUL:          0  USELESS:          0
STLB USEFUL LOAD PREFETCHES:          0 PREFETCH ISSUED TO LOWER LEVEL:          0  ACCURACY: -nan
STLB TIMELY PREFETCHES:          0 LATE PREFETCHES: 0 DROPPED PREFETCHES: 0
STLB PREFETCHES SAME FILL-ORIGIN LEVEL: 0 DIFFERENT FILL-ORIGIN LEVEL: 0
STLB AVERAGE MISS LATENCY: 113.283 cycles
STLB RQ	ACCESS:    1323035	FORWARD:          0	MERGED:     119335	TO_CACHE:    1203700

STLB Hit, L1D data hit: 0
STLB Hit, L2C data hit: 0
STLB Hit, LLC data hit: 0
STLB Hit, LLC data miss: 0
STLB STLB hints to L2: 0
L1D TOTAL     ACCESS:   14410694  HIT:   13472106  MISS:     938588  HIT %:    93.4869  MISS %:    6.51314   MPKI: 18.7718
L1D LOAD      ACCESS:    7749141  HIT:    7114654  MISS:     634487  HIT %:    91.8122  MISS %:    8.18784   MPKI: 12.6897
L1D RFO       ACCESS:    6307623  HIT:    6191415  MISS:     116208  HIT %:    98.1577  MISS %:    1.84234   MPKI: 2.32416
L1D PREFETCH  ACCESS:     353930  HIT:     166037  MISS:     187893  HIT %:    46.9124  MISS %:    53.0876   MPKI: 3.75786
L1D PREFETCH  REQUESTED:     739801  ISSUED:     739332  USEFUL:      25867  USELESS:     162031
L1D USEFUL LOAD PREFETCHES:      25867 PREFETCH ISSUED TO LOWER LEVEL:     190488  ACCURACY: 13.5793
L1D TIMELY PREFETCHES:      25867 LATE PREFETCHES: 2195 DROPPED PREFETCHES: 0
L1D PREFETCHES SAME FILL-ORIGIN LEVEL: 190488 DIFFERENT FILL-ORIGIN LEVEL: 0
L1D AVERAGE MISS LATENCY: 187328 cycles
L1D RQ	ACCESS:   11109204	FORWARD:          0	MERGED:    3180141	TO_CACHE:    7779285
L1D WQ	ACCESS:    6513311	FORWARD:     150256	MERGED:      90286	TO_CACHE:    6423025
L1D PQ	ACCESS:     369905	FORWARD:          0	MERGED:          0	TO_CACHE:     369427

L1D UNIQUE REGIONS ACCESSED: 0
L1D REGIONS CONFLICTS: 0
L1D Cross Page Prefetch Requests: 0
L1D Same Page Prefetch Requests: 427137
L1D ROI Sum of L1D PQ occupancy: 6400105
L1D PREFETCHES PUSHED FROM L2C: 0
L1I TOTAL     ACCESS:    9851800  HIT:    6512293  MISS:    3339507  HIT %:    66.1026  MISS %:    33.8974   MPKI: 66.7901
L1I LOAD      ACCESS:    9851800  HIT:    6512293  MISS:    3339507  HIT %:    66.1026  MISS %:    33.8974   MPKI: 66.7901
L1I PREFETCH  REQUESTED:          0  ISSUED:          0  USEFUL:          0  USELESS:          0
L1I USEFUL LOAD PREFETCHES:          0 PREFETCH ISSUED TO LOWER LEVEL:          0  ACCURACY: -nan
L1I TIMELY PREFETCHES:          0 LATE PREFETCHES: 0 DROPPED PREFETCHES: 0
L1I PREFETCHES SAME FILL-ORIGIN LEVEL: 0 DIFFERENT FILL-ORIGIN LEVEL: 0
L1I AVERAGE MISS LATENCY: 14.74 cycles
L1I RQ	ACCESS:   14699541	FORWARD:          0	MERGED:    4116964	TO_CACHE:   10582577

BTB TOTAL     ACCESS:    6340916  HIT:    5350576  MISS:     990340  HIT %:    84.3818  MISS %:    15.6182   MPKI: 19.8068
BTB BRANCH_DIRECT_JUMP	ACCESS:     773568  HIT:     696055  MISS:      77513
BTB BRANCH_INDIRECT	ACCESS:     108366  HIT:      73637  MISS:      34729
BTB BRANCH_CONDITIONAL	ACCESS:    2912413  HIT:    2697483  MISS:     214930
BTB BRANCH_DIRECT_CALL	ACCESS:    1062756  HIT:     948426  MISS:     114330
BTB BRANCH_INDIRECT_CALL	ACCESS:     210540  HIT:     143969  MISS:      66571
BTB BRANCH_RETURN	ACCESS:    1273273  HIT:     791006  MISS:     482267
BTB BRANCH_OTHER ACCESS:          0  HIT:          0  MISS:          0

L2C TOTAL     ACCESS:    5102446  HIT:    4815955  MISS:     286491  HIT %:    94.3852  MISS %:    5.61478   MPKI: 5.72982
L2C LOAD      ACCESS:    3971751  HIT:    3839068  MISS:     132683  HIT %:    96.6593  MISS %:    3.34067   MPKI: 2.65366
L2C DATA LOAD MPKI: 2.25826
L2C INSTRUCTION LOAD MPKI: 0.3954
L2C RFO       ACCESS:     115808  HIT:      95284  MISS:      20524  HIT %:    82.2776  MISS %:    17.7224   MPKI: 0.41048
L2C PREFETCH  ACCESS:     727002  HIT:     599514  MISS:     127488  HIT %:    82.4639  MISS %:    17.5361   MPKI: 2.54976
L2C DATA PREFETCH MPKI: 2.54976
L2C INSTRUCTION PREFETCH MPKI: 0
L2C WRITEBACK ACCESS:     278283  HIT:     276544  MISS:       1739  HIT %:    99.3751  MISS %:   0.624903   MPKI: 0.03478
L2C LOAD TRANSLATION ACCESS:       9602  HIT:       5545  MISS:       4057  HIT %:    57.7484  MISS %:    42.2516   MPKI: 0.08114
L2C PREFETCH  REQUESTED:     553588  ISSUED:     553588  USEFUL:      50330  USELESS:      77278
L2C USEFUL LOAD PREFETCHES:      50330 PREFETCH ISSUED TO LOWER LEVEL:     131820  ACCURACY: 38.1809
L2C TIMELY PREFETCHES:      50330 LATE PREFETCHES: 4331 DROPPED PREFETCHES: 0
L2C PREFETCHES SAME FILL-ORIGIN LEVEL: 91902 DIFFERENT FILL-ORIGIN LEVEL: 0
L2C AVERAGE MISS LATENCY: 177.339 cycles
L2C RQ	ACCESS:    4097211	FORWARD:          0	MERGED:          0	TO_CACHE:    4097162
L2C WQ	ACCESS:     278284	FORWARD:         49	MERGED:          0	TO_CACHE:     278284
L2C PQ	ACCESS:     744076	FORWARD:          0	MERGED:       4676	TO_CACHE:     739400

L2C Instructions Evicting Data 14215
L2C Translations Evicting Data 3857
L2C Data Evicting Data 243181
L2C Instructions Evicting Instructions 5383
L2C Translations Evicting Instructions 150
L2C Data Evicting Instructions 13937
L2C Instructions Evicting Translations 172
L2C Translations Evicting Translations 50
L2C Data Evicting Translations 3807
L2C Dense regions hint from L2: 0
PSCL5 TOTAL     ACCESS:       8945  HIT:       8945  MISS:          0  HIT %:        100  MISS %:          0   MPKI: 0
PSCL5 LOAD TRANSLATION ACCESS:       8945  HIT:       8945  MISS:          0  HIT %:        100  MISS %:          0   MPKI: 0
PSCL5 PREFETCH  REQUESTED:          0  ISSUED:          0  USEFUL:          0  USELESS:          0
PSCL5 USEFUL LOAD PREFETCHES:          0 PREFETCH ISSUED TO LOWER LEVEL:          0  ACCURACY: -nan
PSCL5 TIMELY PREFETCHES:          0 LATE PREFETCHES: 0 DROPPED PREFETCHES: 0
PSCL5 PREFETCHES SAME FILL-ORIGIN LEVEL: 0 DIFFERENT FILL-ORIGIN LEVEL: 0

PSCL4 TOTAL     ACCESS:       8529  HIT:       8493  MISS:         36  HIT %:    99.5779  MISS %:   0.422089   MPKI: 0.00072
PSCL4 LOAD TRANSLATION ACCESS:       8529  HIT:       8493  MISS:         36  HIT %:    99.5779  MISS %:   0.422089   MPKI: 0.00072
PSCL4 PREFETCH  REQUESTED:          0  ISSUED:          0  USEFUL:          0  USELESS:          0
PSCL4 USEFUL LOAD PREFETCHES:          0 PREFETCH ISSUED TO LOWER LEVEL:          0  ACCURACY: -nan
PSCL4 TIMELY PREFETCHES:          0 LATE PREFETCHES: 0 DROPPED PREFETCHES: 0
PSCL4 PREFETCHES SAME FILL-ORIGIN LEVEL: 0 DIFFERENT FILL-ORIGIN LEVEL: 0

PSCL3 TOTAL     ACCESS:       8697  HIT:       8661  MISS:         36  HIT %:    99.5861  MISS %:   0.413936   MPKI: 0.00072
PSCL3 LOAD TRANSLATION ACCESS:       8697  HIT:       8661  MISS:         36  HIT %:    99.5861  MISS %:   0.413936   MPKI: 0.00072
PSCL3 PREFETCH  REQUESTED:          0  ISSUED:          0  USEFUL:          0  USELESS:          0
PSCL3 USEFUL LOAD PREFETCHES:          0 PREFETCH ISSUED TO LOWER LEVEL:          0  ACCURACY: -nan
PSCL3 TIMELY PREFETCHES:          0 LATE PREFETCHES: 0 DROPPED PREFETCHES: 0
PSCL3 PREFETCHES SAME FILL-ORIGIN LEVEL: 0 DIFFERENT FILL-ORIGIN LEVEL: 0

PSCL2 TOTAL     ACCESS:       8945  HIT:       8355  MISS:        590  HIT %:    93.4041  MISS %:    6.59586   MPKI: 0.0118
PSCL2 LOAD TRANSLATION ACCESS:       8945  HIT:       8355  MISS:        590  HIT %:    93.4041  MISS %:    6.59586   MPKI: 0.0118
PSCL2 PREFETCH  REQUESTED:          0  ISSUED:          0  USEFUL:          0  USELESS:          0
PSCL2 USEFUL LOAD PREFETCHES:          0 PREFETCH ISSUED TO LOWER LEVEL:          0  ACCURACY: -nan
PSCL2 TIMELY PREFETCHES:          0 LATE PREFETCHES: 0 DROPPED PREFETCHES: 0
PSCL2 PREFETCHES SAME FILL-ORIGIN LEVEL: 0 DIFFERENT FILL-ORIGIN LEVEL: 0

LLC TOTAL     ACCESS:     384049  HIT:     154005  MISS:     230044  HIT %:    40.1004  MISS %:    59.8996   MPKI: 4.60088
LLC LOAD      ACCESS:     128752  HIT:      26845  MISS:     101907  HIT %:    20.8502  MISS %:    79.1498   MPKI: 2.03814
LLC RFO       ACCESS:      20124  HIT:       6720  MISS:      13404  HIT %:     33.393  MISS %:     66.607   MPKI: 0.26808
LLC PREFETCH  ACCESS:     131820  HIT:      19864  MISS:     111956  HIT %:     15.069  MISS %:     84.931   MPKI: 2.23912
LLC WRITEBACK ACCESS:      99296  HIT:      98472  MISS:        824  HIT %:    99.1702  MISS %:   0.829842   MPKI: 0.01648
LLC LOAD TRANSLATION ACCESS:       4057  HIT:       2104  MISS:       1953  HIT %:     51.861  MISS %:     48.139   MPKI: 0.03906
LLC PREFETCH  REQUESTED:          0  ISSUED:          0  USEFUL:       3414  USELESS:     106857
LLC USEFUL LOAD PREFETCHES:       3414 PREFETCH ISSUED TO LOWER LEVEL:     111956  ACCURACY: 3.04941
LLC TIMELY PREFETCHES:       3414 LATE PREFETCHES: 0 DROPPED PREFETCHES: 0
LLC PREFETCHES SAME FILL-ORIGIN LEVEL: 0 DIFFERENT FILL-ORIGIN LEVEL: 0
LLC AVERAGE MISS LATENCY: 184.295 cycles
LLC RQ	ACCESS:     152933	FORWARD:          0	MERGED:          0	TO_CACHE:     152933
LLC WQ	ACCESS:      99297	FORWARD:          0	MERGED:          0	TO_CACHE:      99297
LLC PQ	ACCESS:     131820	FORWARD:          0	MERGED:          0	TO_CACHE:     131820

LLC Dense regions hint to LLC: 0

RAW hits: 971685
Loads Generated: 12080891
Loads sent to L1D: 11109204
Stores Generated: 6513315
Stores sent to L1D: 6513311
Major fault: 0 Minor fault: 5429
Allocated PAGES: 5429

stream: 
stream:times selected: 451205
stream:pref_filled: 121507
stream:pref_useful: 14938
stream:pref_late: 663
stream:misses: 11853
stream:misses_by_poll: 0

CS: 
CS:times selected: 20193
CS:pref_filled: 9350
CS:pref_useful: 4028
CS:pref_late: 835
CS:misses: 900
CS:misses_by_poll: 23

CPLX: 
CPLX:times selected: 436873
CPLX:pref_filled: 81937
CPLX:pref_useful: 8890
CPLX:pref_late: 569
CPLX:misses: 53440
CPLX:misses_by_poll: 23

NL_L1: 
NL:times selected: 2215
NL:pref_filled: 1631
NL:pref_useful: 10
NL:pref_late: 2
NL:misses: 279
NL:misses_by_poll: 0

total selections: 910486
total_filled: 187893
total_useful: 25867
total_late: 2614
total_polluted: 46
total_misses_after_warmup: 664631
conflicts: 3232754
Degree Incremented Times: 0
Degree Decremented Times: 129307

L1 IP Table Write Accesses: 4319568
L1 IP Table Read Accesses: 1086814
L1 RST Write Accesses: 394181
L1 RST Read Accesses: 788362
L1 CSPT Write Accesses: 394181
L1 CSPT Read Accesses: 777343
L1 RR Filter Tag Write Accesses: 370374
L1 RR Filter Tag Read Accesses: 17569429
L1 IP Table Tag Write Accesses: 7779285
L1 IP Table Tag Read Accesses: 7779285
L1 RST Tag Write Accesses: 0
L1 RST Tag Read Accesses: 3971782
L1 RR Filter Write Accesses: 0
L1 RR Filter Read Accesses: 612461
test: 204640
L2 IP Table Read Accesses: 1076005
L2 IP Table Write Accesses: 1464920
L2 IP Table Tag Read Accesses: 817110
L2 IP Table Tag Write Accesses: 817110

DRAM Statistics
 CHANNEL 0
 RQ ROW_BUFFER_HIT:      56682  ROW_BUFFER_MISS:     172533
 DBUS_CONGESTED:        197
 WQ ROW_BUFFER_HIT:      19511  ROW_BUFFER_MISS:      66276  FULL:          0

 AVG_CONGESTED_CYCLE: 4
 All warmup complete: 2
Channel 0 Bank busy for read cycles: 0
Channel 0 Bank busy for write cycles: 0
Channel 0
Rank 0
0banks busy for read cycles: 85336786
0banks busy for write cycles: 21853
1banks busy for read cycles: 6444647
1banks busy for write cycles: 2923307
2banks busy for read cycles: 4520931
2banks busy for write cycles: 1384094
3banks busy for read cycles: 1620472
3banks busy for write cycles: 805849
4banks busy for read cycles: 733689
4banks busy for write cycles: 513128
5banks busy for read cycles: 403597
5banks busy for write cycles: 343396
6banks busy for read cycles: 225973
6banks busy for write cycles: 283194
7banks busy for read cycles: 182771
7banks busy for write cycles: 348988
8banks busy for read cycles: 123155
8banks busy for write cycles: 421316

CPU 0 Branch Prediction Accuracy: 93.023% MPKI: 13.5823 Average ROB Occupancy at Mispredict: 21.6592
Branch types
NOT_BRANCH: 40266107 80.5322%
BRANCH_DIRECT_JUMP: 773568 1.54714%
BRANCH_INDIRECT: 108366 0.216732%
BRANCH_CONDITIONAL: 6305104 12.6102%
BRANCH_DIRECT_CALL: 1062756 2.12551%
BRANCH_INDIRECT_CALL: 210540 0.42108%
BRANCH_RETURN: 1273273 2.54655%
BRANCH_OTHER: 0 0%

@sumon_overall_L1D     25867      2195    162031    187893    739332    739801
@Sumon_Early_by_class_L1D     12618      3818      7823         0
@Sumon_Late_by_class_L1D       472       818       372         0

@Sumon_Early_by_cycle_L1D      6392      4696      4131      2179      2659      2414       923       706       192      1044       428       103
@Sumon_Late_by_cycle_L1D      1800       316        38        29         9         3         0         0         0         0         0         0
@Sumon_Early_stream_L1D      3598      3340      3200       488        60       135       497        92        79       748       318        63
@Sumon_Early_CS_L1D       773       456       395       764       449       781       101        73        14        12         0         0
@Sumon_Early_CPLX_L1D      1986       496       245       180      2146      1488       214       541        99       283       109        36
@Sumon_Late_stream_L1D       352        55        32        26         6         1         0         0         0         0         0         0
@Sumon_Late_CS_L1D       558       248         4         3         3         2         0         0         0         0         0         0
@Sumon_Late_CPLX_L1D       357        13         2         0         0         0         0         0         0         0         0         0
@sumon_overall_L2C     50330      4331     77278    127488    553588    553588
@Sumon_Early_by_class_L2C      1185        38      1112         0
@Sumon_Late_by_class_L2C         0         0         0         0

@Sumon_Early_by_cycle_L2C      5898      4873      4656      2925      2326      6059      1835       359      1428      5360     10530      4081
@Sumon_Late_by_cycle_L2C      1614      2655        62         0         0         0         0         0         0         0         0         0
@Sumon_Early_stream_L2C         0         0         0         0         0         0         0         0         0        10       679       496
@Sumon_Early_CS_L2C         0         0         0         0         0         0         0         0         0         0        18        20
@Sumon_Early_CPLX_L2C         0         0         0         0         0         0         0         0         0        27       202       883
@Sumon_Late_stream_L2C         0         0         0         0         0         0         0         0         0         0         0         0
@Sumon_Late_CS_L2C         0         0         0         0         0         0         0         0         0         0         0         0
@Sumon_Late_CPLX_L2C         0         0         0         0         0         0         0         0         0         0         0         0
DRAM PAGES: 1048576
Allocated PAGES: 5429
