
*** ChampSim Multicore Out-of-Order Simulator ***

Warmup Instructions: 10000000
Simulation Instructions: 50000000
Number of CPUs: 1
LLC sets: 2048
LLC ways: 16
Off-chip DRAM Size: 4096 MB Channels: 1 Width: 64-bit Data Rate: 6400 MT/s
CPU 0 runs traces/clientserver/server_026.champsimtrace.xz
.xz
CPU 0 Bimodal branch predictor
BTB has LRU replacement policy
ITLB has LRU replacement policy
DTLB has LRU replacement policy
STLB has LRU replacement policy
L1I has LRU replacement policy
IP Table Entries: 256
L1D has LRU replacement policy
IP_Table L2 entries: 256
L2C has LRU replacement policy
LLC has LRU replacement policy
Heartbeat CPU 0 instructions: 10000000 cycles: 2885978 heartbeat IPC: 3.46503 cumulative IPC: 3.46503 (Simulation time: 0 hr 9 min 9 sec) 

Warmup complete CPU 0 instructions: 10000001 cycles: 2885979 (Simulation time: 0 hr 9 min 9 sec) 

Heartbeat CPU 0 instructions: 20000002 cycles: 28049347 heartbeat IPC: 0.397403 cumulative IPC: 0.397403 (Simulation time: 0 hr 17 min 49 sec) 
Heartbeat CPU 0 instructions: 30000000 cycles: 53174887 heartbeat IPC: 0.398001 cumulative IPC: 0.397702 (Simulation time: 0 hr 26 min 35 sec) 
Heartbeat CPU 0 instructions: 40000002 cycles: 78295733 heartbeat IPC: 0.398076 cumulative IPC: 0.397827 (Simulation time: 0 hr 35 min 16 sec) 
Heartbeat CPU 0 instructions: 50000000 cycles: 103329347 heartbeat IPC: 0.399463 cumulative IPC: 0.398234 (Simulation time: 0 hr 43 min 53 sec) 
*** Reached end of trace for Core: 0 Repeating trace: traces/clientserver/server_026.champsimtrace.xz
Heartbeat CPU 0 instructions: 60000000 cycles: 128512315 heartbeat IPC: 0.397094 cumulative IPC: 0.398006 (Simulation time: 0 hr 51 min 30 sec) 
Finished CPU 0 instructions: 50000001 cycles: 125626344 cumulative IPC: 0.398006 (Simulation time: 0 hr 51 min 30 sec) 

ChampSim completed all CPUs

Region of Interest Statistics

CPU 0 cumulative IPC: 0.398006 instructions: 50000001 cycles: 125626344
ITLB TOTAL     ACCESS:    8443008  HIT:    7955861  MISS:     487147  HIT %:    94.2302  MISS %:    5.76983   MPKI: 9.74294
ITLB LOAD TRANSLATION ACCESS:    8443008  HIT:    7955861  MISS:     487147  HIT %:    94.2302  MISS %:    5.76983   MPKI: 9.74294
ITLB PREFETCH  REQUESTED:          0  ISSUED:          0  USEFUL:          0  USELESS:          0
ITLB USEFUL LOAD PREFETCHES:          0 PREFETCH ISSUED TO LOWER LEVEL:          0  ACCURACY: -nan
ITLB TIMELY PREFETCHES:          0 LATE PREFETCHES: 0 DROPPED PREFETCHES: 0
ITLB PREFETCHES SAME FILL-ORIGIN LEVEL: 0 DIFFERENT FILL-ORIGIN LEVEL: 0
ITLB AVERAGE MISS LATENCY: 9.06592 cycles
ITLB RQ	ACCESS:   10070727	FORWARD:          0	MERGED:    1504189	TO_CACHE:    8566538

DTLB TOTAL     ACCESS:   12585854  HIT:   12108851  MISS:     477003  HIT %:      96.21  MISS %:    3.78999   MPKI: 9.54006
DTLB LOAD TRANSLATION ACCESS:   12585854  HIT:   12108851  MISS:     477003  HIT %:      96.21  MISS %:    3.78999   MPKI: 9.54006
DTLB PREFETCH  REQUESTED:          0  ISSUED:          0  USEFUL:          0  USELESS:          0
DTLB USEFUL LOAD PREFETCHES:          0 PREFETCH ISSUED TO LOWER LEVEL:          0  ACCURACY: -nan
DTLB TIMELY PREFETCHES:          0 LATE PREFETCHES: 0 DROPPED PREFETCHES: 0
DTLB PREFETCHES SAME FILL-ORIGIN LEVEL: 0 DIFFERENT FILL-ORIGIN LEVEL: 0
DTLB AVERAGE MISS LATENCY: 9.38777 cycles
DTLB RQ	ACCESS:   15694463	FORWARD:          0	MERGED:    3088287	TO_CACHE:   12606176

STLB TOTAL     ACCESS:    1396823  HIT:    1394587  MISS:       2236  HIT %:    99.8399  MISS %:   0.160078   MPKI: 0.04472
STLB LOAD TRANSLATION ACCESS:     964150  HIT:     961914  MISS:       2236  HIT %:    99.7681  MISS %:   0.231914   MPKI: 0.04472
STLB TRANSLATION FROM L1D PREFETCHER ACCESS:     432673  HIT:     432673  MISS:          0  HIT %:        100  MISS %:          0   MPKI: 0
STLB PREFETCH  REQUESTED:          0  ISSUED:          0  USEFUL:          0  USELESS:          0
STLB USEFUL LOAD PREFETCHES:          0 PREFETCH ISSUED TO LOWER LEVEL:          0  ACCURACY: -nan
STLB TIMELY PREFETCHES:          0 LATE PREFETCHES: 0 DROPPED PREFETCHES: 0
STLB PREFETCHES SAME FILL-ORIGIN LEVEL: 0 DIFFERENT FILL-ORIGIN LEVEL: 0
STLB AVERAGE MISS LATENCY: 92.5653 cycles
STLB RQ	ACCESS:    1526485	FORWARD:          0	MERGED:     129662	TO_CACHE:    1396823

STLB Hit, L1D data hit: 0
STLB Hit, L2C data hit: 0
STLB Hit, LLC data hit: 0
STLB Hit, LLC data miss: 0
STLB STLB hints to L2: 0
L1D TOTAL     ACCESS:   15705090  HIT:   14508190  MISS:    1196900  HIT %:    92.3789  MISS %:     7.6211   MPKI: 23.938
L1D LOAD      ACCESS:    8807829  HIT:    8069013  MISS:     738816  HIT %:    91.6118  MISS %:    8.38817   MPKI: 14.7763
L1D RFO       ACCESS:    6390468  HIT:    6093479  MISS:     296989  HIT %:    95.3526  MISS %:    4.64737   MPKI: 5.93978
L1D PREFETCH  ACCESS:     506793  HIT:     345698  MISS:     161095  HIT %:    68.2129  MISS %:    31.7871   MPKI: 3.2219
L1D PREFETCH  REQUESTED:    1124920  ISSUED:    1124920  USEFUL:      57171  USELESS:     103915
L1D USEFUL LOAD PREFETCHES:      57171 PREFETCH ISSUED TO LOWER LEVEL:     201846  ACCURACY: 28.3241
L1D TIMELY PREFETCHES:      57171 LATE PREFETCHES: 40304 DROPPED PREFETCHES: 0
L1D PREFETCHES SAME FILL-ORIGIN LEVEL: 201846 DIFFERENT FILL-ORIGIN LEVEL: 0
L1D AVERAGE MISS LATENCY: 2.23837e+06 cycles
L1D RQ	ACCESS:   12102254	FORWARD:          0	MERGED:    3147985	TO_CACHE:    8840981
L1D WQ	ACCESS:    6899106	FORWARD:     113538	MERGED:      45624	TO_CACHE:    6853482
L1D PQ	ACCESS:     562585	FORWARD:          0	MERGED:          0	TO_CACHE:     562335

L1D UNIQUE REGIONS ACCESSED: 0
L1D REGIONS CONFLICTS: 0
L1D Cross Page Prefetch Requests: 0
L1D Same Page Prefetch Requests: 666828
L1D ROI Sum of L1D PQ occupancy: 7218376
L1D PREFETCHES PUSHED FROM L2C: 0
L1I TOTAL     ACCESS:    9609483  HIT:    6874972  MISS:    2734511  HIT %:    71.5436  MISS %:    28.4564   MPKI: 54.6902
L1I LOAD      ACCESS:    9609483  HIT:    6874972  MISS:    2734511  HIT %:    71.5436  MISS %:    28.4564   MPKI: 54.6902
L1I PREFETCH  REQUESTED:          0  ISSUED:          0  USEFUL:          0  USELESS:          0
L1I USEFUL LOAD PREFETCHES:          0 PREFETCH ISSUED TO LOWER LEVEL:          0  ACCURACY: -nan
L1I TIMELY PREFETCHES:          0 LATE PREFETCHES: 0 DROPPED PREFETCHES: 0
L1I PREFETCHES SAME FILL-ORIGIN LEVEL: 0 DIFFERENT FILL-ORIGIN LEVEL: 0
L1I AVERAGE MISS LATENCY: 18.9387 cycles
L1I RQ	ACCESS:   13813391	FORWARD:          0	MERGED:    3742664	TO_CACHE:   10070727

BTB TOTAL     ACCESS:    5982230  HIT:    3991090  MISS:    1991140  HIT %:    66.7158  MISS %:    33.2842   MPKI: 39.8228
BTB BRANCH_DIRECT_JUMP	ACCESS:     522633  HIT:     348042  MISS:     174591
BTB BRANCH_INDIRECT	ACCESS:     204723  HIT:     167232  MISS:      37491
BTB BRANCH_CONDITIONAL	ACCESS:    3049093  HIT:    2491585  MISS:     557508
BTB BRANCH_DIRECT_CALL	ACCESS:     929734  HIT:     525672  MISS:     404062
BTB BRANCH_INDIRECT_CALL	ACCESS:     173167  HIT:      95072  MISS:      78095
BTB BRANCH_RETURN	ACCESS:    1102880  HIT:     363487  MISS:     739393
BTB BRANCH_OTHER ACCESS:          0  HIT:          0  MISS:          0

L2C TOTAL     ACCESS:    5050535  HIT:    4219586  MISS:     830949  HIT %:    83.5473  MISS %:    16.4527   MPKI: 16.619
L2C LOAD      ACCESS:    3433019  HIT:    2874949  MISS:     558070  HIT %:     83.744  MISS %:     16.256   MPKI: 11.1614
L2C DATA LOAD MPKI: 2.42032
L2C INSTRUCTION LOAD MPKI: 8.74108
L2C RFO       ACCESS:     296542  HIT:     196042  MISS:     100500  HIT %:    66.1094  MISS %:    33.8906   MPKI: 2.01
L2C PREFETCH  ACCESS:     789862  HIT:     626143  MISS:     163719  HIT %:    79.2725  MISS %:    20.7275   MPKI: 3.27438
L2C DATA PREFETCH MPKI: 3.27438
L2C INSTRUCTION PREFETCH MPKI: 0
L2C WRITEBACK ACCESS:     528725  HIT:     521706  MISS:       7019  HIT %:    98.6725  MISS %:    1.32753   MPKI: 0.14038
L2C LOAD TRANSLATION ACCESS:       2387  HIT:        746  MISS:       1641  HIT %:    31.2526  MISS %:    68.7474   MPKI: 0.03282
L2C PREFETCH  REQUESTED:     603944  ISSUED:     603944  USEFUL:      31778  USELESS:     131880
L2C USEFUL LOAD PREFETCHES:      31778 PREFETCH ISSUED TO LOWER LEVEL:     166183  ACCURACY: 19.1223
L2C TIMELY PREFETCHES:      31778 LATE PREFETCHES: 2464 DROPPED PREFETCHES: 0
L2C PREFETCHES SAME FILL-ORIGIN LEVEL: 98778 DIFFERENT FILL-ORIGIN LEVEL: 0
L2C AVERAGE MISS LATENCY: 34.8429 cycles
L2C RQ	ACCESS:    3731952	FORWARD:          0	MERGED:          0	TO_CACHE:    3731948
L2C WQ	ACCESS:     528725	FORWARD:          6	MERGED:          0	TO_CACHE:     528725
L2C PQ	ACCESS:     805790	FORWARD:          0	MERGED:       5798	TO_CACHE:     799990

L2C Instructions Evicting Data 187294
L2C Translations Evicting Data 1205
L2C Data Evicting Data 201615
L2C Instructions Evicting Instructions 249269
L2C Translations Evicting Instructions 398
L2C Data Evicting Instructions 182490
L2C Instructions Evicting Translations 490
L2C Translations Evicting Translations 38
L2C Data Evicting Translations 1112
L2C Dense regions hint from L2: 0
PSCL5 TOTAL     ACCESS:       2236  HIT:       2236  MISS:          0  HIT %:        100  MISS %:          0   MPKI: 0
PSCL5 LOAD TRANSLATION ACCESS:       2236  HIT:       2236  MISS:          0  HIT %:        100  MISS %:          0   MPKI: 0
PSCL5 PREFETCH  REQUESTED:          0  ISSUED:          0  USEFUL:          0  USELESS:          0
PSCL5 USEFUL LOAD PREFETCHES:          0 PREFETCH ISSUED TO LOWER LEVEL:          0  ACCURACY: -nan
PSCL5 TIMELY PREFETCHES:          0 LATE PREFETCHES: 0 DROPPED PREFETCHES: 0
PSCL5 PREFETCHES SAME FILL-ORIGIN LEVEL: 0 DIFFERENT FILL-ORIGIN LEVEL: 0

PSCL4 TOTAL     ACCESS:       2081  HIT:       2069  MISS:         12  HIT %:    99.4234  MISS %:   0.576646   MPKI: 0.00024
PSCL4 LOAD TRANSLATION ACCESS:       2081  HIT:       2069  MISS:         12  HIT %:    99.4234  MISS %:   0.576646   MPKI: 0.00024
PSCL4 PREFETCH  REQUESTED:          0  ISSUED:          0  USEFUL:          0  USELESS:          0
PSCL4 USEFUL LOAD PREFETCHES:          0 PREFETCH ISSUED TO LOWER LEVEL:          0  ACCURACY: -nan
PSCL4 TIMELY PREFETCHES:          0 LATE PREFETCHES: 0 DROPPED PREFETCHES: 0
PSCL4 PREFETCHES SAME FILL-ORIGIN LEVEL: 0 DIFFERENT FILL-ORIGIN LEVEL: 0

PSCL3 TOTAL     ACCESS:       2120  HIT:       2107  MISS:         13  HIT %:    99.3868  MISS %:   0.613208   MPKI: 0.00026
PSCL3 LOAD TRANSLATION ACCESS:       2120  HIT:       2107  MISS:         13  HIT %:    99.3868  MISS %:   0.613208   MPKI: 0.00026
PSCL3 PREFETCH  REQUESTED:          0  ISSUED:          0  USEFUL:          0  USELESS:          0
PSCL3 USEFUL LOAD PREFETCHES:          0 PREFETCH ISSUED TO LOWER LEVEL:          0  ACCURACY: -nan
PSCL3 TIMELY PREFETCHES:          0 LATE PREFETCHES: 0 DROPPED PREFETCHES: 0
PSCL3 PREFETCHES SAME FILL-ORIGIN LEVEL: 0 DIFFERENT FILL-ORIGIN LEVEL: 0

PSCL2 TOTAL     ACCESS:       2236  HIT:       2101  MISS:        135  HIT %:    93.9624  MISS %:    6.03757   MPKI: 0.0027
PSCL2 LOAD TRANSLATION ACCESS:       2236  HIT:       2101  MISS:        135  HIT %:    93.9624  MISS %:    6.03757   MPKI: 0.0027
PSCL2 PREFETCH  REQUESTED:          0  ISSUED:          0  USEFUL:          0  USELESS:          0
PSCL2 USEFUL LOAD PREFETCHES:          0 PREFETCH ISSUED TO LOWER LEVEL:          0  ACCURACY: -nan
PSCL2 TIMELY PREFETCHES:          0 LATE PREFETCHES: 0 DROPPED PREFETCHES: 0
PSCL2 PREFETCHES SAME FILL-ORIGIN LEVEL: 0 DIFFERENT FILL-ORIGIN LEVEL: 0

LLC TOTAL     ACCESS:     985916  HIT:     953524  MISS:      32392  HIT %:    96.7145  MISS %:    3.28547   MPKI: 0.64784
LLC LOAD      ACCESS:     555707  HIT:     550936  MISS:       4771  HIT %:    99.1415  MISS %:   0.858546   MPKI: 0.09542
LLC RFO       ACCESS:     100395  HIT:      84844  MISS:      15551  HIT %:    84.5102  MISS %:    15.4898   MPKI: 0.31102
LLC PREFETCH  ACCESS:     166183  HIT:     154380  MISS:      11803  HIT %:    92.8976  MISS %:    7.10241   MPKI: 0.23606
LLC WRITEBACK ACCESS:     161990  HIT:     161907  MISS:         83  HIT %:    99.9488  MISS %:  0.0512377   MPKI: 0.00166
LLC LOAD TRANSLATION ACCESS:       1641  HIT:       1457  MISS:        184  HIT %:    88.7873  MISS %:    11.2127   MPKI: 0.00368
LLC PREFETCH  REQUESTED:          0  ISSUED:          0  USEFUL:        942  USELESS:       6500
LLC USEFUL LOAD PREFETCHES:        942 PREFETCH ISSUED TO LOWER LEVEL:      11803  ACCURACY: 7.98102
LLC TIMELY PREFETCHES:        942 LATE PREFETCHES: 0 DROPPED PREFETCHES: 0
LLC PREFETCHES SAME FILL-ORIGIN LEVEL: 0 DIFFERENT FILL-ORIGIN LEVEL: 0
LLC AVERAGE MISS LATENCY: 130.062 cycles
LLC RQ	ACCESS:     657747	FORWARD:          0	MERGED:          0	TO_CACHE:     657743
LLC WQ	ACCESS:     161990	FORWARD:          4	MERGED:          0	TO_CACHE:     161990
LLC PQ	ACCESS:     166183	FORWARD:          0	MERGED:          0	TO_CACHE:     166183

LLC Dense regions hint to LLC: 0

RAW hits: 515249
Loads Generated: 12617505
Loads sent to L1D: 12102254
Stores Generated: 6899109
Stores sent to L1D: 6899106
Major fault: 0 Minor fault: 2264
Allocated PAGES: 2264

stream: 
stream:times selected: 1050635
stream:pref_filled: 102763
stream:pref_useful: 19662
stream:pref_late: 33168
stream:misses: 6988
stream:misses_by_poll: 0

CS: 
CS:times selected: 143214
CS:pref_filled: 61415
CS:pref_useful: 43134
CS:pref_late: 4362
CS:misses: 9349
CS:misses_by_poll: 6

CPLX: 
CPLX:times selected: 905650
CPLX:pref_filled: 24421
CPLX:pref_useful: 5446
CPLX:pref_late: 2583
CPLX:misses: 88872
CPLX:misses_by_poll: 1

NL_L1: 
NL:times selected: 6291
NL:pref_filled: 538
NL:pref_useful: 70
NL:pref_late: 11
NL:misses: 303
NL:misses_by_poll: 0

total selections: 2105790
total_filled: 161095
total_useful: 57171
total_late: 41914
total_polluted: 7
total_misses_after_warmup: 771966
conflicts: 3241775
Degree Incremented Times: 0
Degree Decremented Times: 162634

L1 IP Table Write Accesses: 5304973
L1 IP Table Read Accesses: 2063198
L1 RST Write Accesses: 887592
L1 RST Read Accesses: 1775184
L1 CSPT Write Accesses: 887592
L1 CSPT Read Accesses: 1651072
L1 RR Filter Tag Write Accesses: 562585
L1 RR Filter Tag Read Accesses: 40488014
L1 IP Table Tag Write Accesses: 8840979
L1 IP Table Tag Read Accesses: 8840979
L1 RST Tag Write Accesses: 0
L1 RST Tag Read Accesses: 7608315
L1 RR Filter Write Accesses: 0
L1 RR Filter Read Accesses: 1482474
test: 146289
L2 IP Table Read Accesses: 1178620
L2 IP Table Write Accesses: 1615221
L2 IP Table Tag Read Accesses: 894961
L2 IP Table Tag Write Accesses: 894961

DRAM Statistics
 CHANNEL 0
 RQ ROW_BUFFER_HIT:      16760  ROW_BUFFER_MISS:      15542
 DBUS_CONGESTED:          3
 WQ ROW_BUFFER_HIT:        615  ROW_BUFFER_MISS:       6148  FULL:          0

 AVG_CONGESTED_CYCLE: 4
 All warmup complete: 2
Channel 0 Bank busy for read cycles: 0
Channel 0 Bank busy for write cycles: 0
Channel 0
Rank 0
0banks busy for read cycles: 123715188
0banks busy for write cycles: 2004
1banks busy for read cycles: 647637
1banks busy for write cycles: 233812
2banks busy for read cycles: 477424
2banks busy for write cycles: 81932
3banks busy for read cycles: 95765
3banks busy for write cycles: 36130
4banks busy for read cycles: 74835
4banks busy for write cycles: 21713
5banks busy for read cycles: 37078
5banks busy for write cycles: 19630
6banks busy for read cycles: 31496
6banks busy for write cycles: 18124
7banks busy for read cycles: 26694
7banks busy for write cycles: 18038
8banks busy for read cycles: 53002
8banks busy for write cycles: 35843

CPU 0 Branch Prediction Accuracy: 91.6417% MPKI: 15.2922 Average ROB Occupancy at Mispredict: 17.3611
Branch types
NOT_BRANCH: 40851762 81.7035%
BRANCH_DIRECT_JUMP: 522633 1.04527%
BRANCH_INDIRECT: 204723 0.409446%
BRANCH_CONDITIONAL: 6214815 12.4296%
BRANCH_DIRECT_CALL: 929734 1.85947%
BRANCH_INDIRECT_CALL: 173167 0.346334%
BRANCH_RETURN: 1102880 2.20576%
BRANCH_OTHER: 0 0%

@sumon_overall_L1D     57171     40304    103915    161095   1124920   1124920
@Sumon_Early_by_class_L1D     15224     36897      3976         4
@Sumon_Late_by_class_L1D     32302      4141      2232         4

@Sumon_Early_by_cycle_L1D     42660      3611      1747       842       204      1266       907      1525      1121      2445       722       121
@Sumon_Late_by_cycle_L1D     39433       847        22         2         0         0         0         0         0         0         0         0
@Sumon_Early_stream_L1D      6343      1517       956       717       156       918       579       970       791      1597       566       114
@Sumon_Early_CS_L1D     34048      1845       604        38         6        33         7       274         7        33         2         0
@Sumon_Early_CPLX_L1D      2088       166       163        63        36       310       212       264       191       327       149         7
@Sumon_Late_stream_L1D     31951       350         1         0         0         0         0         0         0         0         0         0
@Sumon_Late_CS_L1D      3634       484        21         2         0         0         0         0         0         0         0         0
@Sumon_Late_CPLX_L1D      2221        11         0         0         0         0         0         0         0         0         0         0
@sumon_overall_L2C     31778      2464    131880    163719    603944    603944
@Sumon_Early_by_class_L2C      2234       223       501         0
@Sumon_Late_by_class_L2C         0         0         0         0

@Sumon_Early_by_cycle_L2C      5494      2720      2487      2038       860      3884      2831      1884      1052      1653      1094      5781
@Sumon_Late_by_cycle_L2C      2140       324         0         0         0         0         0         0         0         0         0         0
@Sumon_Early_stream_L2C         0         0         0         0         0         0         0         0         0        11       337      1886
@Sumon_Early_CS_L2C         0         0         0         0         0         0         0         0         0         0         1       222
@Sumon_Early_CPLX_L2C         0         0         0         0         0         0         0         0         0         2        85       414
@Sumon_Late_stream_L2C         0         0         0         0         0         0         0         0         0         0         0         0
@Sumon_Late_CS_L2C         0         0         0         0         0         0         0         0         0         0         0         0
@Sumon_Late_CPLX_L2C         0         0         0         0         0         0         0         0         0         0         0         0
DRAM PAGES: 1048576
Allocated PAGES: 2264
