Initialize SIGNATURE TABLE
ST_SET: 1
ST_WAY: 256
ST_TAG_BIT: 16
ST_TAG_MASK: ffff

Initialize PATTERN TABLE
PT_SET: 512
PT_WAY: 4
SIG_DELTA_BIT: 7
C_SIG_BIT: 4
C_DELTA_BIT: 4

Initialize PREFETCH FILTER
FILTER_SET: 1024

*** ChampSim Multicore Out-of-Order Simulator ***

Warmup Instructions: 50000000
Simulation Instructions: 50000000
Number of CPUs: 1
LLC sets: 2048
LLC ways: 16
Off-chip DRAM Size: 4096 MB Channels: 1 Width: 64-bit Data Rate: 6400 MT/s
CPU 0 runs ../../biswa/SPEC2017Traces/600.perlbench_s-570B.champsimtrace.xz
.xz
CPU 0 Bimodal branch predictor
BTB has LRU replacement policy
ITLB has LRU replacement policy
DTLB has LRU replacement policy
STLB has LRU replacement policy
L1I has LRU replacement policy
L1D has LRU replacement policy
ST_WAYS: 256
PT_SETS: 512
Initialize DRRIP state for L2C
Initialize Hawkeye state
Heartbeat CPU 0 instructions: 10000003 cycles: 2893952 heartbeat IPC: 3.45548 cumulative IPC: 3.45548 (Simulation time: 0 hr 2 min 44 sec) 
Heartbeat CPU 0 instructions: 20000003 cycles: 5752666 heartbeat IPC: 3.49808 cumulative IPC: 3.47665 (Simulation time: 0 hr 5 min 28 sec) 
Heartbeat CPU 0 instructions: 30000003 cycles: 8648050 heartbeat IPC: 3.45377 cumulative IPC: 3.46899 (Simulation time: 0 hr 8 min 10 sec) 
Heartbeat CPU 0 instructions: 40000002 cycles: 11519273 heartbeat IPC: 3.48284 cumulative IPC: 3.47244 (Simulation time: 0 hr 10 min 42 sec) 
Heartbeat CPU 0 instructions: 50000002 cycles: 14388804 heartbeat IPC: 3.48489 cumulative IPC: 3.47492 (Simulation time: 0 hr 13 min 2 sec) 

Warmup complete CPU 0 instructions: 50000002 cycles: 14388804 (Simulation time: 0 hr 13 min 2 sec) 

Heartbeat CPU 0 instructions: 60000000 cycles: 29595088 heartbeat IPC: 0.657623 cumulative IPC: 0.657623 (Simulation time: 0 hr 15 min 30 sec) 
epoch: 1000
next table: 3494
cur table: 4399
epoch: 1000
next table: 5065
cur table: 3494
epoch: 1000
next table: 8211
cur table: 5065
epoch: 1000
next table: 8575
cur table: 8211
epoch: 1000
next table: 7753
cur table: 8575
epoch: 1000
next table: 4426
cur table: 7753
epoch: 1000
next table: 5746
cur table: 4426
epoch: 1000
next table: 3341
cur table: 5746
epoch: 1000
next table: 3103
cur table: 3341
epoch: 1000
next table: 4438
cur table: 3103
epoch: 1000
next table: 3393
cur table: 4438
epoch: 1000
next table: 3638
cur table: 3393
epoch: 1000
next table: 7042
cur table: 3638
epoch: 1000
next table: 6675
cur table: 7042
epoch: 1000
next table: 8978
cur table: 6675
epoch: 1000
next table: 4816
cur table: 8978
Heartbeat CPU 0 instructions: 70000000 cycles: 53536631 heartbeat IPC: 0.417684 cumulative IPC: 0.510884 (Simulation time: 0 hr 18 min 4 sec) 
epoch: 1000
next table: 7739
cur table: 4816
epoch: 1000
next table: 5248
cur table: 7739
epoch: 1000
next table: 9343
cur table: 5248
epoch: 1000
next table: 3810
cur table: 21047
epoch: 1000
next table: 12348
cur table: 9343
epoch: 1000
next table: 3937
cur table: 12348
epoch: 1000
next table: 3163
cur table: 3810
epoch: 1000
next table: 6146
cur table: 3937
epoch: 1000
next table: 9550
cur table: 6146
epoch: 1000
next table: 2969
cur table: 3163
epoch: 1000
next table: 2412
cur table: 9550
epoch: 1000
next table: 2186
cur table: 2412
epoch: 1000
next table: 2346
cur table: 2969
epoch: 1000
next table: 2317
cur table: 2186
epoch: 1000
next table: 2226
cur table: 2346
epoch: 1000
next table: 2417
cur table: 2317
epoch: 1000
next table: 2114
cur table: 2226
epoch: 1000
next table: 2534
cur table: 2417
epoch: 1000
next table: 2789
cur table: 2534
epoch: 1000
next table: 2616
cur table: 2114
epoch: 1000
next table: 3014
cur table: 2789
epoch: 1000
next table: 2867
cur table: 3014
epoch: 1000
next table: 3057
cur table: 2616
epoch: 1000
next table: 3377
cur table: 2867
epoch: 1000
next table: 3367
cur table: 3377
epoch: 1000
next table: 2811
cur table: 3057
epoch: 1000
next table: 3558
cur table: 3367
epoch: 1000
next table: 2193
cur table: 2811
epoch: 1000
next table: 69139
cur table: 3558
epoch: 1000
next table: 6030
cur table: 69139
epoch: 1000
next table: 2548
cur table: 2193
Heartbeat CPU 0 instructions: 80000002 cycles: 79015405 heartbeat IPC: 0.392484 cumulative IPC: 0.464205 (Simulation time: 0 hr 20 min 50 sec) 
epoch: 1000
next table: 8555
cur table: 6030
epoch: 1000
next table: 2508
cur table: 2548
epoch: 1000
next table: 11306
cur table: 8555
epoch: 1000
next table: 21214
cur table: 11306
epoch: 1000
next table: 2666
cur table: 2508
epoch: 1000
next table: 15356
cur table: 21214
epoch: 1000
next table: 2761
cur table: 2666
epoch: 1000
next table: 2794
cur table: 15356
epoch: 1000
next table: 2645
cur table: 2794
epoch: 1000
next table: 9670
cur table: 2645
epoch: 1000
next table: 3071
cur table: 2761
epoch: 1000
next table: 15266
cur table: 9670
epoch: 1000
next table: 2392
cur table: 3071
epoch: 1000
next table: 7654
cur table: 15266
epoch: 1000
next table: 2408
cur table: 2392
epoch: 1000
next table: 4565
cur table: 7654
epoch: 1000
next table: 2049
cur table: 2408
epoch: 1000
next table: 2618
cur table: 4565
epoch: 1000
next table: 2036
cur table: 2049
epoch: 1000
next table: 2528
cur table: 2618
epoch: 1000
next table: 2036
cur table: 2036
epoch: 1000
next table: 4363
cur table: 2528
epoch: 1000
next table: 17025
cur table: 4363
epoch: 1000
next table: 2410
cur table: 2036
epoch: 1000
next table: 5495
cur table: 17025
epoch: 1000
next table: 5126
cur table: 5495
epoch: 1000
next table: 2610
cur table: 2410
epoch: 1000
next table: 6106
cur table: 5126
epoch: 1000
next table: 2309
cur table: 2610
epoch: 1000
next table: 9858
cur table: 6106
epoch: 1000
next table: 2082
cur table: 2309
epoch: 1000
next table: 6844
cur table: 9858
epoch: 1000
next table: 2413
cur table: 2082
epoch: 1000
next table: 7466
cur table: 6844
epoch: 1000
next table: 2081
cur table: 2413
epoch: 1000
next table: 6558
cur table: 7466
epoch: 1000
next table: 4832
cur table: 6558
epoch: 1000
next table: 2190
cur table: 2081
epoch: 1000
next table: 5866
cur table: 4832
epoch: 1000
next table: 1977
cur table: 2190
epoch: 1000
next table: 4256
cur table: 5866
epoch: 1000
next table: 1953
cur table: 1977
epoch: 1000
next table: 1942
cur table: 1953
epoch: 1000
next table: 6201
cur table: 4256
epoch: 1000
next table: 1901
cur table: 1942
epoch: 1000
next table: 4512
cur table: 6201
epoch: 1000
next table: 1959
cur table: 1901
epoch: 1000
next table: 4945
cur table: 4512
epoch: 1000
next table: 1979
cur table: 1959
epoch: 1000
next table: 6121
cur table: 4945
epoch: 1000
next table: 1895
cur table: 1979
epoch: 1000
next table: 3876
cur table: 6121
epoch: 1000
next table: 1928
cur table: 1895
epoch: 1000
next table: 5170
cur table: 3876
epoch: 1000
next table: 1893
cur table: 1928
epoch: 1000
next table: 3625
cur table: 5170
epoch: 1000
next table: 1878
cur table: 1893
epoch: 1000
next table: 5064
cur table: 3625
epoch: 1000
next table: 2007
cur table: 1878
epoch: 1000
next table: 5069
cur table: 5064
epoch: 1000
next table: 2367
cur table: 2007
epoch: 1000
next table: 3702
cur table: 5069
Heartbeat CPU 0 instructions: 90000003 cycles: 109812427 heartbeat IPC: 0.324707 cumulative IPC: 0.419183 (Simulation time: 0 hr 23 min 24 sec) 
epoch: 1000
next table: 2128
cur table: 2367
epoch: 1000
next table: 2789
cur table: 3702
epoch: 1000
next table: 1927
cur table: 2128
epoch: 1000
next table: 2580
cur table: 2789
epoch: 1000
next table: 1880
cur table: 1927
epoch: 1000
next table: 2423
cur table: 2580
epoch: 1000
next table: 1929
cur table: 1880
epoch: 1000
next table: 2483
cur table: 2423
epoch: 1000
next table: 1834
cur table: 1929
epoch: 1000
next table: 2430
cur table: 2483
epoch: 1000
next table: 1854
cur table: 1834
Heartbeat CPU 0 instructions: 100000002 cycles: 126033890 heartbeat IPC: 0.616467 cumulative IPC: 0.447848 (Simulation time: 0 hr 25 min 30 sec) 
Finished CPU 0 instructions: 50000000 cycles: 111645086 cumulative IPC: 0.447848 (Simulation time: 0 hr 25 min 30 sec) 

ChampSim completed all CPUs

Region of Interest Statistics

CPU 0 cumulative IPC: 0.447848 instructions: 50000000 cycles: 111645086
ITLB TOTAL     ACCESS:    7833452  HIT:    7815781  MISS:      17671  HIT %:    99.7744  MISS %:   0.225584   MPKI: 0.35342
ITLB LOAD TRANSLATION ACCESS:    7833452  HIT:    7815781  MISS:      17671  HIT %:    99.7744  MISS %:   0.225584   MPKI: 0.35342
ITLB PREFETCH  REQUESTED:          0  ISSUED:          0  USEFUL:          0  USELESS:          0
ITLB USEFUL LOAD PREFETCHES:          0 PREFETCH ISSUED TO LOWER LEVEL:          0  ACCURACY: -nan
ITLB TIMELY PREFETCHES:          0 LATE PREFETCHES: 0 DROPPED PREFETCHES: 0
ITLB PREFETCHES SAME FILL-ORIGIN LEVEL: 0 DIFFERENT FILL-ORIGIN LEVEL: 0
ITLB AVERAGE MISS LATENCY: 10.5278 cycles
ITLB RQ	ACCESS:    8823057	FORWARD:          0	MERGED:     983606	TO_CACHE:    7839451

Revised Interactions: positive negative neutral
ITLB_interactions 0 0 0 -nan -nan -nan
DTLB TOTAL     ACCESS:   14060191  HIT:   13915676  MISS:     144515  HIT %:    98.9722  MISS %:    1.02783   MPKI: 2.8903
DTLB LOAD TRANSLATION ACCESS:   14060191  HIT:   13915676  MISS:     144515  HIT %:    98.9722  MISS %:    1.02783   MPKI: 2.8903
DTLB PREFETCH  REQUESTED:          0  ISSUED:          0  USEFUL:          0  USELESS:          0
DTLB USEFUL LOAD PREFETCHES:          0 PREFETCH ISSUED TO LOWER LEVEL:          0  ACCURACY: -nan
DTLB TIMELY PREFETCHES:          0 LATE PREFETCHES: 0 DROPPED PREFETCHES: 0
DTLB PREFETCHES SAME FILL-ORIGIN LEVEL: 0 DIFFERENT FILL-ORIGIN LEVEL: 0
DTLB AVERAGE MISS LATENCY: 15.2887 cycles
DTLB RQ	ACCESS:   19073379	FORWARD:          0	MERGED:    5009066	TO_CACHE:   14064313

Revised Interactions: positive negative neutral
DTLB_interactions 0 0 0 -nan -nan -nan
STLB TOTAL     ACCESS:     162186  HIT:     155254  MISS:       6932  HIT %:    95.7259  MISS %:    4.27411   MPKI: 0.13864
STLB LOAD TRANSLATION ACCESS:     162186  HIT:     155254  MISS:       6932  HIT %:    95.7259  MISS %:    4.27411   MPKI: 0.13864
STLB PREFETCH  REQUESTED:          0  ISSUED:          0  USEFUL:          0  USELESS:          0
STLB USEFUL LOAD PREFETCHES:          0 PREFETCH ISSUED TO LOWER LEVEL:          0  ACCURACY: -nan
STLB TIMELY PREFETCHES:          0 LATE PREFETCHES: 0 DROPPED PREFETCHES: 0
STLB PREFETCHES SAME FILL-ORIGIN LEVEL: 0 DIFFERENT FILL-ORIGIN LEVEL: 0
STLB AVERAGE MISS LATENCY: 133.967 cycles
STLB RQ	ACCESS:     162186	FORWARD:          0	MERGED:          0	TO_CACHE:     162186

Revised Interactions: positive negative neutral
STLB_interactions 0 0 0 -nan -nan -nan
STLB Hit, L1D data hit: 0
STLB Hit, L2C data hit: 0
STLB Hit, LLC data hit: 0
STLB Hit, LLC data miss: 0
STLB STLB hints to L2: 0
L1D TOTAL     ACCESS:   19029900  HIT:   18868923  MISS:     160977  HIT %:    99.1541  MISS %:   0.845916   MPKI: 3.21954
L1D LOAD      ACCESS:    9315065  HIT:    9171692  MISS:     143373  HIT %:    98.4608  MISS %:    1.53915   MPKI: 2.86746
L1D RFO       ACCESS:    9714835  HIT:    9697231  MISS:      17604  HIT %:    99.8188  MISS %:   0.181207   MPKI: 0.35208
L1D PREFETCH  REQUESTED:          0  ISSUED:          0  USEFUL:          0  USELESS:          0
L1D USEFUL LOAD PREFETCHES:          0 PREFETCH ISSUED TO LOWER LEVEL:          0  ACCURACY: -nan
L1D TIMELY PREFETCHES:          0 LATE PREFETCHES: 0 DROPPED PREFETCHES: 0
L1D PREFETCHES SAME FILL-ORIGIN LEVEL: 0 DIFFERENT FILL-ORIGIN LEVEL: 0
L1D AVERAGE MISS LATENCY: 68.1804 cycles
L1D RQ	ACCESS:   11811818	FORWARD:          0	MERGED:    2226167	TO_CACHE:    9325580
L1D WQ	ACCESS:    9859024	FORWARD:     260071	MERGED:     111225	TO_CACHE:    9747799

Revised Interactions: positive negative neutral
L1D_interactions 0 0 0 -nan -nan -nan
L1D UNIQUE REGIONS ACCESSED: 0
L1D REGIONS CONFLICTS: 0
L1D Cross Page Prefetch Requests: 0
L1D Same Page Prefetch Requests: 0
L1D ROI Sum of L1D PQ occupancy: 0
L1D PREFETCHES PUSHED FROM L2C: 0
L1I TOTAL     ACCESS:    8763540  HIT:    8505424  MISS:     258116  HIT %:    97.0547  MISS %:    2.94534   MPKI: 5.16232
L1I LOAD      ACCESS:    8763540  HIT:    8505424  MISS:     258116  HIT %:    97.0547  MISS %:    2.94534   MPKI: 5.16232
L1I PREFETCH  REQUESTED:          0  ISSUED:          0  USEFUL:          0  USELESS:          0
L1I USEFUL LOAD PREFETCHES:          0 PREFETCH ISSUED TO LOWER LEVEL:          0  ACCURACY: -nan
L1I TIMELY PREFETCHES:          0 LATE PREFETCHES: 0 DROPPED PREFETCHES: 0
L1I PREFETCHES SAME FILL-ORIGIN LEVEL: 0 DIFFERENT FILL-ORIGIN LEVEL: 0
L1I AVERAGE MISS LATENCY: 17.2074 cycles
L1I RQ	ACCESS:   14031152	FORWARD:          0	MERGED:    5208095	TO_CACHE:    8823057

Revised Interactions: positive negative neutral
L1I_interactions 0 0 0 -nan -nan -nan
BTB TOTAL     ACCESS:    6455176  HIT:    6061139  MISS:     394037  HIT %:    93.8958  MISS %:     6.1042   MPKI: 7.88074
BTB BRANCH_DIRECT_JUMP	ACCESS:    1045243  HIT:    1041753  MISS:       3490
BTB BRANCH_INDIRECT	ACCESS:     321894  HIT:     103579  MISS:     218315
BTB BRANCH_CONDITIONAL	ACCESS:    4118131  HIT:    4108360  MISS:       9771
BTB BRANCH_DIRECT_CALL	ACCESS:     381768  HIT:     379264  MISS:       2504
BTB BRANCH_INDIRECT_CALL	ACCESS:     103186  HIT:      11246  MISS:      91940
BTB BRANCH_RETURN	ACCESS:     484954  HIT:     416937  MISS:      68017
BTB BRANCH_OTHER ACCESS:          0  HIT:          0  MISS:          0

L2C TOTAL     ACCESS:     513174  HIT:     433444  MISS:      79730  HIT %:    84.4634  MISS %:    15.5366   MPKI: 1.5946
L2C LOAD      ACCESS:     401489  HIT:     331249  MISS:      70240  HIT %:    82.5051  MISS %:    17.4949   MPKI: 1.4048
L2C DATA LOAD MPKI: 1.23422
L2C INSTRUCTION LOAD MPKI: 0.17058
L2C RFO       ACCESS:      17603  HIT:      12494  MISS:       5109  HIT %:    70.9765  MISS %:    29.0235   MPKI: 0.10218
L2C PREFETCH  ACCESS:      37628  HIT:      36948  MISS:        680  HIT %:    98.1928  MISS %:    1.80716   MPKI: 0.0136
L2C DATA PREFETCH MPKI: 0.0136
L2C INSTRUCTION PREFETCH MPKI: 0
L2C WRITEBACK ACCESS:      48151  HIT:      47572  MISS:        579  HIT %:    98.7975  MISS %:    1.20247   MPKI: 0.01158
L2C LOAD TRANSLATION ACCESS:       8303  HIT:       5181  MISS:       3122  HIT %:    62.3991  MISS %:    37.6009   MPKI: 0.06244
L2C PREFETCH  REQUESTED:      81196  ISSUED:      81196  USEFUL:        604  USELESS:         76
L2C USEFUL LOAD PREFETCHES:        604 PREFETCH ISSUED TO LOWER LEVEL:      41198  ACCURACY: 1.46609
L2C TIMELY PREFETCHES:        604 LATE PREFETCHES: 5 DROPPED PREFETCHES: 0
L2C PREFETCHES SAME FILL-ORIGIN LEVEL: 685 DIFFERENT FILL-ORIGIN LEVEL: 40513
L2C AVERAGE MISS LATENCY: 122.247 cycles
L2C RQ	ACCESS:     427396	FORWARD:          0	MERGED:          0	TO_CACHE:     427395
L2C WQ	ACCESS:      48151	FORWARD:          1	MERGED:          0	TO_CACHE:      48151
L2C PQ	ACCESS:      81196	FORWARD:          0	MERGED:       2089	TO_CACHE:      79107

Revised Interactions: positive negative neutral
L2C_interactions 583 77 78 78.9973 10.4336 10.5691
L2C Instructions Evicting Data 6808
L2C Translations Evicting Data 2557
L2C Data Evicting Data 56947
L2C Instructions Evicting Instructions 991
L2C Translations Evicting Instructions 314
L2C Data Evicting Instructions 6217
L2C Instructions Evicting Translations 343
L2C Translations Evicting Translations 123
L2C Data Evicting Translations 2446
L2C Dense regions hint from L2: 0
PSCL5 TOTAL     ACCESS:       6932  HIT:       6932  MISS:          0  HIT %:        100  MISS %:          0   MPKI: 0
PSCL5 LOAD TRANSLATION ACCESS:       6932  HIT:       6932  MISS:          0  HIT %:        100  MISS %:          0   MPKI: 0
PSCL5 PREFETCH  REQUESTED:          0  ISSUED:          0  USEFUL:          0  USELESS:          0
PSCL5 USEFUL LOAD PREFETCHES:          0 PREFETCH ISSUED TO LOWER LEVEL:          0  ACCURACY: -nan
PSCL5 TIMELY PREFETCHES:          0 LATE PREFETCHES: 0 DROPPED PREFETCHES: 0
PSCL5 PREFETCHES SAME FILL-ORIGIN LEVEL: 0 DIFFERENT FILL-ORIGIN LEVEL: 0

Revised Interactions: positive negative neutral
PSCL5_interactions 0 0 0 -nan -nan -nan
PSCL4 TOTAL     ACCESS:       6932  HIT:       6932  MISS:          0  HIT %:        100  MISS %:          0   MPKI: 0
PSCL4 LOAD TRANSLATION ACCESS:       6932  HIT:       6932  MISS:          0  HIT %:        100  MISS %:          0   MPKI: 0
PSCL4 PREFETCH  REQUESTED:          0  ISSUED:          0  USEFUL:          0  USELESS:          0
PSCL4 USEFUL LOAD PREFETCHES:          0 PREFETCH ISSUED TO LOWER LEVEL:          0  ACCURACY: -nan
PSCL4 TIMELY PREFETCHES:          0 LATE PREFETCHES: 0 DROPPED PREFETCHES: 0
PSCL4 PREFETCHES SAME FILL-ORIGIN LEVEL: 0 DIFFERENT FILL-ORIGIN LEVEL: 0

Revised Interactions: positive negative neutral
PSCL4_interactions 0 0 0 -nan -nan -nan
PSCL3 TOTAL     ACCESS:       6932  HIT:       6932  MISS:          0  HIT %:        100  MISS %:          0   MPKI: 0
PSCL3 LOAD TRANSLATION ACCESS:       6932  HIT:       6932  MISS:          0  HIT %:        100  MISS %:          0   MPKI: 0
PSCL3 PREFETCH  REQUESTED:          0  ISSUED:          0  USEFUL:          0  USELESS:          0
PSCL3 USEFUL LOAD PREFETCHES:          0 PREFETCH ISSUED TO LOWER LEVEL:          0  ACCURACY: -nan
PSCL3 TIMELY PREFETCHES:          0 LATE PREFETCHES: 0 DROPPED PREFETCHES: 0
PSCL3 PREFETCHES SAME FILL-ORIGIN LEVEL: 0 DIFFERENT FILL-ORIGIN LEVEL: 0

Revised Interactions: positive negative neutral
PSCL3_interactions 0 0 0 -nan -nan -nan
PSCL2 TOTAL     ACCESS:       6932  HIT:       5508  MISS:       1424  HIT %:    79.4576  MISS %:    20.5424   MPKI: 0.02848
PSCL2 LOAD TRANSLATION ACCESS:       6932  HIT:       5508  MISS:       1424  HIT %:    79.4576  MISS %:    20.5424   MPKI: 0.02848
PSCL2 PREFETCH  REQUESTED:          0  ISSUED:          0  USEFUL:          0  USELESS:          0
PSCL2 USEFUL LOAD PREFETCHES:          0 PREFETCH ISSUED TO LOWER LEVEL:          0  ACCURACY: -nan
PSCL2 TIMELY PREFETCHES:          0 LATE PREFETCHES: 0 DROPPED PREFETCHES: 0
PSCL2 PREFETCHES SAME FILL-ORIGIN LEVEL: 0 DIFFERENT FILL-ORIGIN LEVEL: 0

Revised Interactions: positive negative neutral
PSCL2_interactions 0 0 0 -nan -nan -nan
LLC TOTAL     ACCESS:     135321  HIT:      60881  MISS:      74440  HIT %:    44.9901  MISS %:    55.0099   MPKI: 1.4888
LLC LOAD      ACCESS:      70235  HIT:      24231  MISS:      46004  HIT %:    34.4999  MISS %:    65.5001   MPKI: 0.92008
LLC RFO       ACCESS:       5109  HIT:       1618  MISS:       3491  HIT %:    31.6696  MISS %:    68.3304   MPKI: 0.06982
LLC PREFETCH  ACCESS:      39662  HIT:      18385  MISS:      21277  HIT %:    46.3542  MISS %:    53.6458   MPKI: 0.42554
LLC WRITEBACK ACCESS:      17193  HIT:      15116  MISS:       2077  HIT %:    87.9195  MISS %:    12.0805   MPKI: 0.04154
LLC LOAD TRANSLATION ACCESS:       3122  HIT:       1531  MISS:       1591  HIT %:    49.0391  MISS %:    50.9609   MPKI: 0.03182
LLC PREFETCH  REQUESTED:          0  ISSUED:          0  USEFUL:      10243  USELESS:       3644
LLC USEFUL LOAD PREFETCHES:      10243 PREFETCH ISSUED TO LOWER LEVEL:      22236  ACCURACY: 46.0649
LLC TIMELY PREFETCHES:      10243 LATE PREFETCHES: 959 DROPPED PREFETCHES: 0
LLC PREFETCHES SAME FILL-ORIGIN LEVEL: 22187 DIFFERENT FILL-ORIGIN LEVEL: 0
LLC AVERAGE MISS LATENCY: 140.827 cycles
LLC RQ	ACCESS:      78466	FORWARD:          0	MERGED:          0	TO_CACHE:      78466
LLC WQ	ACCESS:      17193	FORWARD:          0	MERGED:          0	TO_CACHE:      17193
LLC PQ	ACCESS:      41198	FORWARD:          0	MERGED:         54	TO_CACHE:      41144

Revised Interactions: positive negative neutral
LLC_interactions 6791 8117 2220 39.6485 47.3902 12.9612
LLC Dense regions hint to LLC: 0

RAW hits: 721024
Loads Generated: 12532841
Loads sent to L1D: 11811818
Stores Generated: 9859017
Stores sent to L1D: 9859024
Major fault: 0 Minor fault: 5057
Allocated PAGES: 5057
 All Calls: 148445
 Critical Calls: 148445
------------------
Depth Distribution
------------------
depth 0: 0
depth 1: 67775
depth 2: 9817
depth 3: 4449
depth 4: 2071
depth 5: 558
depth 6: 45
depth 7: 9
depth 8: 2
depth 9: 2
depth 10: 2
depth 11: 1
depth 12: 1
depth 13: 0
depth 14: 0
depth 15: 0
depth 16: 0
depth 17: 0
depth 18: 0
depth 19: 0
depth 20: 0
depth 21: 0
depth 22: 0
depth 23: 0
depth 24: 0
depth 25: 0
depth 26: 0
depth 27: 0
depth 28: 0
depth 29: 0
Total: 84732
-----------------------------
-----------------------------
	Captured at Filter
-----------------------------
depth 0: 0
depth 1: 1450
depth 2: 1109
depth 3: 1102
depth 4: 854
depth 5: 416
depth 6: 0
depth 7: 0
depth 8: 0
depth 9: 0
depth 10: 0
depth 11: 0
depth 12: 0
depth 13: 0
depth 14: 0
depth 15: 0
depth 16: 0
depth 17: 0
depth 18: 0
depth 19: 0
depth 20: 0
depth 21: 0
depth 22: 0
depth 23: 0
depth 24: 0
depth 25: 0
depth 26: 0
depth 27: 0
depth 28: 0
depth 29: 0
-----------------------------
-----------------------------
		Lost at Page
-----------------------------
depth 0: 0
depth 1: 2388
depth 2: 305
depth 3: 181
depth 4: 109
depth 5: 52
depth 6: 12
depth 7: 10
depth 8: 3
depth 9: 0
depth 10: 0
depth 11: 0
depth 12: 0
depth 13: 0
depth 14: 0
depth 15: 0
depth 16: 0
depth 17: 0
depth 18: 0
depth 19: 0
depth 20: 0
depth 21: 0
depth 22: 0
depth 23: 0
depth 24: 0
depth 25: 0
depth 26: 0
depth 27: 0
depth 28: 0
depth 29: 0
-----------------------------
-----------------------------
	Lost due to PQ Size
-----------------------------
0
-----------------------------
ST read accesses: 123420
ST write accesses: 19953
PT read accesses: 1517603
PT write accesses: 158097
FILTER read accesses: 309223
FILTER write accesses: 83044
GHR read accesses: 180230
GHR write accesses: 2883
GHR counter read accesses: 1195614
GHR counter write accesses: 145523
ST tag read accesses: 65643868
ST tag write accesses: 9125865

DRAM Statistics
 CHANNEL 0
 RQ ROW_BUFFER_HIT:      18943  ROW_BUFFER_MISS:      53420
 DBUS_CONGESTED:          9
 WQ ROW_BUFFER_HIT:        989  ROW_BUFFER_MISS:       4924  FULL:          0

 AVG_CONGESTED_CYCLE: 3
 All warmup complete: 2
Channel 0 Bank busy for read cycles: 0
Channel 0 Bank busy for write cycles: 0
Channel 0
Rank 0
0banks busy for read cycles: 103797279
0banks busy for write cycles: 4991
1banks busy for read cycles: 5281133
1banks busy for write cycles: 822748
2banks busy for read cycles: 1316017
2banks busy for write cycles: 94600
3banks busy for read cycles: 231147
3banks busy for write cycles: 17095
4banks busy for read cycles: 51602
4banks busy for write cycles: 1700
5banks busy for read cycles: 13823
5banks busy for write cycles: 518
6banks busy for read cycles: 5590
6banks busy for write cycles: 534
7banks busy for read cycles: 3074
7banks busy for write cycles: 360
8banks busy for read cycles: 2876
8banks busy for write cycles: 0

CPU 0 Branch Prediction Accuracy: 96.2601% MPKI: 6.26918 Average ROB Occupancy at Mispredict: 28.6648
Branch types
NOT_BRANCH: 41618174 83.2363%
BRANCH_DIRECT_JUMP: 1045243 2.09049%
BRANCH_INDIRECT: 321894 0.643788%
BRANCH_CONDITIONAL: 6044455 12.0889%
BRANCH_DIRECT_CALL: 381768 0.763536%
BRANCH_INDIRECT_CALL: 103186 0.206372%
BRANCH_RETURN: 484954 0.969908%
BRANCH_OTHER: 0 0%

@sumon_overall_L1D         0         0         0         0         0         0         0
@Sumon_Early_by_class_L1D         0         0         0         0
@Sumon_Late_by_class_L1D         0         0         0         0

@Sumon_Early_by_cycle_L1D         0         0         0         0         0         0         0         0         0         0         0         0
@Sumon_Late_by_cycle_L1D         0         0         0         0         0         0
@Sumon_Early_stream_L1D         0         0         0         0         0         0         0         0         0         0         0         0
@Sumon_Early_CS_L1D         0         0         0         0         0         0         0         0         0         0         0         0
@Sumon_Early_CPLX_L1D         0         0         0         0         0         0         0         0         0         0         0         0
@Sumon_Late_stream_L1D         0         0         0         0         0         0
@Sumon_Late_CS_L1D         0         0         0         0         0         0
@Sumon_Late_CPLX_L1D         0         0         0         0         0         0
@sumon_overall_L2C       604         5         0        76       680     81196     81196
@Sumon_Early_by_class_L2C         0         0         0         0
@Sumon_Late_by_class_L2C         0         0         0         0

@Sumon_Early_by_cycle_L2C        84        29         8        22         0       162       203        35        10        29         5        17
@Sumon_Late_by_cycle_L2C         2         2         1         0         0         0
@Sumon_Early_stream_L2C         0         0         0         0         0         0         0         0         0         0         0         0
@Sumon_Early_CS_L2C         0         0         0         0         0         0         0         0         0         0         0         0
@Sumon_Early_CPLX_L2C         0         0         0         0         0         0         0         0         0         0         0         0
@Sumon_Late_stream_L2C         0         0         0         0         0         0
@Sumon_Late_CS_L2C         0         0         0         0         0         0
@Sumon_Late_CPLX_L2C         0         0         0         0         0         0
DRAM PAGES: 1048576
Allocated PAGES: 5057
