Initialize SIGNATURE TABLE
ST_SET: 1
ST_WAY: 256
ST_TAG_BIT: 16
ST_TAG_MASK: ffff

Initialize PATTERN TABLE
PT_SET: 512
PT_WAY: 4
SIG_DELTA_BIT: 7
C_SIG_BIT: 4
C_DELTA_BIT: 4

Initialize PREFETCH FILTER
FILTER_SET: 1024

*** ChampSim Multicore Out-of-Order Simulator ***

Warmup Instructions: 50000000
Simulation Instructions: 50000000
Number of CPUs: 1
LLC sets: 2048
LLC ways: 16
Off-chip DRAM Size: 4096 MB Channels: 1 Width: 64-bit Data Rate: 6400 MT/s
CPU 0 runs ../../biswa/SPEC2017Traces/602.gcc_s-734B.champsimtrace.xz
.xz
CPU 0 Bimodal branch predictor
BTB has LRU replacement policy
ITLB has LRU replacement policy
DTLB has LRU replacement policy
STLB has LRU replacement policy
L1I has LRU replacement policy
L1D has LRU replacement policy
ST_WAYS: 256
PT_SETS: 512
Initialize DRRIP state for L2C
Initialize Hawkeye state
epoch: 1000
next table: 3214
cur table: 17305
epoch: 1000
next table: 3048
cur table: 3214
epoch: 1000
next table: 3276
cur table: 3048
epoch: 1000
next table: 3045
cur table: 3276
epoch: 1000
next table: 3043
cur table: 3045
epoch: 1000
next table: 3095
cur table: 3043
epoch: 1000
next table: 2977
cur table: 3095
epoch: 1000
next table: 2953
cur table: 2977
epoch: 1000
next table: 3015
cur table: 2953
epoch: 1000
next table: 3034
cur table: 3015
epoch: 1000
next table: 2986
cur table: 3034
epoch: 1000
next table: 3016
cur table: 2986
epoch: 1000
next table: 3008
cur table: 3016
epoch: 1000
next table: 3006
cur table: 3008
epoch: 1000
next table: 3005
cur table: 3006
epoch: 1000
next table: 3012
cur table: 3005
epoch: 1000
next table: 3011
cur table: 3012
epoch: 1000
next table: 3004
cur table: 3011
epoch: 1000
next table: 2999
cur table: 3004
epoch: 1000
next table: 3015
cur table: 2999
epoch: 1000
next table: 2162
cur table: 10320
epoch: 1000
next table: 2974
cur table: 3015
epoch: 1000
next table: 3014
cur table: 2974
epoch: 1000
next table: 1620
cur table: 2162
epoch: 1000
next table: 3014
cur table: 3014
epoch: 1000
next table: 3003
cur table: 3014
epoch: 1000
next table: 1509
cur table: 1620
epoch: 1000
next table: 2954
cur table: 3003
epoch: 1000
next table: 1458
cur table: 1509
epoch: 1000
next table: 2989
cur table: 2954
epoch: 1000
next table: 1463
cur table: 1458
epoch: 1000
next table: 2973
cur table: 2989
epoch: 1000
next table: 1405
cur table: 1463
epoch: 1000
next table: 3010
cur table: 2973
epoch: 1000
next table: 1371
cur table: 1405
epoch: 1000
next table: 2993
cur table: 3010
epoch: 1000
next table: 3002
cur table: 2993
epoch: 1000
next table: 1347
cur table: 1371
epoch: 1000
next table: 3020
cur table: 3002
epoch: 1000
next table: 1360
cur table: 1347
epoch: 1000
next table: 3035
cur table: 3020
epoch: 1000
next table: 1331
cur table: 1360
epoch: 1000
next table: 3009
cur table: 3035
epoch: 1000
next table: 1352
cur table: 1331
epoch: 1000
next table: 2987
cur table: 3009
epoch: 1000
next table: 1344
cur table: 1352
epoch: 1000
next table: 2984
cur table: 2987
epoch: 1000
next table: 1340
cur table: 1344
epoch: 1000
next table: 3007
cur table: 2984
epoch: 1000
next table: 1336
cur table: 1340
epoch: 1000
next table: 3018
cur table: 3007
epoch: 1000
next table: 1333
cur table: 1336
epoch: 1000
next table: 3015
cur table: 3018
epoch: 1000
next table: 1347
cur table: 1333
epoch: 1000
next table: 3012
cur table: 3015
epoch: 1000
next table: 1313
cur table: 1347
epoch: 1000
next table: 3024
cur table: 3012
epoch: 1000
next table: 1306
cur table: 1313
epoch: 1000
next table: 3013
cur table: 3024
epoch: 1000
next table: 1340
cur table: 1306
epoch: 1000
next table: 1349
cur table: 1340
epoch: 1000
next table: 3006
cur table: 3013
epoch: 1000
next table: 1320
cur table: 1349
epoch: 1000
next table: 3005
cur table: 3006
epoch: 1000
next table: 1340
cur table: 1320
epoch: 1000
next table: 3011
cur table: 3005
epoch: 1000
next table: 1338
cur table: 1340
epoch: 1000
next table: 3016
cur table: 3011
epoch: 1000
next table: 1322
cur table: 1338
epoch: 1000
next table: 2971
cur table: 3016
epoch: 1000
next table: 1356
cur table: 1322
epoch: 1000
next table: 2984
cur table: 2971
epoch: 1000
next table: 1357
cur table: 1356
epoch: 1000
next table: 2967
cur table: 2984
epoch: 1000
next table: 1326
cur table: 1357
epoch: 1000
next table: 2972
cur table: 2967
epoch: 1000
next table: 1358
cur table: 1326
epoch: 1000
next table: 2934
cur table: 2972
epoch: 1000
next table: 1329
cur table: 1358
epoch: 1000
next table: 3026
cur table: 2934
epoch: 1000
next table: 1394
cur table: 1329
epoch: 1000
next table: 2921
cur table: 3026
epoch: 1000
next table: 1311
cur table: 1394
epoch: 1000
next table: 3015
cur table: 2921
epoch: 1000
next table: 1326
cur table: 1311
epoch: 1000
next table: 3014
cur table: 3015
epoch: 1000
next table: 1330
cur table: 1326
epoch: 1000
next table: 2971
cur table: 3014
epoch: 1000
next table: 1329
cur table: 1330
epoch: 1000
next table: 2915
cur table: 2971
epoch: 1000
next table: 1356
cur table: 1329
epoch: 1000
next table: 2965
cur table: 2915
epoch: 1000
next table: 1333
cur table: 1356
epoch: 1000
next table: 1391
cur table: 1333
epoch: 1000
next table: 2911
cur table: 2965
epoch: 1000
next table: 1316
cur table: 1391
epoch: 1000
next table: 3015
cur table: 2911
epoch: 1000
next table: 1313
cur table: 1316
epoch: 1000
next table: 3015
cur table: 3015
epoch: 1000
next table: 1430
cur table: 1313
epoch: 1000
next table: 2815
cur table: 3015
epoch: 1000
next table: 1326
cur table: 1430
epoch: 1000
next table: 3004
cur table: 2815
epoch: 1000
next table: 1321
cur table: 1326
epoch: 1000
next table: 3012
cur table: 3004
epoch: 1000
next table: 1397
cur table: 1321
epoch: 1000
next table: 2850
cur table: 3012
epoch: 1000
next table: 1322
cur table: 1397
epoch: 1000
next table: 2994
cur table: 2850
epoch: 1000
next table: 1330
cur table: 1322
epoch: 1000
next table: 3008
cur table: 2994
epoch: 1000
next table: 1325
cur table: 1330
epoch: 1000
next table: 2985
cur table: 3008
epoch: 1000
next table: 1350
cur table: 1325
epoch: 1000
next table: 2986
cur table: 2985
epoch: 1000
next table: 1309
cur table: 1350
epoch: 1000
next table: 3015
cur table: 2986
epoch: 1000
next table: 1339
cur table: 1309
epoch: 1000
next table: 2985
cur table: 3015
epoch: 1000
next table: 1374
cur table: 1339
epoch: 1000
next table: 2905
cur table: 2985
epoch: 1000
next table: 1342
cur table: 1374
epoch: 1000
next table: 2965
cur table: 2905
epoch: 1000
next table: 1357
cur table: 1342
epoch: 1000
next table: 2996
cur table: 2965
epoch: 1000
next table: 1324
cur table: 1357
Heartbeat CPU 0 instructions: 10000000 cycles: 3227717 heartbeat IPC: 3.09817 cumulative IPC: 3.09817 (Simulation time: 0 hr 3 min 1 sec) 
epoch: 1000
next table: 1329
cur table: 1324
epoch: 1000
next table: 3002
cur table: 2996
epoch: 1000
next table: 1342
cur table: 1329
epoch: 1000
next table: 3005
cur table: 3002
epoch: 1000
next table: 1306
cur table: 1342
epoch: 1000
next table: 3016
cur table: 3005
epoch: 1000
next table: 1323
cur table: 1306
epoch: 1000
next table: 3015
cur table: 3016
epoch: 1000
next table: 1325
cur table: 1323
epoch: 1000
next table: 2999
cur table: 3015
epoch: 1000
next table: 1327
cur table: 1325
epoch: 1000
next table: 2992
cur table: 2999
epoch: 1000
next table: 1336
cur table: 1327
epoch: 1000
next table: 3019
cur table: 2992
epoch: 1000
next table: 1334
cur table: 1336
epoch: 1000
next table: 3016
cur table: 3019
epoch: 1000
next table: 1330
cur table: 1334
epoch: 1000
next table: 2988
cur table: 3016
epoch: 1000
next table: 1336
cur table: 1330
epoch: 1000
next table: 3010
cur table: 2988
epoch: 1000
next table: 1328
cur table: 1336
epoch: 1000
next table: 2979
cur table: 3010
epoch: 1000
next table: 1317
cur table: 1328
epoch: 1000
next table: 2986
cur table: 2979
epoch: 1000
next table: 1338
cur table: 1317
epoch: 1000
next table: 3034
cur table: 2986
epoch: 1000
next table: 1324
cur table: 1338
epoch: 1000
next table: 3017
cur table: 3034
epoch: 1000
next table: 1303
cur table: 1324
epoch: 1000
next table: 3006
cur table: 3017
epoch: 1000
next table: 1318
cur table: 1303
epoch: 1000
next table: 3015
cur table: 3006
epoch: 1000
next table: 1340
cur table: 1318
epoch: 1000
next table: 2752
cur table: 3015
epoch: 1000
next table: 1492
cur table: 1340
epoch: 1000
next table: 1318
cur table: 1492
epoch: 1000
next table: 2997
cur table: 2752
epoch: 1000
next table: 1351
cur table: 1318
epoch: 1000
next table: 2950
cur table: 2997
epoch: 1000
next table: 1321
cur table: 1351
epoch: 1000
next table: 3023
cur table: 2950
epoch: 1000
next table: 1329
cur table: 1321
epoch: 1000
next table: 3016
cur table: 3023
epoch: 1000
next table: 1337
cur table: 1329
epoch: 1000
next table: 3000
cur table: 3016
epoch: 1000
next table: 1313
cur table: 1337
epoch: 1000
next table: 2999
cur table: 3000
epoch: 1000
next table: 1320
cur table: 1313
epoch: 1000
next table: 3009
cur table: 2999
epoch: 1000
next table: 1331
cur table: 1320
epoch: 1000
next table: 2972
cur table: 3009
epoch: 1000
next table: 1322
cur table: 1331
epoch: 1000
next table: 3012
cur table: 2972
epoch: 1000
next table: 1322
cur table: 1322
epoch: 1000
next table: 2909
cur table: 3012
epoch: 1000
next table: 1378
cur table: 1322
epoch: 1000
next table: 2943
cur table: 2909
epoch: 1000
next table: 1384
cur table: 1378
epoch: 1000
next table: 2940
cur table: 2943
epoch: 1000
next table: 1323
cur table: 1384
epoch: 1000
next table: 1409
cur table: 1323
epoch: 1000
next table: 2819
cur table: 2940
epoch: 1000
next table: 1326
cur table: 1409
epoch: 1000
next table: 2998
cur table: 2819
epoch: 1000
next table: 1327
cur table: 1326
epoch: 1000
next table: 3002
cur table: 2998
epoch: 1000
next table: 1424
cur table: 1327
epoch: 1000
next table: 2800
cur table: 3002
epoch: 1000
next table: 1405
cur table: 1424
epoch: 1000
next table: 2867
cur table: 2800
epoch: 1000
next table: 1334
cur table: 1405
epoch: 1000
next table: 2939
cur table: 2867
epoch: 1000
next table: 1465
cur table: 1334
epoch: 1000
next table: 2011
cur table: 2939
epoch: 1000
next table: 1466
cur table: 1465
epoch: 1000
next table: 3161
cur table: 2011
epoch: 1000
next table: 1501
cur table: 1466
epoch: 1000
next table: 3997
cur table: 3161
epoch: 1000
next table: 1530
cur table: 1501
epoch: 1000
next table: 3865
cur table: 3997
epoch: 1000
next table: 1403
cur table: 1530
epoch: 1000
next table: 1352
cur table: 1403
epoch: 1000
next table: 2034
cur table: 3865
epoch: 1000
next table: 1391
cur table: 1352
epoch: 1000
next table: 2927
cur table: 2034
epoch: 1000
next table: 1348
cur table: 1391
epoch: 1000
next table: 2950
cur table: 2927
epoch: 1000
next table: 1345
cur table: 1348
epoch: 1000
next table: 2994
cur table: 2950
epoch: 1000
next table: 1333
cur table: 1345
epoch: 1000
next table: 3007
cur table: 2994
epoch: 1000
next table: 1305
cur table: 1333
epoch: 1000
next table: 3002
cur table: 3007
epoch: 1000
next table: 1375
cur table: 1305
epoch: 1000
next table: 2939
cur table: 3002
epoch: 1000
next table: 1328
cur table: 1375
epoch: 1000
next table: 3000
cur table: 2939
epoch: 1000
next table: 1324
cur table: 1328
epoch: 1000
next table: 3034
cur table: 3000
epoch: 1000
next table: 1315
cur table: 1324
epoch: 1000
next table: 3024
cur table: 3034
epoch: 1000
next table: 1302
cur table: 1315
epoch: 1000
next table: 3014
cur table: 3024
epoch: 1000
next table: 1312
cur table: 1302
epoch: 1000
next table: 3011
cur table: 3014
epoch: 1000
next table: 1327
cur table: 1312
epoch: 1000
next table: 2999
cur table: 3011
epoch: 1000
next table: 1322
cur table: 1327
epoch: 1000
next table: 3011
cur table: 2999
epoch: 1000
next table: 1311
cur table: 1322
epoch: 1000
next table: 2971
cur table: 3011
epoch: 1000
next table: 1331
cur table: 1311
epoch: 1000
next table: 1319
cur table: 1331
epoch: 1000
next table: 3006
cur table: 2971
epoch: 1000
next table: 1309
cur table: 1319
epoch: 1000
next table: 3037
cur table: 3006
epoch: 1000
next table: 1341
cur table: 1309
epoch: 1000
next table: 3027
cur table: 3037
epoch: 1000
next table: 1303
cur table: 1341
epoch: 1000
next table: 3028
cur table: 3027
epoch: 1000
next table: 1319
cur table: 1303
epoch: 1000
next table: 3021
cur table: 3028
epoch: 1000
next table: 1316
cur table: 1319
epoch: 1000
next table: 3011
cur table: 3021
epoch: 1000
next table: 1333
cur table: 1316
epoch: 1000
next table: 3015
cur table: 3011
epoch: 1000
next table: 1317
cur table: 1333
epoch: 1000
next table: 3011
cur table: 3015
epoch: 1000
next table: 1331
cur table: 1317
epoch: 1000
next table: 3026
cur table: 3011
epoch: 1000
next table: 1326
cur table: 1331
epoch: 1000
next table: 3023
cur table: 3026
epoch: 1000
next table: 1330
cur table: 1326
epoch: 1000
next table: 2975
cur table: 3023
epoch: 1000
next table: 1310
cur table: 1330
epoch: 1000
next table: 3008
cur table: 2975
epoch: 1000
next table: 1318
cur table: 1310
epoch: 1000
next table: 3012
cur table: 3008
epoch: 1000
next table: 1309
cur table: 1318
epoch: 1000
next table: 3003
cur table: 3012
epoch: 1000
next table: 1325
cur table: 1309
epoch: 1000
next table: 3002
cur table: 3003
epoch: 1000
next table: 1337
cur table: 1325
epoch: 1000
next table: 2980
cur table: 3002
epoch: 1000
next table: 1336
cur table: 1337
epoch: 1000
next table: 3017
cur table: 2980
epoch: 1000
next table: 1314
cur table: 1336
epoch: 1000
next table: 3012
cur table: 3017
epoch: 1000
next table: 1315
cur table: 1314
epoch: 1000
next table: 3008
cur table: 3012
epoch: 1000
next table: 1326
cur table: 1315
epoch: 1000
next table: 1339
cur table: 1326
epoch: 1000
next table: 2995
cur table: 3008
epoch: 1000
next table: 1303
cur table: 1339
epoch: 1000
next table: 3013
cur table: 2995
epoch: 1000
next table: 1332
cur table: 1303
epoch: 1000
next table: 3010
cur table: 3013
epoch: 1000
next table: 1327
cur table: 1332
epoch: 1000
next table: 3021
cur table: 3010
epoch: 1000
next table: 1323
cur table: 1327
epoch: 1000
next table: 3026
cur table: 3021
epoch: 1000
next table: 1334
cur table: 1323
epoch: 1000
next table: 3042
cur table: 3026
epoch: 1000
next table: 1325
cur table: 1334
epoch: 1000
next table: 3015
cur table: 3042
epoch: 1000
next table: 1345
cur table: 1325
epoch: 1000
next table: 3004
cur table: 3015
epoch: 1000
next table: 1321
cur table: 1345
epoch: 1000
next table: 2996
cur table: 3004
epoch: 1000
next table: 1322
cur table: 1321
epoch: 1000
next table: 3020
cur table: 2996
epoch: 1000
next table: 1331
cur table: 1322
epoch: 1000
next table: 3023
cur table: 3020
Heartbeat CPU 0 instructions: 20000002 cycles: 6469412 heartbeat IPC: 3.08481 cumulative IPC: 3.09147 (Simulation time: 0 hr 5 min 57 sec) 
epoch: 1000
next table: 1334
cur table: 1331
epoch: 1000
next table: 3025
cur table: 3023
epoch: 1000
next table: 1324
cur table: 1334
epoch: 1000
next table: 3036
cur table: 3025
epoch: 1000
next table: 1331
cur table: 1324
epoch: 1000
next table: 3013
cur table: 3036
epoch: 1000
next table: 1342
cur table: 1331
epoch: 1000
next table: 3025
cur table: 3013
epoch: 1000
next table: 1314
cur table: 1342
epoch: 1000
next table: 3021
cur table: 3025
epoch: 1000
next table: 1332
cur table: 1314
epoch: 1000
next table: 2992
cur table: 3021
epoch: 1000
next table: 1345
cur table: 1332
epoch: 1000
next table: 3016
cur table: 2992
epoch: 1000
next table: 1332
cur table: 1345
epoch: 1000
next table: 3011
cur table: 3016
epoch: 1000
next table: 1338
cur table: 1332
epoch: 1000
next table: 3004
cur table: 3011
epoch: 1000
next table: 1340
cur table: 1338
epoch: 1000
next table: 3030
cur table: 3004
epoch: 1000
next table: 1300
cur table: 1340
epoch: 1000
next table: 3002
cur table: 3030
epoch: 1000
next table: 1328
cur table: 1300
epoch: 1000
next table: 3021
cur table: 3002
epoch: 1000
next table: 1316
cur table: 1328
epoch: 1000
next table: 3009
cur table: 3021
epoch: 1000
next table: 1308
cur table: 1316
epoch: 1000
next table: 1325
cur table: 1308
epoch: 1000
next table: 2996
cur table: 3009
epoch: 1000
next table: 1320
cur table: 1325
epoch: 1000
next table: 3033
cur table: 2996
epoch: 1000
next table: 1323
cur table: 1320
epoch: 1000
next table: 3004
cur table: 3033
epoch: 1000
next table: 1316
cur table: 1323
epoch: 1000
next table: 3029
cur table: 3004
epoch: 1000
next table: 1333
cur table: 1316
epoch: 1000
next table: 2985
cur table: 3029
epoch: 1000
next table: 1326
cur table: 1333
epoch: 1000
next table: 3025
cur table: 2985
epoch: 1000
next table: 1325
cur table: 1326
epoch: 1000
next table: 3013
cur table: 3025
epoch: 1000
next table: 1344
cur table: 1325
epoch: 1000
next table: 2990
cur table: 3013
epoch: 1000
next table: 1305
cur table: 1344
epoch: 1000
next table: 3011
cur table: 2990
epoch: 1000
next table: 1313
cur table: 1305
epoch: 1000
next table: 3011
cur table: 3011
epoch: 1000
next table: 1348
cur table: 1313
epoch: 1000
next table: 3000
cur table: 3011
epoch: 1000
next table: 1309
cur table: 1348
epoch: 1000
next table: 3006
cur table: 3000
epoch: 1000
next table: 1313
cur table: 1309
epoch: 1000
next table: 3019
cur table: 3006
epoch: 1000
next table: 1314
cur table: 1313
epoch: 1000
next table: 3027
cur table: 3019
epoch: 1000
next table: 1312
cur table: 1314
epoch: 1000
next table: 3033
cur table: 3027
epoch: 1000
next table: 1321
cur table: 1312
epoch: 1000
next table: 3004
cur table: 3033
epoch: 1000
next table: 1328
cur table: 1321
epoch: 1000
next table: 2987
cur table: 3004
epoch: 1000
next table: 1338
cur table: 1328
epoch: 1000
next table: 3003
cur table: 2987
epoch: 1000
next table: 1328
cur table: 1338
epoch: 1000
next table: 1326
cur table: 1328
epoch: 1000
next table: 2983
cur table: 3003
epoch: 1000
next table: 1309
cur table: 1326
epoch: 1000
next table: 3034
cur table: 2983
epoch: 1000
next table: 1315
cur table: 1309
epoch: 1000
next table: 2995
cur table: 3034
epoch: 1000
next table: 1338
cur table: 1315
epoch: 1000
next table: 2990
cur table: 2995
epoch: 1000
next table: 1315
cur table: 1338
epoch: 1000
next table: 3011
cur table: 2990
epoch: 1000
next table: 1344
cur table: 1315
epoch: 1000
next table: 2997
cur table: 3011
epoch: 1000
next table: 1316
cur table: 1344
epoch: 1000
next table: 3031
cur table: 2997
epoch: 1000
next table: 1316
cur table: 1316
epoch: 1000
next table: 3015
cur table: 3031
epoch: 1000
next table: 1339
cur table: 1316
epoch: 1000
next table: 3018
cur table: 3015
epoch: 1000
next table: 1305
cur table: 1339
epoch: 1000
next table: 3021
cur table: 3018
epoch: 1000
next table: 1295
cur table: 1305
epoch: 1000
next table: 3030
cur table: 3021
epoch: 1000
next table: 1315
cur table: 1295
epoch: 1000
next table: 3018
cur table: 3030
epoch: 1000
next table: 1313
cur table: 1315
epoch: 1000
next table: 3032
cur table: 3018
epoch: 1000
next table: 1320
cur table: 1313
epoch: 1000
next table: 3045
cur table: 3032
epoch: 1000
next table: 1306
cur table: 1320
epoch: 1000
next table: 3033
cur table: 3045
epoch: 1000
next table: 1320
cur table: 1306
epoch: 1000
next table: 3011
cur table: 3033
epoch: 1000
next table: 1312
cur table: 1320
epoch: 1000
next table: 3019
cur table: 3011
epoch: 1000
next table: 1319
cur table: 1312
epoch: 1000
next table: 3032
cur table: 3019
epoch: 1000
next table: 1330
cur table: 1319
epoch: 1000
next table: 3025
cur table: 3032
epoch: 1000
next table: 1297
cur table: 1330
epoch: 1000
next table: 3018
cur table: 3025
epoch: 1000
next table: 1321
cur table: 1297
epoch: 1000
next table: 3021
cur table: 3018
epoch: 1000
next table: 1310
cur table: 1321
epoch: 1000
next table: 3035
cur table: 3021
epoch: 1000
next table: 1330
cur table: 1310
epoch: 1000
next table: 2959
cur table: 3035
epoch: 1000
next table: 1366
cur table: 1330
epoch: 1000
next table: 3016
cur table: 2959
epoch: 1000
next table: 1309
cur table: 1366
epoch: 1000
next table: 1331
cur table: 1309
epoch: 1000
next table: 3020
cur table: 3016
epoch: 1000
next table: 1322
cur table: 1331
epoch: 1000
next table: 3022
cur table: 3020
epoch: 1000
next table: 1320
cur table: 1322
epoch: 1000
next table: 3041
cur table: 3022
epoch: 1000
next table: 1319
cur table: 1320
epoch: 1000
next table: 3020
cur table: 3041
epoch: 1000
next table: 1321
cur table: 1319
epoch: 1000
next table: 3010
cur table: 3020
epoch: 1000
next table: 1334
cur table: 1321
epoch: 1000
next table: 3031
cur table: 3010
epoch: 1000
next table: 1320
cur table: 1334
epoch: 1000
next table: 2979
cur table: 3031
epoch: 1000
next table: 1342
cur table: 1320
epoch: 1000
next table: 3007
cur table: 2979
epoch: 1000
next table: 1326
cur table: 1342
epoch: 1000
next table: 3025
cur table: 3007
epoch: 1000
next table: 1344
cur table: 1326
epoch: 1000
next table: 3040
cur table: 3025
epoch: 1000
next table: 1330
cur table: 1344
epoch: 1000
next table: 3030
cur table: 3040
epoch: 1000
next table: 1331
cur table: 1330
epoch: 1000
next table: 3043
cur table: 3030
epoch: 1000
next table: 1354
cur table: 1331
epoch: 1000
next table: 3010
cur table: 3043
epoch: 1000
next table: 1340
cur table: 1354
epoch: 1000
next table: 3049
cur table: 3010
epoch: 1000
next table: 1328
cur table: 1340
epoch: 1000
next table: 3018
cur table: 3049
epoch: 1000
next table: 1364
cur table: 1328
epoch: 1000
next table: 2973
cur table: 3018
epoch: 1000
next table: 1311
cur table: 1364
epoch: 1000
next table: 3026
cur table: 2973
epoch: 1000
next table: 1307
cur table: 1311
epoch: 1000
next table: 3007
cur table: 3026
epoch: 1000
next table: 1327
cur table: 1307
epoch: 1000
next table: 2991
cur table: 3007
epoch: 1000
next table: 1341
cur table: 1327
epoch: 1000
next table: 3008
cur table: 2991
epoch: 1000
next table: 1321
cur table: 1341
epoch: 1000
next table: 3019
cur table: 3008
epoch: 1000
next table: 1323
cur table: 1321
epoch: 1000
next table: 3018
cur table: 3019
epoch: 1000
next table: 1303
cur table: 1323
epoch: 1000
next table: 3022
cur table: 3018
epoch: 1000
next table: 1311
cur table: 1303
epoch: 1000
next table: 3011
cur table: 3022
epoch: 1000
next table: 1344
cur table: 1311
epoch: 1000
next table: 3034
cur table: 3011
epoch: 1000
next table: 1311
cur table: 1344
epoch: 1000
next table: 3009
cur table: 3034
epoch: 1000
next table: 1331
cur table: 1311
Heartbeat CPU 0 instructions: 30000000 cycles: 9688834 heartbeat IPC: 3.10615 cumulative IPC: 3.09635 (Simulation time: 0 hr 9 min 1 sec) 
epoch: 1000
next table: 1369
cur table: 1331
epoch: 1000
next table: 2936
cur table: 3009
epoch: 1000
next table: 1323
cur table: 1369
epoch: 1000
next table: 2989
cur table: 2936
epoch: 1000
next table: 1318
cur table: 1323
epoch: 1000
next table: 3003
cur table: 2989
epoch: 1000
next table: 1343
cur table: 1318
epoch: 1000
next table: 2995
cur table: 3003
epoch: 1000
next table: 1330
cur table: 1343
epoch: 1000
next table: 2993
cur table: 2995
epoch: 1000
next table: 1349
cur table: 1330
epoch: 1000
next table: 3004
cur table: 2993
epoch: 1000
next table: 1354
cur table: 1349
epoch: 1000
next table: 2982
cur table: 3004
epoch: 1000
next table: 1335
cur table: 1354
epoch: 1000
next table: 2969
cur table: 2982
epoch: 1000
next table: 1339
cur table: 1335
epoch: 1000
next table: 3025
cur table: 2969
epoch: 1000
next table: 1351
cur table: 1339
epoch: 1000
next table: 3010
cur table: 3025
epoch: 1000
next table: 1309
cur table: 1351
epoch: 1000
next table: 3013
cur table: 3010
epoch: 1000
next table: 1351
cur table: 1309
epoch: 1000
next table: 2969
cur table: 3013
epoch: 1000
next table: 1369
cur table: 1351
epoch: 1000
next table: 2961
cur table: 2969
epoch: 1000
next table: 1331
cur table: 1369
epoch: 1000
next table: 3010
cur table: 2961
epoch: 1000
next table: 1344
cur table: 1331
epoch: 1000
next table: 3015
cur table: 3010
epoch: 1000
next table: 1338
cur table: 1344
epoch: 1000
next table: 3014
cur table: 3015
epoch: 1000
next table: 1323
cur table: 1338
epoch: 1000
next table: 3018
cur table: 3014
epoch: 1000
next table: 1346
cur table: 1323
epoch: 1000
next table: 3037
cur table: 3018
epoch: 1000
next table: 1338
cur table: 1346
epoch: 1000
next table: 2980
cur table: 3037
epoch: 1000
next table: 1325
cur table: 1338
epoch: 1000
next table: 3021
cur table: 2980
epoch: 1000
next table: 1318
cur table: 1325
epoch: 1000
next table: 1338
cur table: 1318
epoch: 1000
next table: 3012
cur table: 3021
epoch: 1000
next table: 1319
cur table: 1338
epoch: 1000
next table: 3002
cur table: 3012
epoch: 1000
next table: 1328
cur table: 1319
epoch: 1000
next table: 3027
cur table: 3002
epoch: 1000
next table: 1333
cur table: 1328
epoch: 1000
next table: 3000
cur table: 3027
epoch: 1000
next table: 1323
cur table: 1333
epoch: 1000
next table: 3026
cur table: 3000
epoch: 1000
next table: 1320
cur table: 1323
epoch: 1000
next table: 2993
cur table: 3026
epoch: 1000
next table: 1355
cur table: 1320
epoch: 1000
next table: 3010
cur table: 2993
epoch: 1000
next table: 1319
cur table: 1355
epoch: 1000
next table: 3018
cur table: 3010
epoch: 1000
next table: 1330
cur table: 1319
epoch: 1000
next table: 3008
cur table: 3018
epoch: 1000
next table: 1359
cur table: 1330
epoch: 1000
next table: 2960
cur table: 3008
epoch: 1000
next table: 1320
cur table: 1359
epoch: 1000
next table: 2977
cur table: 2960
epoch: 1000
next table: 1337
cur table: 1320
epoch: 1000
next table: 2991
cur table: 2977
epoch: 1000
next table: 1331
cur table: 1337
epoch: 1000
next table: 3026
cur table: 2991
epoch: 1000
next table: 1347
cur table: 1331
epoch: 1000
next table: 3005
cur table: 3026
epoch: 1000
next table: 1322
cur table: 1347
epoch: 1000
next table: 3003
cur table: 3005
epoch: 1000
next table: 1319
cur table: 1322
epoch: 1000
next table: 3021
cur table: 3003
epoch: 1000
next table: 1328
cur table: 1319
epoch: 1000
next table: 3040
cur table: 3021
epoch: 1000
next table: 1312
cur table: 1328
epoch: 1000
next table: 3020
cur table: 3040
epoch: 1000
next table: 1324
cur table: 1312
epoch: 1000
next table: 2991
cur table: 3020
epoch: 1000
next table: 1332
cur table: 1324
epoch: 1000
next table: 2982
cur table: 2991
epoch: 1000
next table: 1322
cur table: 1332
epoch: 1000
next table: 3005
cur table: 2982
epoch: 1000
next table: 1336
cur table: 1322
epoch: 1000
next table: 1319
cur table: 1336
epoch: 1000
next table: 3020
cur table: 3005
epoch: 1000
next table: 1324
cur table: 1319
epoch: 1000
next table: 3026
cur table: 3020
epoch: 1000
next table: 1324
cur table: 1324
epoch: 1000
next table: 3016
cur table: 3026
epoch: 1000
next table: 1320
cur table: 1324
epoch: 1000
next table: 3028
cur table: 3016
epoch: 1000
next table: 1312
cur table: 1320
epoch: 1000
next table: 3015
cur table: 3028
epoch: 1000
next table: 1342
cur table: 1312
epoch: 1000
next table: 3001
cur table: 3015
epoch: 1000
next table: 1328
cur table: 1342
epoch: 1000
next table: 3022
cur table: 3001
epoch: 1000
next table: 1324
cur table: 1328
epoch: 1000
next table: 3020
cur table: 3022
epoch: 1000
next table: 1319
cur table: 1324
epoch: 1000
next table: 3013
cur table: 3020
epoch: 1000
next table: 1324
cur table: 1319
epoch: 1000
next table: 3003
cur table: 3013
epoch: 1000
next table: 1327
cur table: 1324
epoch: 1000
next table: 2962
cur table: 3003
epoch: 1000
next table: 1344
cur table: 1327
epoch: 1000
next table: 2943
cur table: 2962
epoch: 1000
next table: 1344
cur table: 1344
epoch: 1000
next table: 3015
cur table: 2943
epoch: 1000
next table: 1350
cur table: 1344
epoch: 1000
next table: 2805
cur table: 3015
epoch: 1000
next table: 1371
cur table: 1350
epoch: 1000
next table: 1304
cur table: 1371
epoch: 1000
next table: 2993
cur table: 2805
epoch: 1000
next table: 1360
cur table: 1304
epoch: 1000
next table: 2635
cur table: 2993
epoch: 1000
next table: 1362
cur table: 1360
epoch: 1000
next table: 2739
cur table: 2635
epoch: 1000
next table: 1410
cur table: 1362
epoch: 1000
next table: 2911
cur table: 2739
epoch: 1000
next table: 1390
cur table: 1410
epoch: 1000
next table: 1375
cur table: 1390
epoch: 1000
next table: 2874
cur table: 2911
epoch: 1000
next table: 1328
cur table: 1375
epoch: 1000
next table: 2958
cur table: 2874
epoch: 1000
next table: 1362
cur table: 1328
epoch: 1000
next table: 2967
cur table: 2958
epoch: 1000
next table: 1311
cur table: 1362
epoch: 1000
next table: 2999
cur table: 2967
epoch: 1000
next table: 1418
cur table: 1311
epoch: 1000
next table: 2746
cur table: 2999
epoch: 1000
next table: 1397
cur table: 1418
epoch: 1000
next table: 2767
cur table: 2746
epoch: 1000
next table: 1383
cur table: 1397
epoch: 1000
next table: 1375
cur table: 1383
epoch: 1000
next table: 2697
cur table: 2767
epoch: 1000
next table: 1389
cur table: 1375
epoch: 1000
next table: 3006
cur table: 2697
epoch: 1000
next table: 1319
cur table: 1389
epoch: 1000
next table: 3002
cur table: 3006
epoch: 1000
next table: 1324
cur table: 1319
epoch: 1000
next table: 2779
cur table: 3002
epoch: 1000
next table: 1463
cur table: 1324
epoch: 1000
next table: 2915
cur table: 2779
epoch: 1000
next table: 1314
cur table: 1463
epoch: 1000
next table: 2822
cur table: 2915
epoch: 1000
next table: 1357
cur table: 1314
epoch: 1000
next table: 1334
cur table: 1357
epoch: 1000
next table: 2032
cur table: 2822
epoch: 1000
next table: 1346
cur table: 1334
epoch: 1000
next table: 2804
cur table: 2032
epoch: 1000
next table: 1347
cur table: 1346
epoch: 1000
next table: 2953
cur table: 2804
epoch: 1000
next table: 1356
cur table: 1347
epoch: 1000
next table: 2989
cur table: 2953
epoch: 1000
next table: 1331
cur table: 1356
epoch: 1000
next table: 3009
cur table: 2989
epoch: 1000
next table: 1337
cur table: 1331
epoch: 1000
next table: 2999
cur table: 3009
epoch: 1000
next table: 1313
cur table: 1337
epoch: 1000
next table: 2935
cur table: 2999
epoch: 1000
next table: 1376
cur table: 1313
epoch: 1000
next table: 3009
cur table: 2935
epoch: 1000
next table: 1299
cur table: 1376
epoch: 1000
next table: 3030
cur table: 3009
epoch: 1000
next table: 1317
cur table: 1299
epoch: 1000
next table: 3028
cur table: 3030
epoch: 1000
next table: 1320
cur table: 1317
epoch: 1000
next table: 3008
cur table: 3028
epoch: 1000
next table: 1331
cur table: 1320
epoch: 1000
next table: 1329
cur table: 1331
epoch: 1000
next table: 3010
cur table: 3008
epoch: 1000
next table: 1340
cur table: 1329
epoch: 1000
next table: 2998
cur table: 3010
Heartbeat CPU 0 instructions: 40000000 cycles: 12935061 heartbeat IPC: 3.0805 cumulative IPC: 3.09237 (Simulation time: 0 hr 11 min 54 sec) 
epoch: 1000
next table: 1314
cur table: 1340
epoch: 1000
next table: 3004
cur table: 2998
epoch: 1000
next table: 1315
cur table: 1314
epoch: 1000
next table: 2993
cur table: 3004
epoch: 1000
next table: 1358
cur table: 1315
epoch: 1000
next table: 2976
cur table: 2993
epoch: 1000
next table: 1330
cur table: 1358
epoch: 1000
next table: 3034
cur table: 2976
epoch: 1000
next table: 1324
cur table: 1330
epoch: 1000
next table: 3020
cur table: 3034
epoch: 1000
next table: 1315
cur table: 1324
epoch: 1000
next table: 3029
cur table: 3020
epoch: 1000
next table: 1314
cur table: 1315
epoch: 1000
next table: 3006
cur table: 3029
epoch: 1000
next table: 1325
cur table: 1314
epoch: 1000
next table: 3013
cur table: 3006
epoch: 1000
next table: 1324
cur table: 1325
epoch: 1000
next table: 3016
cur table: 3013
epoch: 1000
next table: 1337
cur table: 1324
epoch: 1000
next table: 3010
cur table: 3016
epoch: 1000
next table: 1324
cur table: 1337
epoch: 1000
next table: 3011
cur table: 3010
epoch: 1000
next table: 1327
cur table: 1324
epoch: 1000
next table: 3033
cur table: 3011
epoch: 1000
next table: 1330
cur table: 1327
epoch: 1000
next table: 2971
cur table: 3033
epoch: 1000
next table: 1303
cur table: 1330
epoch: 1000
next table: 3010
cur table: 2971
epoch: 1000
next table: 1320
cur table: 1303
epoch: 1000
next table: 3015
cur table: 3010
epoch: 1000
next table: 1328
cur table: 1320
epoch: 1000
next table: 3005
cur table: 3015
epoch: 1000
next table: 1330
cur table: 1328
epoch: 1000
next table: 1338
cur table: 1330
epoch: 1000
next table: 3005
cur table: 3005
epoch: 1000
next table: 1340
cur table: 1338
epoch: 1000
next table: 2976
cur table: 3005
epoch: 1000
next table: 1327
cur table: 1340
epoch: 1000
next table: 3027
cur table: 2976
epoch: 1000
next table: 1352
cur table: 1327
epoch: 1000
next table: 3005
cur table: 3027
epoch: 1000
next table: 1324
cur table: 1352
epoch: 1000
next table: 3012
cur table: 3005
epoch: 1000
next table: 1325
cur table: 1324
epoch: 1000
next table: 2993
cur table: 3012
epoch: 1000
next table: 1322
cur table: 1325
epoch: 1000
next table: 2994
cur table: 2993
epoch: 1000
next table: 1313
cur table: 1322
epoch: 1000
next table: 3022
cur table: 2994
epoch: 1000
next table: 1308
cur table: 1313
epoch: 1000
next table: 3006
cur table: 3022
epoch: 1000
next table: 1332
cur table: 1308
epoch: 1000
next table: 3024
cur table: 3006
epoch: 1000
next table: 1330
cur table: 1332
epoch: 1000
next table: 3038
cur table: 3024
epoch: 1000
next table: 1340
cur table: 1330
epoch: 1000
next table: 3022
cur table: 3038
epoch: 1000
next table: 1325
cur table: 1340
epoch: 1000
next table: 3003
cur table: 3022
epoch: 1000
next table: 1336
cur table: 1325
epoch: 1000
next table: 2997
cur table: 3003
epoch: 1000
next table: 1333
cur table: 1336
epoch: 1000
next table: 3027
cur table: 2997
epoch: 1000
next table: 1345
cur table: 1333
epoch: 1000
next table: 3023
cur table: 3027
epoch: 1000
next table: 1347
cur table: 1345
epoch: 1000
next table: 3020
cur table: 3023
epoch: 1000
next table: 1344
cur table: 1347
epoch: 1000
next table: 3036
cur table: 3020
epoch: 1000
next table: 1313
cur table: 1344
epoch: 1000
next table: 3017
cur table: 3036
epoch: 1000
next table: 1332
cur table: 1313
epoch: 1000
next table: 3018
cur table: 3017
epoch: 1000
next table: 1335
cur table: 1332
epoch: 1000
next table: 3019
cur table: 3018
epoch: 1000
next table: 1320
cur table: 1335
epoch: 1000
next table: 2994
cur table: 3019
epoch: 1000
next table: 1358
cur table: 1320
epoch: 1000
next table: 3017
cur table: 2994
epoch: 1000
next table: 1331
cur table: 1358
epoch: 1000
next table: 3021
cur table: 3017
epoch: 1000
next table: 1314
cur table: 1331
epoch: 1000
next table: 1324
cur table: 1314
epoch: 1000
next table: 3004
cur table: 3021
epoch: 1000
next table: 1338
cur table: 1324
epoch: 1000
next table: 3027
cur table: 3004
epoch: 1000
next table: 1324
cur table: 1338
epoch: 1000
next table: 3004
cur table: 3027
epoch: 1000
next table: 1341
cur table: 1324
epoch: 1000
next table: 3016
cur table: 3004
epoch: 1000
next table: 1326
cur table: 1341
epoch: 1000
next table: 3009
cur table: 3016
epoch: 1000
next table: 1320
cur table: 1326
epoch: 1000
next table: 2993
cur table: 3009
epoch: 1000
next table: 1316
cur table: 1320
epoch: 1000
next table: 3031
cur table: 2993
epoch: 1000
next table: 1323
cur table: 1316
epoch: 1000
next table: 3007
cur table: 3031
epoch: 1000
next table: 1328
cur table: 1323
epoch: 1000
next table: 3021
cur table: 3007
epoch: 1000
next table: 1337
cur table: 1328
epoch: 1000
next table: 2991
cur table: 3021
epoch: 1000
next table: 1321
cur table: 1337
epoch: 1000
next table: 3017
cur table: 2991
epoch: 1000
next table: 1316
cur table: 1321
epoch: 1000
next table: 3013
cur table: 3017
epoch: 1000
next table: 1326
cur table: 1316
epoch: 1000
next table: 2991
cur table: 3013
epoch: 1000
next table: 1333
cur table: 1326
epoch: 1000
next table: 3005
cur table: 2991
epoch: 1000
next table: 1324
cur table: 1333
epoch: 1000
next table: 3008
cur table: 3005
epoch: 1000
next table: 1315
cur table: 1324
epoch: 1000
next table: 3002
cur table: 3008
epoch: 1000
next table: 1325
cur table: 1315
epoch: 1000
next table: 3005
cur table: 3002
epoch: 1000
next table: 1320
cur table: 1325
epoch: 1000
next table: 3025
cur table: 3005
epoch: 1000
next table: 1313
cur table: 1320
epoch: 1000
next table: 3017
cur table: 3025
epoch: 1000
next table: 1319
cur table: 1313
epoch: 1000
next table: 3032
cur table: 3017
epoch: 1000
next table: 1340
cur table: 1319
epoch: 1000
next table: 1324
cur table: 1340
epoch: 1000
next table: 2999
cur table: 3032
epoch: 1000
next table: 1346
cur table: 1324
epoch: 1000
next table: 2985
cur table: 2999
epoch: 1000
next table: 1324
cur table: 1346
epoch: 1000
next table: 3003
cur table: 2985
epoch: 1000
next table: 1313
cur table: 1324
epoch: 1000
next table: 2986
cur table: 3003
epoch: 1000
next table: 1330
cur table: 1313
epoch: 1000
next table: 3034
cur table: 2986
epoch: 1000
next table: 1342
cur table: 1330
epoch: 1000
next table: 2992
cur table: 3034
epoch: 1000
next table: 1317
cur table: 1342
epoch: 1000
next table: 2987
cur table: 2992
epoch: 1000
next table: 1333
cur table: 1317
epoch: 1000
next table: 3001
cur table: 2987
epoch: 1000
next table: 1319
cur table: 1333
epoch: 1000
next table: 2994
cur table: 3001
epoch: 1000
next table: 1324
cur table: 1319
epoch: 1000
next table: 3031
cur table: 2994
epoch: 1000
next table: 1329
cur table: 1324
epoch: 1000
next table: 3015
cur table: 3031
epoch: 1000
next table: 1327
cur table: 1329
epoch: 1000
next table: 3020
cur table: 3015
epoch: 1000
next table: 1304
cur table: 1327
epoch: 1000
next table: 3019
cur table: 3020
epoch: 1000
next table: 1311
cur table: 1304
epoch: 1000
next table: 3026
cur table: 3019
epoch: 1000
next table: 1328
cur table: 1311
epoch: 1000
next table: 3015
cur table: 3026
epoch: 1000
next table: 1310
cur table: 1328
epoch: 1000
next table: 3030
cur table: 3015
epoch: 1000
next table: 1300
cur table: 1310
epoch: 1000
next table: 3044
cur table: 3030
epoch: 1000
next table: 1300
cur table: 1300
epoch: 1000
next table: 3016
cur table: 3044
epoch: 1000
next table: 1324
cur table: 1300
epoch: 1000
next table: 3017
cur table: 3016
epoch: 1000
next table: 1317
cur table: 1324
epoch: 1000
next table: 3017
cur table: 3017
epoch: 1000
next table: 1337
cur table: 1317
epoch: 1000
next table: 3027
cur table: 3017
epoch: 1000
next table: 1332
cur table: 1337
Heartbeat CPU 0 instructions: 50000000 cycles: 16156508 heartbeat IPC: 3.1042 cumulative IPC: 3.09473 (Simulation time: 0 hr 14 min 43 sec) 

Warmup complete CPU 0 instructions: 50000001 cycles: 16156509 (Simulation time: 0 hr 14 min 43 sec) 

epoch: 1000
next table: 1318
cur table: 1325
epoch: 1000
next table: 3021
cur table: 3017
epoch: 1000
next table: 1316
cur table: 1318
epoch: 1000
next table: 3025
cur table: 3021
epoch: 1000
next table: 1314
cur table: 1316
epoch: 1000
next table: 3046
cur table: 3025
epoch: 1000
next table: 1359
cur table: 1314
epoch: 1000
next table: 2942
cur table: 3046
epoch: 1000
next table: 1306
cur table: 1359
epoch: 1000
next table: 3022
cur table: 2942
epoch: 1000
next table: 1338
cur table: 1306
epoch: 1000
next table: 3006
cur table: 3022
epoch: 1000
next table: 1321
cur table: 1338
epoch: 1000
next table: 3037
cur table: 3006
epoch: 1000
next table: 1288
cur table: 1321
epoch: 1000
next table: 3030
cur table: 3037
epoch: 1000
next table: 1316
cur table: 1288
epoch: 1000
next table: 3013
cur table: 3030
epoch: 1000
next table: 1323
cur table: 1316
epoch: 1000
next table: 3009
cur table: 3013
epoch: 1000
next table: 1324
cur table: 1323
epoch: 1000
next table: 2989
cur table: 3009
epoch: 1000
next table: 1346
cur table: 1324
epoch: 1000
next table: 3001
cur table: 2989
epoch: 1000
next table: 1334
cur table: 1346
epoch: 1000
next table: 3028
cur table: 3001
epoch: 1000
next table: 1316
cur table: 1334
epoch: 1000
next table: 3031
cur table: 3028
epoch: 1000
next table: 1341
cur table: 1316
epoch: 1000
next table: 3017
cur table: 3031
epoch: 1000
next table: 1327
cur table: 1341
epoch: 1000
next table: 3050
cur table: 3017
epoch: 1000
next table: 1346
cur table: 1327
epoch: 1000
next table: 3013
cur table: 3050
epoch: 1000
next table: 1321
cur table: 1346
epoch: 1000
next table: 3045
cur table: 3013
epoch: 1000
next table: 1346
cur table: 1321
epoch: 1000
next table: 3011
cur table: 3045
epoch: 1000
next table: 1340
cur table: 1346
epoch: 1000
next table: 2959
cur table: 3011
epoch: 1000
next table: 1354
cur table: 1340
epoch: 1000
next table: 3032
cur table: 2959
epoch: 1000
next table: 1293
cur table: 1354
epoch: 1000
next table: 3007
cur table: 3032
epoch: 1000
next table: 1308
cur table: 1293
epoch: 1000
next table: 2997
cur table: 3007
epoch: 1000
next table: 1327
cur table: 1308
epoch: 1000
next table: 2998
cur table: 2997
epoch: 1000
next table: 1341
cur table: 1327
epoch: 1000
next table: 1316
cur table: 1341
epoch: 1000
next table: 3011
cur table: 2998
epoch: 1000
next table: 1336
cur table: 1316
epoch: 1000
next table: 3026
cur table: 3011
epoch: 1000
next table: 1321
cur table: 1336
epoch: 1000
next table: 3024
cur table: 3026
epoch: 1000
next table: 1326
cur table: 1321
epoch: 1000
next table: 3002
cur table: 3024
epoch: 1000
next table: 1308
cur table: 1326
epoch: 1000
next table: 3023
cur table: 3002
epoch: 1000
next table: 1312
cur table: 1308
epoch: 1000
next table: 3027
cur table: 3023
epoch: 1000
next table: 1348
cur table: 1312
epoch: 1000
next table: 2996
cur table: 3027
epoch: 1000
next table: 1339
cur table: 1348
epoch: 1000
next table: 2937
cur table: 2996
epoch: 1000
next table: 1330
cur table: 1339
epoch: 1000
next table: 3002
cur table: 2937
epoch: 1000
next table: 1337
cur table: 1330
epoch: 1000
next table: 2986
cur table: 3002
epoch: 1000
next table: 1332
cur table: 1337
epoch: 1000
next table: 3002
cur table: 2986
epoch: 1000
next table: 1333
cur table: 1332
epoch: 1000
next table: 3002
cur table: 3002
epoch: 1000
next table: 1348
cur table: 1333
epoch: 1000
next table: 2980
cur table: 3002
epoch: 1000
next table: 1340
cur table: 1348
epoch: 1000
next table: 2987
cur table: 2980
epoch: 1000
next table: 1344
cur table: 1340
epoch: 1000
next table: 2999
cur table: 2987
epoch: 1000
next table: 1337
cur table: 1344
epoch: 1000
next table: 3008
cur table: 2999
epoch: 1000
next table: 1331
cur table: 1337
epoch: 1000
next table: 3015
cur table: 3008
epoch: 1000
next table: 1344
cur table: 1331
epoch: 1000
next table: 3000
cur table: 3015
epoch: 1000
next table: 1322
cur table: 1344
epoch: 1000
next table: 1354
cur table: 1322
epoch: 1000
next table: 2950
cur table: 3000
epoch: 1000
next table: 1340
cur table: 1354
epoch: 1000
next table: 2994
cur table: 2950
epoch: 1000
next table: 1293
cur table: 1340
epoch: 1000
next table: 3009
cur table: 2994
epoch: 1000
next table: 1336
cur table: 1293
epoch: 1000
next table: 3015
cur table: 3009
epoch: 1000
next table: 1364
cur table: 1336
epoch: 1000
next table: 2993
cur table: 3015
epoch: 1000
next table: 1329
cur table: 1364
epoch: 1000
next table: 3034
cur table: 2993
epoch: 1000
next table: 1337
cur table: 1329
epoch: 1000
next table: 2994
cur table: 3034
epoch: 1000
next table: 1327
cur table: 1337
epoch: 1000
next table: 3019
cur table: 2994
epoch: 1000
next table: 1315
cur table: 1327
epoch: 1000
next table: 3011
cur table: 3019
epoch: 1000
next table: 1321
cur table: 1315
epoch: 1000
next table: 3003
cur table: 3011
epoch: 1000
next table: 1338
cur table: 1321
epoch: 1000
next table: 3029
cur table: 3003
epoch: 1000
next table: 1333
cur table: 1338
epoch: 1000
next table: 3001
cur table: 3029
epoch: 1000
next table: 1324
cur table: 1333
epoch: 1000
next table: 3016
cur table: 3001
epoch: 1000
next table: 1304
cur table: 1324
epoch: 1000
next table: 3009
cur table: 3016
epoch: 1000
next table: 1336
cur table: 1304
epoch: 1000
next table: 2993
cur table: 3009
epoch: 1000
next table: 1310
cur table: 1336
epoch: 1000
next table: 3012
cur table: 2993
epoch: 1000
next table: 1296
cur table: 1310
epoch: 1000
next table: 3023
cur table: 3012
epoch: 1000
next table: 1325
cur table: 1296
epoch: 1000
next table: 2943
cur table: 3023
epoch: 1000
next table: 1331
cur table: 1325
epoch: 1000
next table: 2983
cur table: 2943
epoch: 1000
next table: 1320
cur table: 1331
epoch: 1000
next table: 3012
cur table: 2983
epoch: 1000
next table: 1329
cur table: 1320
epoch: 1000
next table: 2987
cur table: 3012
epoch: 1000
next table: 1316
cur table: 1329
epoch: 1000
next table: 1345
cur table: 1316
epoch: 1000
next table: 3012
cur table: 2987
epoch: 1000
next table: 1318
cur table: 1345
epoch: 1000
next table: 2997
cur table: 3012
epoch: 1000
next table: 1326
cur table: 1318
epoch: 1000
next table: 3014
cur table: 2997
epoch: 1000
next table: 1327
cur table: 1326
epoch: 1000
next table: 3024
cur table: 3014
epoch: 1000
next table: 1328
cur table: 1327
epoch: 1000
next table: 3023
cur table: 3024
epoch: 1000
next table: 1326
cur table: 1328
epoch: 1000
next table: 3009
cur table: 3023
epoch: 1000
next table: 1331
cur table: 1326
epoch: 1000
next table: 2992
cur table: 3009
epoch: 1000
next table: 1319
cur table: 1331
epoch: 1000
next table: 2990
cur table: 2992
epoch: 1000
next table: 1339
cur table: 1319
epoch: 1000
next table: 3013
cur table: 2990
epoch: 1000
next table: 1321
cur table: 1339
epoch: 1000
next table: 3024
cur table: 3013
epoch: 1000
next table: 1322
cur table: 1321
epoch: 1000
next table: 3008
cur table: 3024
epoch: 1000
next table: 1312
cur table: 1322
epoch: 1000
next table: 3024
cur table: 3008
epoch: 1000
next table: 1302
cur table: 1312
epoch: 1000
next table: 3014
cur table: 3024
epoch: 1000
next table: 1326
cur table: 1302
epoch: 1000
next table: 3000
cur table: 3014
epoch: 1000
next table: 1325
cur table: 1326
epoch: 1000
next table: 3015
cur table: 3000
epoch: 1000
next table: 1322
cur table: 1325
epoch: 1000
next table: 3002
cur table: 3015
epoch: 1000
next table: 1322
cur table: 1322
epoch: 1000
next table: 3026
cur table: 3002
epoch: 1000
next table: 1321
cur table: 1322
Heartbeat CPU 0 instructions: 60000000 cycles: 41476721 heartbeat IPC: 0.394941 cumulative IPC: 0.394941 (Simulation time: 0 hr 17 min 46 sec) 
epoch: 1000
next table: 3001
cur table: 3026
epoch: 1000
next table: 1330
cur table: 1321
epoch: 1000
next table: 2968
cur table: 3001
epoch: 1000
next table: 1338
cur table: 1330
epoch: 1000
next table: 1312
cur table: 1338
epoch: 1000
next table: 3010
cur table: 2968
epoch: 1000
next table: 1352
cur table: 1312
epoch: 1000
next table: 2919
cur table: 3010
epoch: 1000
next table: 1392
cur table: 1352
epoch: 1000
next table: 2834
cur table: 2919
epoch: 1000
next table: 1334
cur table: 1392
epoch: 1000
next table: 2980
cur table: 2834
epoch: 1000
next table: 1337
cur table: 1334
epoch: 1000
next table: 2869
cur table: 2980
epoch: 1000
next table: 1328
cur table: 1337
epoch: 1000
next table: 1354
cur table: 1328
epoch: 1000
next table: 2607
cur table: 2869
epoch: 1000
next table: 1392
cur table: 1354
epoch: 1000
next table: 2774
cur table: 2607
epoch: 1000
next table: 1389
cur table: 1392
epoch: 1000
next table: 2968
cur table: 2774
epoch: 1000
next table: 1330
cur table: 1389
epoch: 1000
next table: 2903
cur table: 2968
epoch: 1000
next table: 1341
cur table: 1330
epoch: 1000
next table: 2915
cur table: 2903
epoch: 1000
next table: 1329
cur table: 1341
epoch: 1000
next table: 3010
cur table: 2915
epoch: 1000
next table: 1321
cur table: 1329
epoch: 1000
next table: 1425
cur table: 1321
epoch: 1000
next table: 2739
cur table: 3010
epoch: 1000
next table: 1365
cur table: 1425
epoch: 1000
next table: 2749
cur table: 2739
epoch: 1000
next table: 1367
cur table: 1365
epoch: 1000
next table: 2898
cur table: 2749
epoch: 1000
next table: 1384
cur table: 1367
epoch: 1000
next table: 2797
cur table: 2898
epoch: 1000
next table: 1371
cur table: 1384
epoch: 1000
next table: 1340
cur table: 1371
epoch: 1000
next table: 3005
cur table: 2797
epoch: 1000
next table: 1316
cur table: 1340
epoch: 1000
next table: 2998
cur table: 3005
epoch: 1000
next table: 1473
cur table: 1316
epoch: 1000
next table: 2689
cur table: 2998
epoch: 1000
next table: 1320
cur table: 1473
epoch: 1000
next table: 3000
cur table: 2689
epoch: 1000
next table: 1458
cur table: 1320
epoch: 1000
next table: 2160
cur table: 3000
epoch: 1000
next table: 1622
cur table: 1458
epoch: 1000
next table: 1652
cur table: 1622
epoch: 1000
next table: 2065
cur table: 2160
epoch: 1000
next table: 1665
cur table: 1652
epoch: 1000
next table: 2066
cur table: 2065
epoch: 1000
next table: 1918
cur table: 1665
epoch: 1000
next table: 1995
cur table: 2066
epoch: 1000
next table: 1949
cur table: 1918
epoch: 1000
next table: 2053
cur table: 1995
epoch: 1000
next table: 1837
cur table: 1949
epoch: 1000
next table: 2256
cur table: 2053
epoch: 1000
next table: 1362
cur table: 1837
epoch: 1000
next table: 2989
cur table: 2256
epoch: 1000
next table: 1639
cur table: 1362
epoch: 1000
next table: 2269
cur table: 2989
epoch: 1000
next table: 1495
cur table: 1639
epoch: 1000
next table: 2989
cur table: 2269
epoch: 1000
next table: 1375
cur table: 1495
epoch: 1000
next table: 2971
cur table: 2989
epoch: 1000
next table: 1384
cur table: 1375
epoch: 1000
next table: 3008
cur table: 2971
epoch: 1000
next table: 1334
cur table: 1384
epoch: 1000
next table: 2989
cur table: 3008
epoch: 1000
next table: 1357
cur table: 1334
epoch: 1000
next table: 1324
cur table: 1357
epoch: 1000
next table: 2993
cur table: 2989
epoch: 1000
next table: 1398
cur table: 1324
epoch: 1000
next table: 2946
cur table: 2993
epoch: 1000
next table: 1337
cur table: 1398
epoch: 1000
next table: 3011
cur table: 2946
epoch: 1000
next table: 1322
cur table: 1337
epoch: 1000
next table: 3013
cur table: 3011
epoch: 1000
next table: 1311
cur table: 1322
epoch: 1000
next table: 3033
cur table: 3013
epoch: 1000
next table: 1343
cur table: 1311
epoch: 1000
next table: 3003
cur table: 3033
epoch: 1000
next table: 1352
cur table: 1343
epoch: 1000
next table: 3000
cur table: 3003
epoch: 1000
next table: 1319
cur table: 1352
epoch: 1000
next table: 2996
cur table: 3000
epoch: 1000
next table: 1333
cur table: 1319
epoch: 1000
next table: 3004
cur table: 2996
epoch: 1000
next table: 1335
cur table: 1333
epoch: 1000
next table: 2966
cur table: 3004
epoch: 1000
next table: 1341
cur table: 1335
epoch: 1000
next table: 3005
cur table: 2966
epoch: 1000
next table: 1315
cur table: 1341
epoch: 1000
next table: 3026
cur table: 3005
epoch: 1000
next table: 1322
cur table: 1315
epoch: 1000
next table: 3025
cur table: 3026
epoch: 1000
next table: 1320
cur table: 1322
epoch: 1000
next table: 3017
cur table: 3025
epoch: 1000
next table: 1329
cur table: 1320
epoch: 1000
next table: 3015
cur table: 3017
epoch: 1000
next table: 1313
cur table: 1329
epoch: 1000
next table: 3015
cur table: 3015
epoch: 1000
next table: 1326
cur table: 1313
epoch: 1000
next table: 3017
cur table: 3015
epoch: 1000
next table: 1315
cur table: 1326
epoch: 1000
next table: 2998
cur table: 3017
epoch: 1000
next table: 1332
cur table: 1315
epoch: 1000
next table: 3021
cur table: 2998
epoch: 1000
next table: 1311
cur table: 1332
epoch: 1000
next table: 2999
cur table: 3021
epoch: 1000
next table: 1352
cur table: 1311
epoch: 1000
next table: 3004
cur table: 2999
epoch: 1000
next table: 1329
cur table: 1352
epoch: 1000
next table: 2989
cur table: 3004
epoch: 1000
next table: 1326
cur table: 1329
epoch: 1000
next table: 3019
cur table: 2989
epoch: 1000
next table: 1323
cur table: 1326
epoch: 1000
next table: 1341
cur table: 1323
epoch: 1000
next table: 3004
cur table: 3019
epoch: 1000
next table: 1334
cur table: 1341
epoch: 1000
next table: 3010
cur table: 3004
epoch: 1000
next table: 1337
cur table: 1334
epoch: 1000
next table: 2972
cur table: 3010
epoch: 1000
next table: 1338
cur table: 1337
epoch: 1000
next table: 3006
cur table: 2972
epoch: 1000
next table: 1311
cur table: 1338
epoch: 1000
next table: 3020
cur table: 3006
epoch: 1000
next table: 1325
cur table: 1311
epoch: 1000
next table: 3011
cur table: 3020
epoch: 1000
next table: 1338
cur table: 1325
epoch: 1000
next table: 2986
cur table: 3011
epoch: 1000
next table: 1315
cur table: 1338
epoch: 1000
next table: 3006
cur table: 2986
epoch: 1000
next table: 1332
cur table: 1315
epoch: 1000
next table: 3024
cur table: 3006
epoch: 1000
next table: 1335
cur table: 1332
epoch: 1000
next table: 3004
cur table: 3024
epoch: 1000
next table: 1329
cur table: 1335
epoch: 1000
next table: 3021
cur table: 3004
epoch: 1000
next table: 1324
cur table: 1329
epoch: 1000
next table: 3034
cur table: 3021
epoch: 1000
next table: 1332
cur table: 1324
epoch: 1000
next table: 3022
cur table: 3034
epoch: 1000
next table: 1359
cur table: 1332
epoch: 1000
next table: 3000
cur table: 3022
epoch: 1000
next table: 1329
cur table: 1359
epoch: 1000
next table: 2987
cur table: 3000
epoch: 1000
next table: 1332
cur table: 1329
epoch: 1000
next table: 3017
cur table: 2987
epoch: 1000
next table: 1353
cur table: 1332
epoch: 1000
next table: 3030
cur table: 3017
epoch: 1000
next table: 1345
cur table: 1353
epoch: 1000
next table: 3029
cur table: 3030
epoch: 1000
next table: 1330
cur table: 1345
epoch: 1000
next table: 3026
cur table: 3029
epoch: 1000
next table: 1344
cur table: 1330
epoch: 1000
next table: 3013
cur table: 3026
epoch: 1000
next table: 1337
cur table: 1344
epoch: 1000
next table: 3021
cur table: 3013
epoch: 1000
next table: 1306
cur table: 1337
epoch: 1000
next table: 3026
cur table: 3021
epoch: 1000
next table: 1329
cur table: 1306
epoch: 1000
next table: 1343
cur table: 1329
epoch: 1000
next table: 2986
cur table: 3026
epoch: 1000
next table: 1327
cur table: 1343
epoch: 1000
next table: 3005
cur table: 2986
epoch: 1000
next table: 1329
cur table: 1327
epoch: 1000
next table: 3005
cur table: 3005
epoch: 1000
next table: 1320
cur table: 1329
epoch: 1000
next table: 3012
cur table: 3005
epoch: 1000
next table: 1322
cur table: 1320
epoch: 1000
next table: 3011
cur table: 3012
epoch: 1000
next table: 1326
cur table: 1322
epoch: 1000
next table: 3015
cur table: 3011
epoch: 1000
next table: 1338
cur table: 1326
epoch: 1000
next table: 3009
cur table: 3015
Heartbeat CPU 0 instructions: 70000002 cycles: 67916434 heartbeat IPC: 0.378219 cumulative IPC: 0.386399 (Simulation time: 0 hr 20 min 50 sec) 
epoch: 1000
next table: 1313
cur table: 1338
epoch: 1000
next table: 3002
cur table: 3009
epoch: 1000
next table: 1334
cur table: 1313
epoch: 1000
next table: 3003
cur table: 3002
epoch: 1000
next table: 1338
cur table: 1334
epoch: 1000
next table: 3015
cur table: 3003
epoch: 1000
next table: 1323
cur table: 1338
epoch: 1000
next table: 3004
cur table: 3015
epoch: 1000
next table: 1327
cur table: 1323
epoch: 1000
next table: 3025
cur table: 3004
epoch: 1000
next table: 1347
cur table: 1327
epoch: 1000
next table: 2992
cur table: 3025
epoch: 1000
next table: 1325
cur table: 1347
epoch: 1000
next table: 3016
cur table: 2992
epoch: 1000
next table: 1318
cur table: 1325
epoch: 1000
next table: 3001
cur table: 3016
epoch: 1000
next table: 1350
cur table: 1318
epoch: 1000
next table: 2976
cur table: 3001
epoch: 1000
next table: 1317
cur table: 1350
epoch: 1000
next table: 3017
cur table: 2976
epoch: 1000
next table: 1311
cur table: 1317
epoch: 1000
next table: 2993
cur table: 3017
epoch: 1000
next table: 1332
cur table: 1311
epoch: 1000
next table: 3015
cur table: 2993
epoch: 1000
next table: 1308
cur table: 1332
epoch: 1000
next table: 1323
cur table: 1308
epoch: 1000
next table: 3006
cur table: 3015
epoch: 1000
next table: 1337
cur table: 1323
epoch: 1000
next table: 3006
cur table: 3006
epoch: 1000
next table: 1315
cur table: 1337
epoch: 1000
next table: 3023
cur table: 3006
epoch: 1000
next table: 1349
cur table: 1315
epoch: 1000
next table: 3013
cur table: 3023
epoch: 1000
next table: 1344
cur table: 1349
epoch: 1000
next table: 2998
cur table: 3013
epoch: 1000
next table: 1332
cur table: 1344
epoch: 1000
next table: 2975
cur table: 2998
epoch: 1000
next table: 1335
cur table: 1332
epoch: 1000
next table: 2999
cur table: 2975
epoch: 1000
next table: 1314
cur table: 1335
epoch: 1000
next table: 2989
cur table: 2999
epoch: 1000
next table: 1343
cur table: 1314
epoch: 1000
next table: 3018
cur table: 2989
epoch: 1000
next table: 1319
cur table: 1343
epoch: 1000
next table: 2996
cur table: 3018
epoch: 1000
next table: 1324
cur table: 1319
epoch: 1000
next table: 2996
cur table: 2996
epoch: 1000
next table: 1358
cur table: 1324
epoch: 1000
next table: 3003
cur table: 2996
epoch: 1000
next table: 1341
cur table: 1358
epoch: 1000
next table: 3015
cur table: 3003
epoch: 1000
next table: 1314
cur table: 1341
epoch: 1000
next table: 3011
cur table: 3015
epoch: 1000
next table: 1340
cur table: 1314
epoch: 1000
next table: 3014
cur table: 3011
epoch: 1000
next table: 1332
cur table: 1340
epoch: 1000
next table: 3020
cur table: 3014
epoch: 1000
next table: 1312
cur table: 1332
epoch: 1000
next table: 1323
cur table: 1312
epoch: 1000
next table: 3013
cur table: 3020
epoch: 1000
next table: 1337
cur table: 1323
epoch: 1000
next table: 3026
cur table: 3013
epoch: 1000
next table: 1318
cur table: 1337
epoch: 1000
next table: 3024
cur table: 3026
epoch: 1000
next table: 1315
cur table: 1318
epoch: 1000
next table: 3029
cur table: 3024
epoch: 1000
next table: 1323
cur table: 1315
epoch: 1000
next table: 3029
cur table: 3029
epoch: 1000
next table: 1336
cur table: 1323
epoch: 1000
next table: 3008
cur table: 3029
epoch: 1000
next table: 1311
cur table: 1336
epoch: 1000
next table: 3012
cur table: 3008
epoch: 1000
next table: 1333
cur table: 1311
epoch: 1000
next table: 3039
cur table: 3012
epoch: 1000
next table: 1331
cur table: 1333
epoch: 1000
next table: 3013
cur table: 3039
epoch: 1000
next table: 1313
cur table: 1331
epoch: 1000
next table: 3026
cur table: 3013
epoch: 1000
next table: 1326
cur table: 1313
epoch: 1000
next table: 3027
cur table: 3026
epoch: 1000
next table: 1316
cur table: 1326
epoch: 1000
next table: 3018
cur table: 3027
epoch: 1000
next table: 1333
cur table: 1316
epoch: 1000
next table: 3034
cur table: 3018
epoch: 1000
next table: 1311
cur table: 1333
epoch: 1000
next table: 2938
cur table: 3034
epoch: 1000
next table: 1382
cur table: 1311
epoch: 1000
next table: 3023
cur table: 2938
epoch: 1000
next table: 1317
cur table: 1382
epoch: 1000
next table: 2997
cur table: 3023
epoch: 1000
next table: 1312
cur table: 1317
epoch: 1000
next table: 3035
cur table: 2997
epoch: 1000
next table: 1331
cur table: 1312
epoch: 1000
next table: 3016
cur table: 3035
epoch: 1000
next table: 1311
cur table: 1331
epoch: 1000
next table: 3025
cur table: 3016
epoch: 1000
next table: 1328
cur table: 1311
epoch: 1000
next table: 3004
cur table: 3025
epoch: 1000
next table: 1329
cur table: 1328
epoch: 1000
next table: 2999
cur table: 3004
epoch: 1000
next table: 1357
cur table: 1329
epoch: 1000
next table: 3000
cur table: 2999
epoch: 1000
next table: 1336
cur table: 1357
epoch: 1000
next table: 3005
cur table: 3000
epoch: 1000
next table: 1335
cur table: 1336
epoch: 1000
next table: 3032
cur table: 3005
epoch: 1000
next table: 1348
cur table: 1335
epoch: 1000
next table: 3022
cur table: 3032
epoch: 1000
next table: 1329
cur table: 1348
epoch: 1000
next table: 3022
cur table: 3022
epoch: 1000
next table: 1341
cur table: 1329
epoch: 1000
next table: 1324
cur table: 1341
epoch: 1000
next table: 3035
cur table: 3022
epoch: 1000
next table: 1346
cur table: 1324
epoch: 1000
next table: 3029
cur table: 3035
epoch: 1000
next table: 1336
cur table: 1346
epoch: 1000
next table: 3026
cur table: 3029
epoch: 1000
next table: 1322
cur table: 1336
epoch: 1000
next table: 2967
cur table: 3026
epoch: 1000
next table: 1355
cur table: 1322
epoch: 1000
next table: 3014
cur table: 2967
epoch: 1000
next table: 1324
cur table: 1355
epoch: 1000
next table: 3021
cur table: 3014
epoch: 1000
next table: 1298
cur table: 1324
epoch: 1000
next table: 2988
cur table: 3021
epoch: 1000
next table: 1360
cur table: 1298
epoch: 1000
next table: 2993
cur table: 2988
epoch: 1000
next table: 1322
cur table: 1360
epoch: 1000
next table: 3010
cur table: 2993
epoch: 1000
next table: 1325
cur table: 1322
epoch: 1000
next table: 3005
cur table: 3010
epoch: 1000
next table: 1317
cur table: 1325
epoch: 1000
next table: 3034
cur table: 3005
epoch: 1000
next table: 1312
cur table: 1317
epoch: 1000
next table: 2996
cur table: 3034
epoch: 1000
next table: 1330
cur table: 1312
epoch: 1000
next table: 3008
cur table: 2996
epoch: 1000
next table: 1348
cur table: 1330
epoch: 1000
next table: 3032
cur table: 3008
epoch: 1000
next table: 1320
cur table: 1348
epoch: 1000
next table: 2993
cur table: 3032
epoch: 1000
next table: 1321
cur table: 1320
epoch: 1000
next table: 2943
cur table: 2993
epoch: 1000
next table: 1370
cur table: 1321
epoch: 1000
next table: 3003
cur table: 2943
epoch: 1000
next table: 1332
cur table: 1370
epoch: 1000
next table: 2979
cur table: 3003
epoch: 1000
next table: 1353
cur table: 1332
epoch: 1000
next table: 1329
cur table: 1353
epoch: 1000
next table: 2999
cur table: 2979
epoch: 1000
next table: 1331
cur table: 1329
epoch: 1000
next table: 3009
cur table: 2999
epoch: 1000
next table: 1348
cur table: 1331
epoch: 1000
next table: 2990
cur table: 3009
epoch: 1000
next table: 1366
cur table: 1348
epoch: 1000
next table: 2962
cur table: 2990
epoch: 1000
next table: 1327
cur table: 1366
epoch: 1000
next table: 2993
cur table: 2962
epoch: 1000
next table: 1329
cur table: 1327
epoch: 1000
next table: 3013
cur table: 2993
epoch: 1000
next table: 1326
cur table: 1329
epoch: 1000
next table: 3003
cur table: 3013
epoch: 1000
next table: 1332
cur table: 1326
epoch: 1000
next table: 3005
cur table: 3003
epoch: 1000
next table: 1333
cur table: 1332
epoch: 1000
next table: 2947
cur table: 3005
epoch: 1000
next table: 1336
cur table: 1333
Heartbeat CPU 0 instructions: 80000000 cycles: 93232980 heartbeat IPC: 0.394999 cumulative IPC: 0.389224 (Simulation time: 0 hr 23 min 25 sec) 
epoch: 1000
next table: 2981
cur table: 2947
epoch: 1000
next table: 1358
cur table: 1336
epoch: 1000
next table: 3010
cur table: 2981
epoch: 1000
next table: 1322
cur table: 1358
epoch: 1000
next table: 3012
cur table: 3010
epoch: 1000
next table: 1340
cur table: 1322
epoch: 1000
next table: 3007
cur table: 3012
epoch: 1000
next table: 1331
cur table: 1340
epoch: 1000
next table: 3014
cur table: 3007
epoch: 1000
next table: 1334
cur table: 1331
epoch: 1000
next table: 2999
cur table: 3014
epoch: 1000
next table: 1317
cur table: 1334
epoch: 1000
next table: 3013
cur table: 2999
epoch: 1000
next table: 1344
cur table: 1317
epoch: 1000
next table: 3007
cur table: 3013
epoch: 1000
next table: 1322
cur table: 1344
epoch: 1000
next table: 3008
cur table: 3007
epoch: 1000
next table: 1309
cur table: 1322
epoch: 1000
next table: 3010
cur table: 3008
epoch: 1000
next table: 1353
cur table: 1309
epoch: 1000
next table: 3000
cur table: 3010
epoch: 1000
next table: 1322
cur table: 1353
epoch: 1000
next table: 1317
cur table: 1322
epoch: 1000
next table: 3009
cur table: 3000
epoch: 1000
next table: 1327
cur table: 1317
epoch: 1000
next table: 3013
cur table: 3009
epoch: 1000
next table: 1348
cur table: 1327
epoch: 1000
next table: 2982
cur table: 3013
epoch: 1000
next table: 1327
cur table: 1348
epoch: 1000
next table: 3015
cur table: 2982
epoch: 1000
next table: 1312
cur table: 1327
epoch: 1000
next table: 3021
cur table: 3015
epoch: 1000
next table: 1322
cur table: 1312
epoch: 1000
next table: 2998
cur table: 3021
epoch: 1000
next table: 1353
cur table: 1322
epoch: 1000
next table: 2957
cur table: 2998
epoch: 1000
next table: 1334
cur table: 1353
epoch: 1000
next table: 2977
cur table: 2957
epoch: 1000
next table: 1336
cur table: 1334
epoch: 1000
next table: 2981
cur table: 2977
epoch: 1000
next table: 1304
cur table: 1336
epoch: 1000
next table: 3013
cur table: 2981
epoch: 1000
next table: 1347
cur table: 1304
epoch: 1000
next table: 2992
cur table: 3013
epoch: 1000
next table: 1343
cur table: 1347
epoch: 1000
next table: 3007
cur table: 2992
epoch: 1000
next table: 1317
cur table: 1343
epoch: 1000
next table: 3012
cur table: 3007
epoch: 1000
next table: 1331
cur table: 1317
epoch: 1000
next table: 3036
cur table: 3012
epoch: 1000
next table: 1336
cur table: 1331
epoch: 1000
next table: 3000
cur table: 3036
epoch: 1000
next table: 1313
cur table: 1336
epoch: 1000
next table: 2990
cur table: 3000
epoch: 1000
next table: 1319
cur table: 1313
epoch: 1000
next table: 2991
cur table: 2990
epoch: 1000
next table: 1338
cur table: 1319
epoch: 1000
next table: 1316
cur table: 1338
epoch: 1000
next table: 2992
cur table: 2991
epoch: 1000
next table: 1325
cur table: 1316
epoch: 1000
next table: 3013
cur table: 2992
epoch: 1000
next table: 1321
cur table: 1325
epoch: 1000
next table: 3015
cur table: 3013
epoch: 1000
next table: 1312
cur table: 1321
epoch: 1000
next table: 3027
cur table: 3015
epoch: 1000
next table: 1321
cur table: 1312
epoch: 1000
next table: 3009
cur table: 3027
epoch: 1000
next table: 1349
cur table: 1321
epoch: 1000
next table: 3013
cur table: 3009
epoch: 1000
next table: 1318
cur table: 1349
epoch: 1000
next table: 2994
cur table: 3013
epoch: 1000
next table: 1345
cur table: 1318
epoch: 1000
next table: 3016
cur table: 2994
epoch: 1000
next table: 1336
cur table: 1345
epoch: 1000
next table: 3011
cur table: 3016
epoch: 1000
next table: 1298
cur table: 1336
epoch: 1000
next table: 3009
cur table: 3011
epoch: 1000
next table: 1342
cur table: 1298
epoch: 1000
next table: 2970
cur table: 3009
epoch: 1000
next table: 1345
cur table: 1342
epoch: 1000
next table: 2994
cur table: 2970
epoch: 1000
next table: 1336
cur table: 1345
epoch: 1000
next table: 2956
cur table: 2994
epoch: 1000
next table: 1350
cur table: 1336
epoch: 1000
next table: 2975
cur table: 2956
epoch: 1000
next table: 1330
cur table: 1350
epoch: 1000
next table: 2931
cur table: 2975
epoch: 1000
next table: 1329
cur table: 1330
epoch: 1000
next table: 3018
cur table: 2931
epoch: 1000
next table: 1342
cur table: 1329
epoch: 1000
next table: 1362
cur table: 1342
epoch: 1000
next table: 2916
cur table: 3018
epoch: 1000
next table: 1314
cur table: 1362
epoch: 1000
next table: 3008
cur table: 2916
epoch: 1000
next table: 1332
cur table: 1314
epoch: 1000
next table: 3010
cur table: 3008
epoch: 1000
next table: 1347
cur table: 1332
epoch: 1000
next table: 2964
cur table: 3010
epoch: 1000
next table: 1318
cur table: 1347
epoch: 1000
next table: 2925
cur table: 2964
epoch: 1000
next table: 1343
cur table: 1318
epoch: 1000
next table: 2963
cur table: 2925
epoch: 1000
next table: 1333
cur table: 1343
epoch: 1000
next table: 2888
cur table: 2963
epoch: 1000
next table: 1353
cur table: 1333
epoch: 1000
next table: 3017
cur table: 2888
epoch: 1000
next table: 1333
cur table: 1353
epoch: 1000
next table: 2991
cur table: 3017
epoch: 1000
next table: 1343
cur table: 1333
epoch: 1000
next table: 1356
cur table: 1343
epoch: 1000
next table: 2824
cur table: 2991
epoch: 1000
next table: 1319
cur table: 1356
epoch: 1000
next table: 3008
cur table: 2824
epoch: 1000
next table: 1323
cur table: 1319
epoch: 1000
next table: 3024
cur table: 3008
epoch: 1000
next table: 1363
cur table: 1323
epoch: 1000
next table: 2835
cur table: 3024
epoch: 1000
next table: 1321
cur table: 1363
epoch: 1000
next table: 2998
cur table: 2835
epoch: 1000
next table: 1322
cur table: 1321
epoch: 1000
next table: 3006
cur table: 2998
epoch: 1000
next table: 1309
cur table: 1322
epoch: 1000
next table: 2982
cur table: 3006
epoch: 1000
next table: 1337
cur table: 1309
epoch: 1000
next table: 2987
cur table: 2982
epoch: 1000
next table: 1333
cur table: 1337
epoch: 1000
next table: 3017
cur table: 2987
epoch: 1000
next table: 1337
cur table: 1333
epoch: 1000
next table: 2987
cur table: 3017
epoch: 1000
next table: 1354
cur table: 1337
epoch: 1000
next table: 2899
cur table: 2987
epoch: 1000
next table: 1352
cur table: 1354
epoch: 1000
next table: 1336
cur table: 1352
epoch: 1000
next table: 2957
cur table: 2899
epoch: 1000
next table: 1318
cur table: 1336
epoch: 1000
next table: 3007
cur table: 2957
epoch: 1000
next table: 1332
cur table: 1318
epoch: 1000
next table: 3002
cur table: 3007
epoch: 1000
next table: 1324
cur table: 1332
epoch: 1000
next table: 2997
cur table: 3002
epoch: 1000
next table: 1350
cur table: 1324
epoch: 1000
next table: 3013
cur table: 2997
epoch: 1000
next table: 1318
cur table: 1350
epoch: 1000
next table: 3016
cur table: 3013
epoch: 1000
next table: 1319
cur table: 1318
epoch: 1000
next table: 2991
cur table: 3016
epoch: 1000
next table: 1335
cur table: 1319
epoch: 1000
next table: 2980
cur table: 2991
epoch: 1000
next table: 1347
cur table: 1335
epoch: 1000
next table: 3018
cur table: 2980
epoch: 1000
next table: 1332
cur table: 1347
epoch: 1000
next table: 3014
cur table: 3018
epoch: 1000
next table: 1335
cur table: 1332
epoch: 1000
next table: 2986
cur table: 3014
epoch: 1000
next table: 1344
cur table: 1335
epoch: 1000
next table: 3004
cur table: 2986
epoch: 1000
next table: 1320
cur table: 1344
epoch: 1000
next table: 2978
cur table: 3004
epoch: 1000
next table: 1325
cur table: 1320
epoch: 1000
next table: 2987
cur table: 2978
epoch: 1000
next table: 1339
cur table: 1325
epoch: 1000
next table: 3031
cur table: 2987
epoch: 1000
next table: 1322
cur table: 1339
epoch: 1000
next table: 3012
cur table: 3031
epoch: 1000
next table: 1329
cur table: 1322
epoch: 1000
next table: 1320
cur table: 1329
epoch: 1000
next table: 3001
cur table: 3012
epoch: 1000
next table: 1320
cur table: 1320
epoch: 1000
next table: 3013
cur table: 3001
Heartbeat CPU 0 instructions: 90000000 cycles: 118715605 heartbeat IPC: 0.392424 cumulative IPC: 0.390019 (Simulation time: 0 hr 25 min 42 sec) 
epoch: 1000
next table: 1432
cur table: 1320
epoch: 1000
next table: 2740
cur table: 3013
epoch: 1000
next table: 1376
cur table: 1432
epoch: 1000
next table: 2998
cur table: 2740
epoch: 1000
next table: 1346
cur table: 1376
epoch: 1000
next table: 2948
cur table: 2998
epoch: 1000
next table: 1334
cur table: 1346
epoch: 1000
next table: 3026
cur table: 2948
epoch: 1000
next table: 1329
cur table: 1334
epoch: 1000
next table: 3013
cur table: 3026
epoch: 1000
next table: 1328
cur table: 1329
epoch: 1000
next table: 3004
cur table: 3013
epoch: 1000
next table: 1334
cur table: 1328
epoch: 1000
next table: 2986
cur table: 3004
epoch: 1000
next table: 1305
cur table: 1334
epoch: 1000
next table: 3013
cur table: 2986
epoch: 1000
next table: 1316
cur table: 1305
epoch: 1000
next table: 2970
cur table: 3013
epoch: 1000
next table: 1345
cur table: 1316
epoch: 1000
next table: 3009
cur table: 2970
epoch: 1000
next table: 1316
cur table: 1345
epoch: 1000
next table: 1391
cur table: 1316
epoch: 1000
next table: 2907
cur table: 3009
epoch: 1000
next table: 1331
cur table: 1391
epoch: 1000
next table: 2921
cur table: 2907
epoch: 1000
next table: 1323
cur table: 1331
epoch: 1000
next table: 2960
cur table: 2921
epoch: 1000
next table: 1390
cur table: 1323
epoch: 1000
next table: 2804
cur table: 2960
epoch: 1000
next table: 1334
cur table: 1390
epoch: 1000
next table: 3003
cur table: 2804
epoch: 1000
next table: 1352
cur table: 1334
epoch: 1000
next table: 2995
cur table: 3003
epoch: 1000
next table: 1319
cur table: 1352
epoch: 1000
next table: 1428
cur table: 1319
epoch: 1000
next table: 2799
cur table: 2995
epoch: 1000
next table: 1390
cur table: 1428
epoch: 1000
next table: 2866
cur table: 2799
epoch: 1000
next table: 1333
cur table: 1390
epoch: 1000
next table: 2926
cur table: 2866
epoch: 1000
next table: 1404
cur table: 1333
epoch: 1000
next table: 2016
cur table: 2926
epoch: 1000
next table: 1465
cur table: 1404
epoch: 1000
next table: 3179
cur table: 2016
epoch: 1000
next table: 1332
cur table: 1465
epoch: 1000
next table: 2333
cur table: 3179
epoch: 1000
next table: 1376
cur table: 1332
epoch: 1000
next table: 2960
cur table: 2333
epoch: 1000
next table: 1391
cur table: 1376
epoch: 1000
next table: 2366
cur table: 2960
epoch: 1000
next table: 1356
cur table: 1391
epoch: 1000
next table: 1290
cur table: 1356
epoch: 1000
next table: 2022
cur table: 2366
epoch: 1000
next table: 1324
cur table: 1290
epoch: 1000
next table: 2019
cur table: 2022
epoch: 1000
next table: 1324
cur table: 1324
epoch: 1000
next table: 2017
cur table: 2019
epoch: 1000
next table: 1286
cur table: 1324
epoch: 1000
next table: 2020
cur table: 2017
epoch: 1000
next table: 1306
cur table: 1286
epoch: 1000
next table: 2020
cur table: 2020
epoch: 1000
next table: 1294
cur table: 1306
epoch: 1000
next table: 2016
cur table: 2020
epoch: 1000
next table: 1301
cur table: 1294
epoch: 1000
next table: 2017
cur table: 2016
epoch: 1000
next table: 1278
cur table: 1301
epoch: 1000
next table: 2029
cur table: 2017
epoch: 1000
next table: 1310
cur table: 1278
epoch: 1000
next table: 2013
cur table: 2029
epoch: 1000
next table: 1283
cur table: 1310
epoch: 1000
next table: 2017
cur table: 2013
epoch: 1000
next table: 1283
cur table: 1283
epoch: 1000
next table: 2021
cur table: 2017
epoch: 1000
next table: 1302
cur table: 1283
epoch: 1000
next table: 2027
cur table: 2021
epoch: 1000
next table: 1278
cur table: 1302
epoch: 1000
next table: 1287
cur table: 1278
epoch: 1000
next table: 2023
cur table: 2027
epoch: 1000
next table: 1273
cur table: 1287
epoch: 1000
next table: 2012
cur table: 2023
epoch: 1000
next table: 1294
cur table: 1273
epoch: 1000
next table: 2022
cur table: 2012
epoch: 1000
next table: 1283
cur table: 1294
epoch: 1000
next table: 2018
cur table: 2022
epoch: 1000
next table: 1298
cur table: 1283
epoch: 1000
next table: 2034
cur table: 2018
epoch: 1000
next table: 1299
cur table: 1298
epoch: 1000
next table: 2011
cur table: 2034
epoch: 1000
next table: 1303
cur table: 1299
epoch: 1000
next table: 2037
cur table: 2011
epoch: 1000
next table: 1281
cur table: 1303
epoch: 1000
next table: 2010
cur table: 2037
epoch: 1000
next table: 1294
cur table: 1281
epoch: 1000
next table: 2015
cur table: 2010
epoch: 1000
next table: 1288
cur table: 1294
epoch: 1000
next table: 2030
cur table: 2015
epoch: 1000
next table: 1290
cur table: 1288
epoch: 1000
next table: 2032
cur table: 2030
epoch: 1000
next table: 1292
cur table: 1290
epoch: 1000
next table: 1293
cur table: 1292
epoch: 1000
next table: 2023
cur table: 2032
epoch: 1000
next table: 1286
cur table: 1293
epoch: 1000
next table: 2062
cur table: 2023
epoch: 1000
next table: 1286
cur table: 1286
epoch: 1000
next table: 2011
cur table: 2062
epoch: 1000
next table: 1303
cur table: 1286
epoch: 1000
next table: 2023
cur table: 2011
epoch: 1000
next table: 1288
cur table: 1303
epoch: 1000
next table: 2035
cur table: 2023
epoch: 1000
next table: 1284
cur table: 1288
epoch: 1000
next table: 2048
cur table: 2035
epoch: 1000
next table: 1313
cur table: 1284
epoch: 1000
next table: 2034
cur table: 2048
epoch: 1000
next table: 1285
cur table: 1313
epoch: 1000
next table: 2034
cur table: 2034
epoch: 1000
next table: 1314
cur table: 1285
epoch: 1000
next table: 2012
cur table: 2034
epoch: 1000
next table: 1272
cur table: 1314
epoch: 1000
next table: 2020
cur table: 2012
epoch: 1000
next table: 1297
cur table: 1272
epoch: 1000
next table: 2016
cur table: 2020
epoch: 1000
next table: 1293
cur table: 1297
epoch: 1000
next table: 2018
cur table: 2016
epoch: 1000
next table: 1292
cur table: 1293
epoch: 1000
next table: 2048
cur table: 2018
epoch: 1000
next table: 1283
cur table: 1292
epoch: 1000
next table: 1294
cur table: 1283
epoch: 1000
next table: 2016
cur table: 2048
epoch: 1000
next table: 1289
cur table: 1294
epoch: 1000
next table: 2048
cur table: 2016
epoch: 1000
next table: 1279
cur table: 1289
epoch: 1000
next table: 2011
cur table: 2048
epoch: 1000
next table: 1283
cur table: 1279
epoch: 1000
next table: 2042
cur table: 2011
epoch: 1000
next table: 1289
cur table: 1283
epoch: 1000
next table: 2041
cur table: 2042
epoch: 1000
next table: 1291
cur table: 1289
epoch: 1000
next table: 2016
cur table: 2041
epoch: 1000
next table: 1281
cur table: 1291
epoch: 1000
next table: 2051
cur table: 2016
epoch: 1000
next table: 1308
cur table: 1281
epoch: 1000
next table: 2031
cur table: 2051
epoch: 1000
next table: 1285
cur table: 1308
epoch: 1000
next table: 2038
cur table: 2031
epoch: 1000
next table: 1282
cur table: 1285
epoch: 1000
next table: 2015
cur table: 2038
epoch: 1000
next table: 1286
cur table: 1282
epoch: 1000
next table: 2011
cur table: 2015
epoch: 1000
next table: 1286
cur table: 1286
epoch: 1000
next table: 1317
cur table: 1286
epoch: 1000
next table: 2014
cur table: 2011
epoch: 1000
next table: 1284
cur table: 1317
epoch: 1000
next table: 2014
cur table: 2014
epoch: 1000
next table: 1281
cur table: 1284
epoch: 1000
next table: 2037
cur table: 2014
epoch: 1000
next table: 1299
cur table: 1281
epoch: 1000
next table: 2015
cur table: 2037
epoch: 1000
next table: 1300
cur table: 1299
epoch: 1000
next table: 2011
cur table: 2015
epoch: 1000
next table: 1300
cur table: 1300
epoch: 1000
next table: 2048
cur table: 2011
epoch: 1000
next table: 1296
cur table: 1300
epoch: 1000
next table: 2019
cur table: 2048
epoch: 1000
next table: 1272
cur table: 1296
epoch: 1000
next table: 2038
cur table: 2019
epoch: 1000
next table: 1301
cur table: 1272
epoch: 1000
next table: 2048
cur table: 2038
epoch: 1000
next table: 1284
cur table: 1301
epoch: 1000
next table: 2043
cur table: 2048
epoch: 1000
next table: 1287
cur table: 1284
epoch: 1000
next table: 2043
cur table: 2043
epoch: 1000
next table: 1284
cur table: 1287
epoch: 1000
next table: 1292
cur table: 1284
epoch: 1000
next table: 2033
cur table: 2043
epoch: 1000
next table: 1301
cur table: 1292
epoch: 1000
next table: 2038
cur table: 2033
epoch: 1000
next table: 1282
cur table: 1301
epoch: 1000
next table: 2049
cur table: 2038
epoch: 1000
next table: 1286
cur table: 1282
epoch: 1000
next table: 2050
cur table: 2049
epoch: 1000
next table: 1288
cur table: 1286
epoch: 1000
next table: 2037
cur table: 2050
epoch: 1000
next table: 1320
cur table: 1288
epoch: 1000
next table: 2016
cur table: 2037
epoch: 1000
next table: 1290
cur table: 1320
epoch: 1000
next table: 2042
cur table: 2016
epoch: 1000
next table: 1289
cur table: 1290
epoch: 1000
next table: 2044
cur table: 2042
epoch: 1000
next table: 1287
cur table: 1289
epoch: 1000
next table: 2043
cur table: 2044
epoch: 1000
next table: 1290
cur table: 1287
epoch: 1000
next table: 2045
cur table: 2043
epoch: 1000
next table: 1323
cur table: 1290
epoch: 1000
next table: 2014
cur table: 2045
epoch: 1000
next table: 1275
cur table: 1323
epoch: 1000
next table: 2009
cur table: 2014
epoch: 1000
next table: 1283
cur table: 1275
epoch: 1000
next table: 2069
cur table: 2009
epoch: 1000
next table: 1283
cur table: 1283
epoch: 1000
next table: 2064
cur table: 2069
epoch: 1000
next table: 1286
cur table: 1283
epoch: 1000
next table: 1278
cur table: 1286
epoch: 1000
next table: 2013
cur table: 2064
epoch: 1000
next table: 1286
cur table: 1278
epoch: 1000
next table: 2070
cur table: 2013
epoch: 1000
next table: 1315
cur table: 1286
epoch: 1000
next table: 2063
cur table: 2070
epoch: 1000
next table: 1272
cur table: 1315
epoch: 1000
next table: 2042
cur table: 2063
epoch: 1000
next table: 1308
cur table: 1272
epoch: 1000
next table: 2023
cur table: 2042
epoch: 1000
next table: 1283
cur table: 1308
epoch: 1000
next table: 2012
cur table: 2023
epoch: 1000
next table: 1288
cur table: 1283
epoch: 1000
next table: 2049
cur table: 2012
epoch: 1000
next table: 1282
cur table: 1288
epoch: 1000
next table: 2017
cur table: 2049
epoch: 1000
next table: 1295
cur table: 1282
epoch: 1000
next table: 2044
cur table: 2017
epoch: 1000
next table: 1283
cur table: 1295
epoch: 1000
next table: 2020
cur table: 2044
epoch: 1000
next table: 1329
cur table: 1283
epoch: 1000
next table: 2010
cur table: 2020
epoch: 1000
next table: 1273
cur table: 1329
epoch: 1000
next table: 1309
cur table: 1273
epoch: 1000
next table: 2018
cur table: 2010
epoch: 1000
next table: 1298
cur table: 1309
epoch: 1000
next table: 2010
cur table: 2018
epoch: 1000
next table: 1307
cur table: 1298
epoch: 1000
next table: 2013
cur table: 2010
epoch: 1000
next table: 1296
cur table: 1307
epoch: 1000
next table: 2012
cur table: 2013
epoch: 1000
next table: 1300
cur table: 1296
epoch: 1000
next table: 2059
cur table: 2012
epoch: 1000
next table: 1287
cur table: 1300
epoch: 1000
next table: 2053
cur table: 2059
epoch: 1000
next table: 1290
cur table: 1287
epoch: 1000
next table: 2057
cur table: 2053
epoch: 1000
next table: 1302
cur table: 1290
epoch: 1000
next table: 2013
cur table: 2057
epoch: 1000
next table: 1273
cur table: 1302
epoch: 1000
next table: 2015
cur table: 2013
epoch: 1000
next table: 1296
cur table: 1273
epoch: 1000
next table: 2058
cur table: 2015
epoch: 1000
next table: 1316
cur table: 1296
epoch: 1000
[...]
next table: 1312
cur table: 1347
epoch: 1000
next table: 3016
cur table: 3021
epoch: 1000
next table: 1330
cur table: 1312
epoch: 1000
next table: 3034
cur table: 3016
epoch: 1000
next table: 1334
cur table: 1330
epoch: 1000
next table: 1337
cur table: 1334
epoch: 1000
next table: 3003
cur table: 3034
epoch: 1000
next table: 1321
cur table: 1337
epoch: 1000
next table: 3008
cur table: 3003
epoch: 1000
next table: 1352
cur table: 1321
epoch: 1000
next table: 3005
cur table: 3008
epoch: 1000
next table: 1330
cur table: 1352
epoch: 1000
next table: 2998
cur table: 3005
epoch: 1000
next table: 1348
cur table: 1330
epoch: 1000
next table: 2959
cur table: 2998
epoch: 1000
next table: 1327
cur table: 1348
epoch: 1000
next table: 3027
cur table: 2959
epoch: 1000
next table: 1334
cur table: 1327
epoch: 1000
next table: 3027
cur table: 3027
epoch: 1000
next table: 1318
cur table: 1334
epoch: 1000
next table: 3023
cur table: 3027
epoch: 1000
next table: 1329
cur table: 1318
epoch: 1000
next table: 3012
cur table: 3023
epoch: 1000
next table: 1331
cur table: 1329
epoch: 1000
next table: 3015
cur table: 3012
epoch: 1000
next table: 1325
cur table: 1331
epoch: 1000
next table: 3010
cur table: 3015
epoch: 1000
next table: 1335
cur table: 1325
epoch: 1000
next table: 3018
cur table: 3010
epoch: 1000
next table: 1344
cur table: 1335
epoch: 1000
next table: 3008
cur table: 3018
epoch: 1000
next table: 1335
cur table: 1344
epoch: 1000
next table: 3031
cur table: 3008
epoch: 1000
next table: 1330
cur table: 1335
epoch: 1000
next table: 2983
cur table: 3031
epoch: 1000
next table: 1350
cur table: 1330
epoch: 1000
next table: 3010
cur table: 2983
epoch: 1000
next table: 1325
cur table: 1350
epoch: 1000
next table: 3000
cur table: 3010
epoch: 1000
next table: 1328
cur table: 1325
epoch: 1000
next table: 3009
cur table: 3000
epoch: 1000
next table: 1327
cur table: 1328
epoch: 1000
next table: 3002
cur table: 3009
epoch: 1000
next table: 1345
cur table: 1327
epoch: 1000
next table: 3012
cur table: 3002
epoch: 1000
next table: 1342
cur table: 1345
epoch: 1000
next table: 2986
cur table: 3012
epoch: 1000
next table: 1332
cur table: 1342
Heartbeat CPU 0 instructions: 100000000 cycles: 150078064 heartbeat IPC: 0.318853 cumulative IPC: 0.373353 (Simulation time: 0 hr 27 min 31 sec) 
Finished CPU 0 instructions: 50000003 cycles: 133921556 cumulative IPC: 0.373353 (Simulation time: 0 hr 27 min 31 sec) 

ChampSim completed all CPUs

Region of Interest Statistics

CPU 0 cumulative IPC: 0.373353 instructions: 50000003 cycles: 133921556
ITLB TOTAL     ACCESS:    7826566  HIT:    7826556  MISS:         10  HIT %:    99.9999  MISS %: 0.00012777   MPKI: 0.0002
ITLB LOAD TRANSLATION ACCESS:    7826566  HIT:    7826556  MISS:         10  HIT %:    99.9999  MISS %: 0.00012777   MPKI: 0.0002
ITLB PREFETCH  REQUESTED:          0  ISSUED:          0  USEFUL:          0  USELESS:          0
ITLB USEFUL LOAD PREFETCHES:          0 PREFETCH ISSUED TO LOWER LEVEL:          0  ACCURACY: -nan
ITLB TIMELY PREFETCHES:          0 LATE PREFETCHES: 0 DROPPED PREFETCHES: 0
ITLB PREFETCHES SAME FILL-ORIGIN LEVEL: 0 DIFFERENT FILL-ORIGIN LEVEL: 0
ITLB AVERAGE MISS LATENCY: 273.4 cycles
ITLB RQ	ACCESS:    8426042	FORWARD:          0	MERGED:     599472	TO_CACHE:    7826570

Revised Interactions: positive negative neutral
ITLB_interactions 0 0 0 -nan -nan -nan
DTLB TOTAL     ACCESS:   14556259  HIT:   14530658  MISS:      25601  HIT %:    99.8241  MISS %:   0.175876   MPKI: 0.51202
DTLB LOAD TRANSLATION ACCESS:   14556259  HIT:   14530658  MISS:      25601  HIT %:    99.8241  MISS %:   0.175876   MPKI: 0.51202
DTLB PREFETCH  REQUESTED:          0  ISSUED:          0  USEFUL:          0  USELESS:          0
DTLB USEFUL LOAD PREFETCHES:          0 PREFETCH ISSUED TO LOWER LEVEL:          0  ACCURACY: -nan
DTLB TIMELY PREFETCHES:          0 LATE PREFETCHES: 0 DROPPED PREFETCHES: 0
DTLB PREFETCHES SAME FILL-ORIGIN LEVEL: 0 DIFFERENT FILL-ORIGIN LEVEL: 0
DTLB AVERAGE MISS LATENCY: 94.0777 cycles
DTLB RQ	ACCESS:   14828672	FORWARD:          0	MERGED:     272047	TO_CACHE:   14556625

Revised Interactions: positive negative neutral
DTLB_interactions 0 0 0 -nan -nan -nan
STLB TOTAL     ACCESS:      25611  HIT:       6693  MISS:      18918  HIT %:    26.1333  MISS %:    73.8667   MPKI: 0.37836
STLB LOAD TRANSLATION ACCESS:      25611  HIT:       6693  MISS:      18918  HIT %:    26.1333  MISS %:    73.8667   MPKI: 0.37836
STLB PREFETCH  REQUESTED:          0  ISSUED:          0  USEFUL:          0  USELESS:          0
STLB USEFUL LOAD PREFETCHES:          0 PREFETCH ISSUED TO LOWER LEVEL:          0  ACCURACY: -nan
STLB TIMELY PREFETCHES:          0 LATE PREFETCHES: 0 DROPPED PREFETCHES: 0
STLB PREFETCHES SAME FILL-ORIGIN LEVEL: 0 DIFFERENT FILL-ORIGIN LEVEL: 0
STLB AVERAGE MISS LATENCY: 115.26 cycles
STLB RQ	ACCESS:      25611	FORWARD:          0	MERGED:          0	TO_CACHE:      25611

Revised Interactions: positive negative neutral
STLB_interactions 0 0 0 -nan -nan -nan
STLB Hit, L1D data hit: 0
STLB Hit, L2C data hit: 0
STLB Hit, LLC data hit: 0
STLB Hit, LLC data miss: 0
STLB STLB hints to L2: 0
L1D TOTAL     ACCESS:   14697475  HIT:   13765661  MISS:     931814  HIT %:      93.66  MISS %:    6.33996   MPKI: 18.6363
L1D LOAD      ACCESS:    9911120  HIT:    8981797  MISS:     929323  HIT %:    90.6234  MISS %:    9.37657   MPKI: 18.5865
L1D RFO       ACCESS:    4786355  HIT:    4783864  MISS:       2491  HIT %:     99.948  MISS %:  0.0520438   MPKI: 0.04982
L1D PREFETCH  REQUESTED:          0  ISSUED:          0  USEFUL:          0  USELESS:          0
L1D USEFUL LOAD PREFETCHES:          0 PREFETCH ISSUED TO LOWER LEVEL:          0  ACCURACY: -nan
L1D TIMELY PREFETCHES:          0 LATE PREFETCHES: 0 DROPPED PREFETCHES: 0
L1D PREFETCHES SAME FILL-ORIGIN LEVEL: 0 DIFFERENT FILL-ORIGIN LEVEL: 0
L1D AVERAGE MISS LATENCY: 26.0688 cycles
L1D RQ	ACCESS:   13239234	FORWARD:          0	MERGED:    3194530	TO_CACHE:   10036239
L1D WQ	ACCESS:    5368851	FORWARD:       8465	MERGED:     576418	TO_CACHE:    4792433

Revised Interactions: positive negative neutral
L1D_interactions 0 0 0 -nan -nan -nan
L1D UNIQUE REGIONS ACCESSED: 0
L1D REGIONS CONFLICTS: 0
L1D Cross Page Prefetch Requests: 0
L1D Same Page Prefetch Requests: 0
L1D ROI Sum of L1D PQ occupancy: 0
L1D PREFETCHES PUSHED FROM L2C: 0
L1I TOTAL     ACCESS:    8426029  HIT:    8425940  MISS:         89  HIT %:    99.9989  MISS %: 0.00105625   MPKI: 0.00178
L1I LOAD      ACCESS:    8426029  HIT:    8425940  MISS:         89  HIT %:    99.9989  MISS %: 0.00105625   MPKI: 0.00178
L1I PREFETCH  REQUESTED:          0  ISSUED:          0  USEFUL:          0  USELESS:          0
L1I USEFUL LOAD PREFETCHES:          0 PREFETCH ISSUED TO LOWER LEVEL:          0  ACCURACY: -nan
L1I TIMELY PREFETCHES:          0 LATE PREFETCHES: 0 DROPPED PREFETCHES: 0
L1I PREFETCHES SAME FILL-ORIGIN LEVEL: 0 DIFFERENT FILL-ORIGIN LEVEL: 0
L1I AVERAGE MISS LATENCY: 197.697 cycles
L1I RQ	ACCESS:   14115435	FORWARD:          0	MERGED:    5689393	TO_CACHE:    8426042

Revised Interactions: positive negative neutral
L1I_interactions 0 0 0 -nan -nan -nan
BTB TOTAL     ACCESS:    9291537  HIT:    9274266  MISS:      17271  HIT %:    99.8141  MISS %:   0.185879   MPKI: 0.34542
BTB BRANCH_DIRECT_JUMP	ACCESS:    1184498  HIT:    1184423  MISS:         75
BTB BRANCH_INDIRECT	ACCESS:          0  HIT:          0  MISS:          0
BTB BRANCH_CONDITIONAL	ACCESS:    6903429  HIT:    6903261  MISS:        168
BTB BRANCH_DIRECT_CALL	ACCESS:     601784  HIT:     601742  MISS:         42
BTB BRANCH_INDIRECT_CALL	ACCESS:         21  HIT:         20  MISS:          1
BTB BRANCH_RETURN	ACCESS:     601805  HIT:     584820  MISS:      16985
BTB BRANCH_OTHER ACCESS:          0  HIT:          0  MISS:          0

L2C TOTAL     ACCESS:    3904887  HIT:    3341112  MISS:     563775  HIT %:    85.5623  MISS %:    14.4377   MPKI: 11.2755
L2C LOAD      ACCESS:     929412  HIT:     688634  MISS:     240778  HIT %:    74.0935  MISS %:    25.9065   MPKI: 4.81556
L2C DATA LOAD MPKI: 4.81378
L2C INSTRUCTION LOAD MPKI: 0.00178
L2C RFO       ACCESS:       2491  HIT:        122  MISS:       2369  HIT %:    4.89763  MISS %:    95.1024   MPKI: 0.04738
L2C PREFETCH  ACCESS:    2939938  HIT:    2627446  MISS:     312492  HIT %:    89.3708  MISS %:    10.6292   MPKI: 6.24984
L2C DATA PREFETCH MPKI: 6.24984
L2C INSTRUCTION PREFETCH MPKI: 0
L2C WRITEBACK ACCESS:      12540  HIT:      12362  MISS:        178  HIT %:    98.5805  MISS %:    1.41946   MPKI: 0.00356
L2C LOAD TRANSLATION ACCESS:      20506  HIT:      12548  MISS:       7958  HIT %:    61.1918  MISS %:    38.8082   MPKI: 0.15916
L2C PREFETCH  REQUESTED:    7618092  ISSUED:    7591960  USEFUL:     310054  USELESS:       2432
L2C USEFUL LOAD PREFETCHES:     310054 PREFETCH ISSUED TO LOWER LEVEL:    4932161  ACCURACY: 6.28637
L2C TIMELY PREFETCHES:     310054 LATE PREFETCHES: 40748 DROPPED PREFETCHES: 0
L2C PREFETCHES SAME FILL-ORIGIN LEVEL: 353240 DIFFERENT FILL-ORIGIN LEVEL: 4578921
L2C AVERAGE MISS LATENCY: 39.1552 cycles
L2C RQ	ACCESS:     952409	FORWARD:          0	MERGED:          0	TO_CACHE:     952409
L2C WQ	ACCESS:      12540	FORWARD:          0	MERGED:          0	TO_CACHE:      12540
L2C PQ	ACCESS:    7591960	FORWARD:          0	MERGED:      27838	TO_CACHE:    7564122

Revised Interactions: positive negative neutral
L2C_interactions 308729 2568 1316 98.7576 0.821463 0.420968
L2C Instructions Evicting Data 85
L2C Translations Evicting Data 7805
L2C Data Evicting Data 547696
L2C Instructions Evicting Instructions 0
L2C Translations Evicting Instructions 3
L2C Data Evicting Instructions 84
L2C Instructions Evicting Translations 4
L2C Translations Evicting Translations 150
L2C Data Evicting Translations 7770
L2C Dense regions hint from L2: 0
PSCL5 TOTAL     ACCESS:      18918  HIT:      18918  MISS:          0  HIT %:        100  MISS %:          0   MPKI: 0
PSCL5 LOAD TRANSLATION ACCESS:      18918  HIT:      18918  MISS:          0  HIT %:        100  MISS %:          0   MPKI: 0
PSCL5 PREFETCH  REQUESTED:          0  ISSUED:          0  USEFUL:          0  USELESS:          0
PSCL5 USEFUL LOAD PREFETCHES:          0 PREFETCH ISSUED TO LOWER LEVEL:          0  ACCURACY: -nan
PSCL5 TIMELY PREFETCHES:          0 LATE PREFETCHES: 0 DROPPED PREFETCHES: 0
PSCL5 PREFETCHES SAME FILL-ORIGIN LEVEL: 0 DIFFERENT FILL-ORIGIN LEVEL: 0

Revised Interactions: positive negative neutral
PSCL5_interactions 0 0 0 -nan -nan -nan
PSCL4 TOTAL     ACCESS:      18918  HIT:      18918  MISS:          0  HIT %:        100  MISS %:          0   MPKI: 0
PSCL4 LOAD TRANSLATION ACCESS:      18918  HIT:      18918  MISS:          0  HIT %:        100  MISS %:          0   MPKI: 0
PSCL4 PREFETCH  REQUESTED:          0  ISSUED:          0  USEFUL:          0  USELESS:          0
PSCL4 USEFUL LOAD PREFETCHES:          0 PREFETCH ISSUED TO LOWER LEVEL:          0  ACCURACY: -nan
PSCL4 TIMELY PREFETCHES:          0 LATE PREFETCHES: 0 DROPPED PREFETCHES: 0
PSCL4 PREFETCHES SAME FILL-ORIGIN LEVEL: 0 DIFFERENT FILL-ORIGIN LEVEL: 0

Revised Interactions: positive negative neutral
PSCL4_interactions 0 0 0 -nan -nan -nan
PSCL3 TOTAL     ACCESS:      18918  HIT:      18918  MISS:          0  HIT %:        100  MISS %:          0   MPKI: 0
PSCL3 LOAD TRANSLATION ACCESS:      18918  HIT:      18918  MISS:          0  HIT %:        100  MISS %:          0   MPKI: 0
PSCL3 PREFETCH  REQUESTED:          0  ISSUED:          0  USEFUL:          0  USELESS:          0
PSCL3 USEFUL LOAD PREFETCHES:          0 PREFETCH ISSUED TO LOWER LEVEL:          0  ACCURACY: -nan
PSCL3 TIMELY PREFETCHES:          0 LATE PREFETCHES: 0 DROPPED PREFETCHES: 0
PSCL3 PREFETCHES SAME FILL-ORIGIN LEVEL: 0 DIFFERENT FILL-ORIGIN LEVEL: 0

Revised Interactions: positive negative neutral
PSCL3_interactions 0 0 0 -nan -nan -nan
PSCL2 TOTAL     ACCESS:      18918  HIT:      17309  MISS:       1609  HIT %:    91.4949  MISS %:    8.50513   MPKI: 0.03218
PSCL2 LOAD TRANSLATION ACCESS:      18918  HIT:      17309  MISS:       1609  HIT %:    91.4949  MISS %:    8.50513   MPKI: 0.03218
PSCL2 PREFETCH  REQUESTED:          0  ISSUED:          0  USEFUL:          0  USELESS:          0
PSCL2 USEFUL LOAD PREFETCHES:          0 PREFETCH ISSUED TO LOWER LEVEL:          0  ACCURACY: -nan
PSCL2 TIMELY PREFETCHES:          0 LATE PREFETCHES: 0 DROPPED PREFETCHES: 0
PSCL2 PREFETCHES SAME FILL-ORIGIN LEVEL: 0 DIFFERENT FILL-ORIGIN LEVEL: 0

Revised Interactions: positive negative neutral
PSCL2_interactions 0 0 0 -nan -nan -nan
LLC TOTAL     ACCESS:    5025599  HIT:    4410746  MISS:     614853  HIT %:    87.7656  MISS %:    12.2344   MPKI: 12.2971
LLC LOAD      ACCESS:     200030  HIT:     168401  MISS:      31629  HIT %:    84.1879  MISS %:    15.8121   MPKI: 0.63258
LLC RFO       ACCESS:       2369  HIT:        226  MISS:       2143  HIT %:    9.53989  MISS %:    90.4601   MPKI: 0.04286
LLC PREFETCH  ACCESS:    4806960  HIT:    4238747  MISS:     568213  HIT %:    88.1794  MISS %:    11.8206   MPKI: 11.3643
LLC WRITEBACK ACCESS:       8282  HIT:       2880  MISS:       5402  HIT %:    34.7742  MISS %:    65.2258   MPKI: 0.10804
LLC LOAD TRANSLATION ACCESS:       7958  HIT:        492  MISS:       7466  HIT %:    6.18246  MISS %:    93.8175   MPKI: 0.14932
LLC PREFETCH  REQUESTED:          0  ISSUED:          0  USEFUL:     163368  USELESS:     410016
LLC USEFUL LOAD PREFETCHES:     163368 PREFETCH ISSUED TO LOWER LEVEL:     568774  ACCURACY: 28.7228
LLC TIMELY PREFETCHES:     163368 LATE PREFETCHES: 561 DROPPED PREFETCHES: 0
LLC PREFETCHES SAME FILL-ORIGIN LEVEL: 562294 DIFFERENT FILL-ORIGIN LEVEL: 0
LLC AVERAGE MISS LATENCY: 87.3059 cycles
LLC RQ	ACCESS:     210357	FORWARD:          0	MERGED:          0	TO_CACHE:     210357
LLC WQ	ACCESS:       8282	FORWARD:          0	MERGED:          0	TO_CACHE:       8282
LLC PQ	ACCESS:    4932161	FORWARD:          0	MERGED:       8347	TO_CACHE:    4923814

Revised Interactions: positive negative neutral
LLC_interactions 160986 405857 24699 27.2146 68.61 4.17536
LLC Dense regions hint to LLC: 0

RAW hits: 27558
Loads Generated: 13266792
Loads sent to L1D: 13239234
Stores Generated: 5368850
Stores sent to L1D: 5368851
Major fault: 0 Minor fault: 8936
Allocated PAGES: 8936
 All Calls: 1739374
 Critical Calls: 1739374
------------------
Depth Distribution
------------------
depth 0: 0
depth 1: 1541441
depth 2: 1492101
depth 3: 1439850
depth 4: 1397008
depth 5: 1359665
depth 6: 1320048
depth 7: 1267269
depth 8: 1181469
depth 9: 992677
depth 10: 842744
depth 11: 658282
depth 12: 391918
depth 13: 215112
depth 14: 14704
depth 15: 14194
depth 16: 0
depth 17: 0
depth 18: 0
depth 19: 0
depth 20: 0
depth 21: 0
depth 22: 0
depth 23: 0
depth 24: 0
depth 25: 0
depth 26: 0
depth 27: 0
depth 28: 0
depth 29: 0
Total: 14128482
-----------------------------
-----------------------------
	Captured at Filter
-----------------------------
depth 0: 0
depth 1: 172422
depth 2: 170699
depth 3: 168665
depth 4: 164140
depth 5: 160531
depth 6: 157423
depth 7: 153659
depth 8: 145918
depth 9: 122902
depth 10: 104146
depth 11: 85616
depth 12: 53072
depth 13: 29002
depth 14: 2219
depth 15: 2272
depth 16: 0
depth 17: 0
depth 18: 0
depth 19: 0
depth 20: 0
depth 21: 0
depth 22: 0
depth 23: 0
depth 24: 0
depth 25: 0
depth 26: 0
depth 27: 0
depth 28: 0
depth 29: 0
-----------------------------
-----------------------------
		Lost at Page
-----------------------------
depth 0: 0
depth 1: 27259
depth 2: 51979
depth 3: 76824
depth 4: 100339
depth 5: 124919
depth 6: 149069
depth 7: 171566
depth 8: 189796
depth 9: 185975
depth 10: 182849
depth 11: 165493
depth 12: 114351
depth 13: 72052
depth 14: 5814
depth 15: 6226
depth 16: 0
depth 17: 0
depth 18: 0
depth 19: 0
depth 20: 0
depth 21: 0
depth 22: 0
depth 23: 0
depth 24: 0
depth 25: 0
depth 26: 0
depth 27: 0
depth 28: 0
depth 29: 0
-----------------------------
-----------------------------
	Lost due to PQ Size
-----------------------------
236030
-----------------------------
ST read accesses: 909194
ST write accesses: 20129
PT read accesses: 51025275
PT write accesses: 1341673
FILTER read accesses: 9924668
FILTER write accesses: 1668501
GHR read accesses: 4556153
GHR write accesses: 840984
GHR counter read accesses: 42625726
GHR counter write accesses: 2035830
ST tag read accesses: 371567686
ST tag write accesses: 7819697

DRAM Statistics
 CHANNEL 0
 RQ ROW_BUFFER_HIT:     520738  ROW_BUFFER_MISS:      88713
 DBUS_CONGESTED:        269
 WQ ROW_BUFFER_HIT:       1077  ROW_BUFFER_MISS:       6368  FULL:          0

 AVG_CONGESTED_CYCLE: 3
 All warmup complete: 2
Channel 0 Bank busy for read cycles: 0
Channel 0 Bank busy for write cycles: 0
Channel 0
Rank 0
0banks busy for read cycles: 114340880
0banks busy for write cycles: 5451
1banks busy for read cycles: 7351565
1banks busy for write cycles: 893906
2banks busy for read cycles: 6156664
2banks busy for write cycles: 140822
3banks busy for read cycles: 3048874
3banks busy for write cycles: 45854
4banks busy for read cycles: 809698
4banks busy for write cycles: 20354
5banks busy for read cycles: 291716
5banks busy for write cycles: 11605
6banks busy for read cycles: 174113
6banks busy for write cycles: 7339
7banks busy for read cycles: 141572
7banks busy for write cycles: 4632
8banks busy for read cycles: 475099
8banks busy for write cycles: 1413

CPU 0 Branch Prediction Accuracy: 95.0334% MPKI: 12.0195 Average ROB Occupancy at Mispredict: 57.7735
Branch types
NOT_BRANCH: 37899420 75.7988%
BRANCH_DIRECT_JUMP: 1184498 2.369%
BRANCH_INDIRECT: 0 0%
BRANCH_CONDITIONAL: 9712122 19.4242%
BRANCH_DIRECT_CALL: 601784 1.20357%
BRANCH_INDIRECT_CALL: 21 4.2e-05%
BRANCH_RETURN: 601805 1.20361%
BRANCH_OTHER: 0 0%

@sumon_overall_L1D         0         0         0         0         0         0         0
@Sumon_Early_by_class_L1D         0         0         0         0
@Sumon_Late_by_class_L1D         0         0         0         0

@Sumon_Early_by_cycle_L1D         0         0         0         0         0         0         0         0         0         0         0         0
@Sumon_Late_by_cycle_L1D         0         0         0         0         0         0
@Sumon_Early_stream_L1D         0         0         0         0         0         0         0         0         0         0         0         0
@Sumon_Early_CS_L1D         0         0         0         0         0         0         0         0         0         0         0         0
@Sumon_Early_CPLX_L1D         0         0         0         0         0         0         0         0         0         0         0         0
@Sumon_Late_stream_L1D         0         0         0         0         0         0
@Sumon_Late_CS_L1D         0         0         0         0         0         0
@Sumon_Late_CPLX_L1D         0         0         0         0         0         0
@sumon_overall_L2C    310054     40748         0      2432    312492   7591960   7618092
@Sumon_Early_by_class_L2C         0         0         0         0
@Sumon_Late_by_class_L2C         0         0         0         0

@Sumon_Early_by_cycle_L2C     65285     82788    148058      5579       942      1826      1254      1785      1293       869         5       370
@Sumon_Late_by_cycle_L2C     39314       890       442        95         7         0
@Sumon_Early_stream_L2C         0         0         0         0         0         0         0         0         0         0         0         0
@Sumon_Early_CS_L2C         0         0         0         0         0         0         0         0         0         0         0         0
@Sumon_Early_CPLX_L2C         0         0         0         0         0         0         0         0         0         0         0         0
@Sumon_Late_stream_L2C         0         0         0         0         0         0
@Sumon_Late_CS_L2C         0         0         0         0         0         0
@Sumon_Late_CPLX_L2C         0         0         0         0         0         0
DRAM PAGES: 1048576
Allocated PAGES: 8936
