Initialize SIGNATURE TABLE
ST_SET: 1
ST_WAY: 256
ST_TAG_BIT: 16
ST_TAG_MASK: ffff

Initialize PATTERN TABLE
PT_SET: 512
PT_WAY: 4
SIG_DELTA_BIT: 7
C_SIG_BIT: 4
C_DELTA_BIT: 4

Initialize PREFETCH FILTER
FILTER_SET: 1024

*** ChampSim Multicore Out-of-Order Simulator ***

Warmup Instructions: 50000000
Simulation Instructions: 50000000
Number of CPUs: 1
LLC sets: 2048
LLC ways: 16
Off-chip DRAM Size: 4096 MB Channels: 1 Width: 64-bit Data Rate: 6400 MT/s
CPU 0 runs ../../biswa/SPEC2017Traces/605.mcf_s-1536B.champsimtrace.xz
.xz
CPU 0 Bimodal branch predictor
BTB has LRU replacement policy
ITLB has LRU replacement policy
DTLB has LRU replacement policy
STLB has LRU replacement policy
L1I has LRU replacement policy
L1D has LRU replacement policy
ST_WAYS: 256
PT_SETS: 512
Initialize DRRIP state for L2C
Initialize Hawkeye state
epoch: 1000
next table: 3471
cur table: 8845
epoch: 1000
next table: 3071
cur table: 3471
epoch: 1000
next table: 2591
cur table: 3071
epoch: 1000
next table: 2869
cur table: 2591
epoch: 1000
next table: 2709
cur table: 2869
epoch: 1000
next table: 2760
cur table: 2709
epoch: 1000
next table: 2425
cur table: 2760
epoch: 1000
next table: 2633
cur table: 2425
epoch: 1000
next table: 2557
cur table: 2633
epoch: 1000
next table: 2726
cur table: 2557
epoch: 1000
next table: 2507
cur table: 2726
epoch: 1000
next table: 2445
cur table: 2507
epoch: 1000
next table: 2598
cur table: 2445
epoch: 1000
next table: 2591
cur table: 2598
epoch: 1000
next table: 2792
cur table: 2591
epoch: 1000
next table: 2434
cur table: 2792
epoch: 1000
next table: 2512
cur table: 2434
epoch: 1000
next table: 2713
cur table: 2512
epoch: 1000
next table: 2610
cur table: 2713
epoch: 1000
next table: 2672
cur table: 2610
epoch: 1000
next table: 2408
cur table: 2672
epoch: 1000
next table: 2655
cur table: 2408
epoch: 1000
next table: 2566
cur table: 2655
epoch: 1000
next table: 2794
cur table: 2566
epoch: 1000
next table: 2534
cur table: 2794
epoch: 1000
next table: 2519
cur table: 2534
epoch: 1000
next table: 2762
cur table: 2519
epoch: 1000
next table: 2698
cur table: 2762
epoch: 1000
next table: 2710
cur table: 2698
epoch: 1000
next table: 2477
cur table: 2710
epoch: 1000
next table: 4723
cur table: 36958
epoch: 1000
next table: 2687
cur table: 2477
epoch: 1000
next table: 2579
cur table: 2687
epoch: 1000
next table: 2860
cur table: 2579
epoch: 1000
next table: 3969
cur table: 4723
epoch: 1000
next table: 2607
cur table: 2860
epoch: 1000
next table: 2515
cur table: 2607
epoch: 1000
next table: 2712
cur table: 2515
epoch: 1000
next table: 3426
cur table: 3969
epoch: 1000
next table: 2688
cur table: 2712
epoch: 1000
next table: 2711
cur table: 2688
epoch: 1000
next table: 3136
cur table: 3426
epoch: 1000
next table: 2464
cur table: 2711
epoch: 1000
next table: 2693
cur table: 2464
epoch: 1000
next table: 3082
cur table: 3136
epoch: 1000
next table: 2592
cur table: 2693
epoch: 1000
next table: 2750
cur table: 2592
epoch: 1000
next table: 2872
cur table: 3082
epoch: 1000
next table: 2561
cur table: 2750
epoch: 1000
next table: 2538
cur table: 2561
epoch: 1000
next table: 2972
cur table: 2872
epoch: 1000
next table: 2764
cur table: 2538
epoch: 1000
next table: 2666
cur table: 2972
epoch: 1000
next table: 2608
cur table: 2764
epoch: 1000
next table: 2746
cur table: 2608
epoch: 1000
next table: 2572
cur table: 2666
epoch: 1000
next table: 2557
cur table: 2746
epoch: 1000
next table: 2693
cur table: 2557
epoch: 1000
next table: 2641
cur table: 2572
epoch: 1000
next table: 2616
cur table: 2693
epoch: 1000
next table: 2530
cur table: 2641
epoch: 1000
next table: 2820
cur table: 2616
epoch: 1000
next table: 2543
cur table: 2820
epoch: 1000
next table: 2610
cur table: 2530
epoch: 1000
next table: 2561
cur table: 2543
epoch: 1000
next table: 2483
cur table: 2610
epoch: 1000
next table: 2730
cur table: 2561
epoch: 1000
next table: 2643
cur table: 2730
epoch: 1000
next table: 2359
cur table: 2483
epoch: 1000
next table: 2731
cur table: 2643
epoch: 1000
next table: 2477
cur table: 2359
epoch: 1000
next table: 2532
cur table: 2731
epoch: 1000
next table: 2407
cur table: 2477
epoch: 1000
next table: 2697
cur table: 2532
epoch: 1000
next table: 2657
cur table: 2697
epoch: 1000
next table: 2272
cur table: 2407
epoch: 1000
next table: 2822
cur table: 2657
epoch: 1000
next table: 2302
cur table: 2272
epoch: 1000
next table: 2511
cur table: 2822
epoch: 1000
next table: 2598
cur table: 2511
epoch: 1000
next table: 2510
cur table: 2302
epoch: 1000
next table: 2753
cur table: 2598
epoch: 1000
next table: 2267
cur table: 2510
epoch: 1000
next table: 2752
cur table: 2753
epoch: 1000
next table: 2071
cur table: 2267
epoch: 1000
next table: 2714
cur table: 2752
epoch: 1000
next table: 2170
cur table: 2071
epoch: 1000
next table: 2544
cur table: 2714
epoch: 1000
next table: 2391
cur table: 2170
epoch: 1000
next table: 2680
cur table: 2544
epoch: 1000
next table: 2661
cur table: 2680
epoch: 1000
next table: 2368
cur table: 2391
epoch: 1000
next table: 2889
cur table: 2661
epoch: 1000
next table: 2421
cur table: 2368
epoch: 1000
next table: 2531
cur table: 2889
epoch: 1000
next table: 2734
cur table: 2531
epoch: 1000
next table: 2299
cur table: 2421
epoch: 1000
next table: 2676
cur table: 2734
epoch: 1000
next table: 2198
cur table: 2299
epoch: 1000
next table: 2761
cur table: 2676
epoch: 1000
next table: 2079
cur table: 2198
epoch: 1000
next table: 2626
cur table: 2761
epoch: 1000
next table: 2221
cur table: 2079
epoch: 1000
next table: 2574
cur table: 2626
epoch: 1000
next table: 2115
cur table: 2221
epoch: 1000
next table: 2702
cur table: 2574
epoch: 1000
next table: 2051
cur table: 2115
epoch: 1000
next table: 2721
cur table: 2702
epoch: 1000
next table: 2053
cur table: 2051
epoch: 1000
next table: 2803
cur table: 2721
epoch: 1000
next table: 2529
cur table: 2803
epoch: 1000
next table: 2291
cur table: 2053
epoch: 1000
next table: 2783
cur table: 2529
epoch: 1000
next table: 2095
cur table: 2291
epoch: 1000
next table: 2639
cur table: 2783
epoch: 1000
next table: 2034
cur table: 2095
epoch: 1000
next table: 2833
cur table: 2639
epoch: 1000
next table: 2033
cur table: 2034
epoch: 1000
next table: 2570
cur table: 2833
epoch: 1000
next table: 2302
cur table: 2033
epoch: 1000
next table: 2676
cur table: 2570
epoch: 1000
next table: 2348
cur table: 2302
epoch: 1000
next table: 2761
cur table: 2676
epoch: 1000
next table: 2748
cur table: 2761
epoch: 1000
next table: 2299
cur table: 2348
epoch: 1000
next table: 2710
cur table: 2748
epoch: 1000
next table: 2302
cur table: 2299
epoch: 1000
next table: 2557
cur table: 2710
epoch: 1000
next table: 2089
cur table: 2302
epoch: 1000
next table: 2759
cur table: 2557
epoch: 1000
next table: 2085
cur table: 2089
epoch: 1000
next table: 2682
cur table: 2759
epoch: 1000
next table: 2101
cur table: 2085
epoch: 1000
next table: 2910
cur table: 2682
epoch: 1000
next table: 2552
cur table: 2910
epoch: 1000
next table: 2345
cur table: 2101
epoch: 1000
next table: 2709
cur table: 2552
epoch: 1000
next table: 2318
cur table: 2345
epoch: 1000
next table: 2626
cur table: 2709
epoch: 1000
next table: 2084
cur table: 2318
epoch: 1000
next table: 2808
cur table: 2626
epoch: 1000
next table: 2148
cur table: 2084
epoch: 1000
next table: 2650
cur table: 2808
epoch: 1000
next table: 2617
cur table: 2650
epoch: 1000
next table: 2289
cur table: 2148
epoch: 1000
next table: 2720
cur table: 2617
epoch: 1000
next table: 2002
cur table: 2289
epoch: 1000
next table: 2755
cur table: 2720
epoch: 1000
next table: 2168
cur table: 2002
epoch: 1000
next table: 2786
cur table: 2755
epoch: 1000
next table: 2201
cur table: 2168
epoch: 1000
next table: 2550
cur table: 2786
epoch: 1000
next table: 2189
cur table: 2201
epoch: 1000
next table: 2748
cur table: 2550
epoch: 1000
next table: 2088
cur table: 2189
epoch: 1000
next table: 2644
cur table: 2748
epoch: 1000
next table: 2100
cur table: 2088
epoch: 1000
next table: 2865
cur table: 2644
epoch: 1000
next table: 2072
cur table: 2100
epoch: 1000
next table: 2569
cur table: 2865
epoch: 1000
next table: 2064
cur table: 2072
epoch: 1000
next table: 2758
cur table: 2569
epoch: 1000
next table: 2802
cur table: 2758
epoch: 1000
next table: 2217
cur table: 2064
epoch: 1000
next table: 2745
cur table: 2802
epoch: 1000
next table: 2242
cur table: 2217
epoch: 1000
next table: 2712
cur table: 2745
epoch: 1000
next table: 2411
cur table: 2242
epoch: 1000
next table: 2606
cur table: 2712
epoch: 1000
next table: 2743
cur table: 2606
epoch: 1000
next table: 2204
cur table: 2411
epoch: 1000
next table: 2684
cur table: 2743
epoch: 1000
next table: 2045
cur table: 2204
epoch: 1000
next table: 2803
cur table: 2684
epoch: 1000
next table: 2041
cur table: 2045
epoch: 1000
next table: 2593
cur table: 2803
epoch: 1000
next table: 2390
cur table: 2041
epoch: 1000
next table: 2781
cur table: 2593
epoch: 1000
next table: 2315
cur table: 2390
epoch: 1000
next table: 2672
cur table: 2781
epoch: 1000
next table: 2829
cur table: 2672
epoch: 1000
next table: 2237
cur table: 2315
epoch: 1000
next table: 2622
cur table: 2829
epoch: 1000
next table: 2114
cur table: 2237
epoch: 1000
next table: 2659
cur table: 2622
epoch: 1000
next table: 2091
cur table: 2114
epoch: 1000
next table: 2796
cur table: 2659
epoch: 1000
next table: 2108
cur table: 2091
epoch: 1000
next table: 2813
cur table: 2796
epoch: 1000
next table: 2019
cur table: 2108
epoch: 1000
next table: 2713
cur table: 2813
epoch: 1000
next table: 2200
cur table: 2019
epoch: 1000
next table: 2608
cur table: 2713
epoch: 1000
next table: 2093
cur table: 2200
epoch: 1000
next table: 2756
cur table: 2608
epoch: 1000
next table: 2101
cur table: 2093
epoch: 1000
next table: 2725
cur table: 2756
epoch: 1000
next table: 2031
cur table: 2101
epoch: 1000
next table: 2873
cur table: 2725
epoch: 1000
next table: 2589
cur table: 2873
epoch: 1000
next table: 2351
cur table: 2031
epoch: 1000
next table: 2753
cur table: 2589
epoch: 1000
next table: 2237
cur table: 2351
epoch: 1000
next table: 2703
cur table: 2753
epoch: 1000
next table: 2135
cur table: 2237
epoch: 1000
next table: 2922
cur table: 2703
epoch: 1000
next table: 2029
cur table: 2135
epoch: 1000
next table: 2665
cur table: 2922
epoch: 1000
next table: 2287
cur table: 2029
epoch: 1000
next table: 2690
cur table: 2665
epoch: 1000
next table: 2824
cur table: 2690
epoch: 1000
next table: 2221
cur table: 2287
epoch: 1000
next table: 2755
cur table: 2824
epoch: 1000
next table: 2023
cur table: 2221
epoch: 1000
next table: 2769
cur table: 2755
epoch: 1000
next table: 2001
cur table: 2023
epoch: 1000
next table: 2623
cur table: 2769
epoch: 1000
next table: 2232
cur table: 2001
epoch: 1000
next table: 2756
cur table: 2623
epoch: 1000
next table: 2347
cur table: 2232
epoch: 1000
next table: 2745
cur table: 2756
epoch: 1000
next table: 2129
cur table: 2347
epoch: 1000
next table: 2907
cur table: 2745
epoch: 1000
next table: 2672
cur table: 2907
epoch: 1000
next table: 2099
cur table: 2129
epoch: 1000
next table: 2847
cur table: 2672
epoch: 1000
next table: 2071
cur table: 2099
epoch: 1000
next table: 2685
cur table: 2847
epoch: 1000
next table: 2206
cur table: 2071
epoch: 1000
next table: 2953
cur table: 2685
epoch: 1000
next table: 2061
cur table: 2206
epoch: 1000
next table: 2761
cur table: 2953
epoch: 1000
next table: 2206
cur table: 2061
epoch: 1000
next table: 2758
cur table: 2761
epoch: 1000
next table: 2038
cur table: 2206
epoch: 1000
next table: 2856
cur table: 2758
epoch: 1000
next table: 2052
cur table: 2038
epoch: 1000
next table: 2897
cur table: 2856
epoch: 1000
next table: 2045
cur table: 2052
epoch: 1000
next table: 2894
cur table: 2897
epoch: 1000
next table: 2246
cur table: 2045
epoch: 1000
next table: 2710
cur table: 2894
epoch: 1000
next table: 2879
cur table: 2710
epoch: 1000
next table: 2210
cur table: 2246
epoch: 1000
next table: 2803
cur table: 2879
epoch: 1000
next table: 2013
cur table: 2210
epoch: 1000
next table: 2951
cur table: 2803
epoch: 1000
next table: 1996
cur table: 2013
epoch: 1000
next table: 2718
cur table: 2951
epoch: 1000
next table: 2263
cur table: 1996
epoch: 1000
next table: 2928
cur table: 2718
epoch: 1000
next table: 2024
cur table: 2263
epoch: 1000
next table: 2798
cur table: 2928
epoch: 1000
next table: 2233
cur table: 2024
epoch: 1000
next table: 3017
cur table: 2798
epoch: 1000
next table: 1989
cur table: 2233
epoch: 1000
next table: 2790
cur table: 3017
epoch: 1000
next table: 2112
cur table: 1989
epoch: 1000
next table: 2805
cur table: 2790
epoch: 1000
next table: 2034
cur table: 2112
epoch: 1000
next table: 2926
cur table: 2805
epoch: 1000
next table: 2899
cur table: 2926
epoch: 1000
next table: 2303
cur table: 2034
epoch: 1000
next table: 2885
cur table: 2899
epoch: 1000
next table: 2128
cur table: 2303
epoch: 1000
next table: 2706
cur table: 2885
epoch: 1000
next table: 2049
cur table: 2128
epoch: 1000
next table: 2877
cur table: 2706
epoch: 1000
next table: 2276
cur table: 2049
epoch: 1000
next table: 2848
cur table: 2877
epoch: 1000
next table: 2096
cur table: 2276
epoch: 1000
next table: 2956
cur table: 2848
epoch: 1000
next table: 2008
cur table: 2096
epoch: 1000
next table: 2641
cur table: 2956
epoch: 1000
next table: 1998
cur table: 2008
epoch: 1000
next table: 2884
cur table: 2641
epoch: 1000
next table: 2005
cur table: 1998
epoch: 1000
next table: 2896
cur table: 2884
epoch: 1000
next table: 2117
cur table: 2005
epoch: 1000
next table: 2978
cur table: 2896
epoch: 1000
next table: 1978
cur table: 2117
epoch: 1000
next table: 2804
cur table: 2978
epoch: 1000
next table: 2754
cur table: 2804
epoch: 1000
next table: 2220
cur table: 1978
epoch: 1000
next table: 2934
cur table: 2754
epoch: 1000
next table: 2045
cur table: 2220
epoch: 1000
next table: 2915
cur table: 2934
epoch: 1000
next table: 2137
cur table: 2045
epoch: 1000
next table: 2895
cur table: 2915
epoch: 1000
next table: 2049
cur table: 2137
epoch: 1000
next table: 2692
cur table: 2895
epoch: 1000
next table: 2349
cur table: 2049
epoch: 1000
next table: 2892
cur table: 2692
epoch: 1000
next table: 2212
cur table: 2349
epoch: 1000
next table: 2826
cur table: 2892
epoch: 1000
next table: 2105
cur table: 2212
epoch: 1000
next table: 2966
cur table: 2826
epoch: 1000
next table: 2792
cur table: 2966
epoch: 1000
next table: 2127
cur table: 2105
epoch: 1000
next table: 2969
cur table: 2792
epoch: 1000
next table: 2065
cur table: 2127
epoch: 1000
next table: 2828
cur table: 2969
epoch: 1000
next table: 2147
cur table: 2065
epoch: 1000
next table: 3072
cur table: 2828
epoch: 1000
next table: 2202
cur table: 2147
epoch: 1000
next table: 2944
cur table: 3072
epoch: 1000
next table: 2345
cur table: 2202
epoch: 1000
next table: 2961
cur table: 2944
epoch: 1000
next table: 2019
cur table: 2345
epoch: 1000
next table: 2586
cur table: 2961
epoch: 1000
next table: 2012
cur table: 2019
epoch: 1000
next table: 2630
cur table: 2586
epoch: 1000
next table: 2030
cur table: 2012
epoch: 1000
next table: 2770
cur table: 2630
epoch: 1000
next table: 2571
cur table: 2770
epoch: 1000
next table: 2353
cur table: 2030
epoch: 1000
next table: 2611
cur table: 2571
epoch: 1000
next table: 2343
cur table: 2353
epoch: 1000
next table: 2832
cur table: 2611
epoch: 1000
next table: 2019
cur table: 2343
epoch: 1000
next table: 2703
cur table: 2832
epoch: 1000
next table: 2001
cur table: 2019
epoch: 1000
next table: 2832
cur table: 2703
epoch: 1000
next table: 2230
cur table: 2001
epoch: 1000
next table: 2546
cur table: 2832
epoch: 1000
next table: 2815
cur table: 2546
epoch: 1000
next table: 2336
cur table: 2230
epoch: 1000
next table: 2685
cur table: 2815
epoch: 1000
next table: 2332
cur table: 2336
epoch: 1000
next table: 2847
cur table: 2685
epoch: 1000
next table: 2159
cur table: 2332
epoch: 1000
next table: 2605
cur table: 2847
epoch: 1000
next table: 2145
cur table: 2159
epoch: 1000
next table: 2651
cur table: 2605
epoch: 1000
next table: 2013
cur table: 2145
epoch: 1000
next table: 2824
cur table: 2651
epoch: 1000
next table: 2011
cur table: 2013
epoch: 1000
next table: 2791
cur table: 2824
epoch: 1000
next table: 2702
cur table: 2791
epoch: 1000
next table: 2316
cur table: 2011
epoch: 1000
next table: 2585
cur table: 2702
epoch: 1000
next table: 2373
cur table: 2316
epoch: 1000
next table: 2795
cur table: 2585
epoch: 1000
next table: 2154
cur table: 2373
epoch: 1000
next table: 2675
cur table: 2795
epoch: 1000
next table: 2048
cur table: 2154
epoch: 1000
next table: 3020
cur table: 2675
epoch: 1000
next table: 2105
cur table: 2048
epoch: 1000
next table: 2574
cur table: 3020
epoch: 1000
next table: 2123
cur table: 2105
epoch: 1000
next table: 2800
cur table: 2574
epoch: 1000
next table: 2740
cur table: 2800
epoch: 1000
next table: 2343
cur table: 2123
epoch: 1000
next table: 2955
cur table: 2740
epoch: 1000
next table: 2280
cur table: 2343
epoch: 1000
next table: 2750
cur table: 2955
epoch: 1000
next table: 2256
cur table: 2280
epoch: 1000
next table: 2832
cur table: 2750
epoch: 1000
next table: 2055
cur table: 2256
epoch: 1000
next table: 2911
cur table: 2832
epoch: 1000
next table: 2047
cur table: 2055
epoch: 1000
next table: 2801
cur table: 2911
epoch: 1000
next table: 2901
cur table: 2801
epoch: 1000
next table: 2110
cur table: 2047
epoch: 1000
next table: 2559
cur table: 2901
epoch: 1000
next table: 2411
cur table: 2110
epoch: 1000
next table: 2915
cur table: 2559
epoch: 1000
next table: 2044
cur table: 2411
epoch: 1000
next table: 2746
cur table: 2915
epoch: 1000
next table: 2031
cur table: 2044
epoch: 1000
next table: 3040
cur table: 2746
epoch: 1000
next table: 2059
cur table: 2031
epoch: 1000
next table: 2897
cur table: 3040
epoch: 1000
next table: 2060
cur table: 2059
epoch: 1000
next table: 2841
cur table: 2897
epoch: 1000
next table: 2263
cur table: 2060
epoch: 1000
next table: 2746
cur table: 2841
epoch: 1000
next table: 2686
cur table: 2746
epoch: 1000
next table: 2249
cur table: 2263
epoch: 1000
next table: 2829
cur table: 2686
epoch: 1000
next table: 2012
cur table: 2249
epoch: 1000
next table: 2543
cur table: 2829
epoch: 1000
next table: 2383
cur table: 2012
epoch: 1000
next table: 2601
cur table: 2543
epoch: 1000
next table: 2231
cur table: 2383
epoch: 1000
next table: 2743
cur table: 2601
epoch: 1000
next table: 2041
cur table: 2231
epoch: 1000
next table: 2711
cur table: 2743
epoch: 1000
next table: 2006
cur table: 2041
epoch: 1000
next table: 2752
cur table: 2711
epoch: 1000
next table: 2605
cur table: 2752
epoch: 1000
next table: 2243
cur table: 2006
epoch: 1000
next table: 2749
cur table: 2605
epoch: 1000
next table: 2340
cur table: 2243
epoch: 1000
next table: 2723
cur table: 2749
epoch: 1000
next table: 2172
cur table: 2340
epoch: 1000
next table: 2844
cur table: 2723
epoch: 1000
next table: 2031
cur table: 2172
epoch: 1000
next table: 2535
cur table: 2844
epoch: 1000
next table: 2131
cur table: 2031
epoch: 1000
next table: 2754
cur table: 2535
epoch: 1000
next table: 2117
cur table: 2131
epoch: 1000
next table: 2700
cur table: 2754
epoch: 1000
next table: 2863
cur table: 2700
epoch: 1000
next table: 2275
cur table: 2117
epoch: 1000
next table: 2597
cur table: 2863
epoch: 1000
next table: 2199
cur table: 2275
epoch: 1000
next table: 2673
cur table: 2597
epoch: 1000
next table: 2075
cur table: 2199
epoch: 1000
next table: 2813
cur table: 2673
epoch: 1000
next table: 2046
cur table: 2075
epoch: 1000
next table: 2773
cur table: 2813
epoch: 1000
next table: 2006
cur table: 2046
epoch: 1000
next table: 2770
cur table: 2773
epoch: 1000
next table: 2239
cur table: 2006
epoch: 1000
next table: 2594
cur table: 2770
epoch: 1000
next table: 2722
cur table: 2594
epoch: 1000
next table: 2309
cur table: 2239
epoch: 1000
next table: 2714
cur table: 2722
epoch: 1000
next table: 2253
cur table: 2309
epoch: 1000
next table: 2868
cur table: 2714
epoch: 1000
next table: 2039
cur table: 2253
epoch: 1000
next table: 2586
cur table: 2868
epoch: 1000
next table: 2143
cur table: 2039
epoch: 1000
next table: 2779
cur table: 2586
epoch: 1000
next table: 2170
cur table: 2143
epoch: 1000
next table: 2644
cur table: 2779
epoch: 1000
next table: 2086
cur table: 2170
epoch: 1000
next table: 2845
cur table: 2644
epoch: 1000
next table: 2028
cur table: 2086
epoch: 1000
next table: 2611
cur table: 2845
epoch: 1000
next table: 2166
cur table: 2028
epoch: 1000
next table: 2560
cur table: 2611
epoch: 1000
next table: 2684
cur table: 2560
epoch: 1000
next table: 2093
cur table: 2166
epoch: 1000
next table: 2746
cur table: 2684
epoch: 1000
next table: 2219
cur table: 2093
epoch: 1000
next table: 2844
cur table: 2746
epoch: 1000
next table: 2227
cur table: 2219
epoch: 1000
next table: 2578
cur table: 2844
epoch: 1000
next table: 2202
cur table: 2227
epoch: 1000
next table: 2723
cur table: 2578
epoch: 1000
next table: 2001
cur table: 2202
epoch: 1000
next table: 2755
cur table: 2723
epoch: 1000
next table: 2014
cur table: 2001
epoch: 1000
next table: 2881
cur table: 2755
epoch: 1000
next table: 2046
cur table: 2014
epoch: 1000
next table: 2679
cur table: 2881
epoch: 1000
next table: 2625
cur table: 2679
epoch: 1000
next table: 2349
cur table: 2046
epoch: 1000
next table: 2787
cur table: 2625
epoch: 1000
next table: 2250
cur table: 2349
epoch: 1000
next table: 2770
cur table: 2787
epoch: 1000
next table: 2095
cur table: 2250
epoch: 1000
next table: 2752
cur table: 2770
epoch: 1000
next table: 2267
cur table: 2095
epoch: 1000
next table: 2648
cur table: 2752
epoch: 1000
next table: 2149
cur table: 2267
epoch: 1000
next table: 2718
cur table: 2648
epoch: 1000
next table: 2021
cur table: 2149
epoch: 1000
next table: 2742
cur table: 2718
epoch: 1000
next table: 1972
cur table: 2021
epoch: 1000
next table: 2913
cur table: 2742
epoch: 1000
next table: 2599
cur table: 2913
epoch: 1000
next table: 2295
cur table: 1972
epoch: 1000
next table: 2771
cur table: 2599
epoch: 1000
next table: 2320
cur table: 2295
epoch: 1000
next table: 2719
cur table: 2771
epoch: 1000
next table: 2301
cur table: 2320
epoch: 1000
next table: 2961
cur table: 2719
epoch: 1000
next table: 2620
cur table: 2961
epoch: 1000
next table: 2203
cur table: 2301
epoch: 1000
next table: 2716
cur table: 2620
epoch: 1000
next table: 2086
cur table: 2203
epoch: 1000
next table: 2782
cur table: 2716
epoch: 1000
next table: 2132
cur table: 2086
epoch: 1000
next table: 2833
cur table: 2782
epoch: 1000
next table: 1982
cur table: 2132
epoch: 1000
next table: 2662
cur table: 2833
epoch: 1000
next table: 2256
cur table: 1982
epoch: 1000
next table: 2655
cur table: 2662
epoch: 1000
next table: 2231
cur table: 2256
epoch: 1000
next table: 2779
cur table: 2655
epoch: 1000
next table: 2112
cur table: 2231
epoch: 1000
next table: 2758
cur table: 2779
epoch: 1000
next table: 2011
cur table: 2112
epoch: 1000
next table: 2769
cur table: 2758
epoch: 1000
next table: 2638
cur table: 2769
epoch: 1000
next table: 2074
cur table: 2011
epoch: 1000
next table: 2710
cur table: 2638
epoch: 1000
next table: 2026
cur table: 2074
epoch: 1000
next table: 2753
cur table: 2710
epoch: 1000
next table: 2136
cur table: 2026
epoch: 1000
next table: 2820
cur table: 2753
epoch: 1000
next table: 2299
cur table: 2136
epoch: 1000
next table: 2585
cur table: 2820
epoch: 1000
next table: 2291
cur table: 2299
epoch: 1000
next table: 2776
cur table: 2585
epoch: 1000
next table: 2001
cur table: 2291
epoch: 1000
next table: 2701
cur table: 2776
epoch: 1000
next table: 2031
cur table: 2001
epoch: 1000
next table: 2862
cur table: 2701
epoch: 1000
next table: 2614
cur table: 2862
epoch: 1000
next table: 2191
cur table: 2031
epoch: 1000
next table: 2702
cur table: 2614
epoch: 1000
next table: 2339
cur table: 2191
epoch: 1000
next table: 2786
cur table: 2702
epoch: 1000
next table: 2275
cur table: 2339
epoch: 1000
next table: 2673
cur table: 2786
epoch: 1000
next table: 2134
cur table: 2275
epoch: 1000
next table: 2965
cur table: 2673
epoch: 1000
next table: 2190
cur table: 2134
epoch: 1000
next table: 2779
cur table: 2965
epoch: 1000
next table: 3027
cur table: 2779
epoch: 1000
next table: 2121
cur table: 2190
epoch: 1000
next table: 2883
cur table: 3027
epoch: 1000
next table: 2040
cur table: 2121
epoch: 1000
next table: 2694
cur table: 2883
epoch: 1000
next table: 2050
cur table: 2040
epoch: 1000
next table: 2713
cur table: 2694
epoch: 1000
next table: 2143
cur table: 2050
epoch: 1000
next table: 2622
cur table: 2713
epoch: 1000
next table: 2435
cur table: 2143
epoch: 1000
next table: 2647
cur table: 2622
epoch: 1000
next table: 2184
cur table: 2435
epoch: 1000
next table: 2737
cur table: 2647
epoch: 1000
next table: 2563
cur table: 2737
epoch: 1000
next table: 2106
cur table: 2184
epoch: 1000
next table: 2777
cur table: 2563
epoch: 1000
next table: 2040
cur table: 2106
epoch: 1000
next table: 2544
cur table: 2777
epoch: 1000
next table: 1983
cur table: 2040
epoch: 1000
next table: 2557
cur table: 2544
epoch: 1000
next table: 2200
cur table: 1983
epoch: 1000
next table: 2613
cur table: 2557
epoch: 1000
next table: 2083
cur table: 2200
epoch: 1000
next table: 2844
cur table: 2613
epoch: 1000
next table: 2009
cur table: 2083
epoch: 1000
next table: 3104
cur table: 2844
epoch: 1000
next table: 1913
cur table: 2009
epoch: 1000
next table: 2572
cur table: 3104
epoch: 1000
next table: 2021
cur table: 1913
epoch: 1000
next table: 2460
cur table: 2572
epoch: 1000
next table: 2228
cur table: 2021
epoch: 1000
next table: 2678
cur table: 2460
epoch: 1000
next table: 2136
cur table: 2228
epoch: 1000
next table: 2591
cur table: 2678
epoch: 1000
next table: 2194
cur table: 2136
epoch: 1000
next table: 2744
cur table: 2591
epoch: 1000
next table: 2652
cur table: 2744
epoch: 1000
next table: 2186
cur table: 2194
epoch: 1000
next table: 2502
cur table: 2652
epoch: 1000
next table: 2343
cur table: 2186
epoch: 1000
next table: 2737
cur table: 2502
epoch: 1000
next table: 2195
cur table: 2343
epoch: 1000
next table: 2618
cur table: 2737
epoch: 1000
next table: 2126
cur table: 2195
epoch: 1000
next table: 2850
cur table: 2618
epoch: 1000
next table: 2103
cur table: 2126
epoch: 1000
next table: 2712
cur table: 2850
epoch: 1000
next table: 2614
cur table: 2712
epoch: 1000
next table: 2574
cur table: 2103
epoch: 1000
next table: 2804
cur table: 2614
epoch: 1000
next table: 2445
cur table: 2574
epoch: 1000
next table: 2677
cur table: 2804
epoch: 1000
next table: 2883
cur table: 2677
epoch: 1000
next table: 2327
cur table: 2445
epoch: 1000
next table: 2563
cur table: 2883
epoch: 1000
next table: 2162
cur table: 2327
epoch: 1000
next table: 2613
cur table: 2563
epoch: 1000
next table: 2324
cur table: 2162
epoch: 1000
next table: 2722
cur table: 2613
epoch: 1000
next table: 2163
cur table: 2324
epoch: 1000
next table: 2822
cur table: 2722
epoch: 1000
next table: 1743
cur table: 2163
epoch: 1000
next table: 2901
cur table: 2822
epoch: 1000
next table: 1776
cur table: 1743
epoch: 1000
next table: 2571
cur table: 2901
epoch: 1000
next table: 1797
cur table: 1776
epoch: 1000
next table: 1744
cur table: 1797
epoch: 1000
next table: 2725
cur table: 2571
epoch: 1000
next table: 1695
cur table: 1744
epoch: 1000
next table: 2776
cur table: 2725
epoch: 1000
next table: 1742
cur table: 1695
epoch: 1000
next table: 2930
cur table: 2776
epoch: 1000
next table: 1815
cur table: 1742
epoch: 1000
next table: 1767
cur table: 1815
epoch: 1000
next table: 2843
cur table: 2930
epoch: 1000
next table: 1766
cur table: 1767
epoch: 1000
next table: 2553
cur table: 2843
epoch: 1000
next table: 1771
cur table: 1766
epoch: 1000
next table: 2733
cur table: 2553
epoch: 1000
next table: 1761
cur table: 1771
epoch: 1000
next table: 2662
cur table: 2733
epoch: 1000
next table: 2066
cur table: 1761
epoch: 1000
next table: 2890
cur table: 2662
epoch: 1000
next table: 2060
cur table: 2066
epoch: 1000
next table: 2652
cur table: 2890
epoch: 1000
next table: 2073
cur table: 2060
epoch: 1000
next table: 2573
cur table: 2652
epoch: 1000
next table: 2060
cur table: 2073
epoch: 1000
next table: 2696
cur table: 2573
epoch: 1000
next table: 2050
cur table: 2060
epoch: 1000
next table: 2712
cur table: 2696
epoch: 1000
next table: 2047
cur table: 2050
epoch: 1000
next table: 2958
cur table: 2712
epoch: 1000
next table: 2043
cur table: 2047
epoch: 1000
next table: 2534
cur table: 2958
epoch: 1000
next table: 2235
cur table: 2043
epoch: 1000
next table: 2819
cur table: 2534
epoch: 1000
next table: 2824
cur table: 2819
epoch: 1000
next table: 2324
cur table: 2235
epoch: 1000
next table: 2850
cur table: 2824
epoch: 1000
next table: 2313
cur table: 2324
epoch: 1000
next table: 2642
cur table: 2850
epoch: 1000
next table: 1875
cur table: 2313
epoch: 1000
next table: 2632
cur table: 2642
epoch: 1000
next table: 1879
cur table: 1875
epoch: 1000
next table: 2773
cur table: 2632
epoch: 1000
next table: 1835
cur table: 1879
epoch: 1000
next table: 2714
cur table: 2773
epoch: 1000
next table: 2000
cur table: 1835
epoch: 1000
next table: 2832
cur table: 2714
epoch: 1000
next table: 2139
cur table: 2000
epoch: 1000
next table: 2555
cur table: 2832
epoch: 1000
next table: 2490
cur table: 2139
epoch: 1000
next table: 2688
cur table: 2555
epoch: 1000
next table: 2150
cur table: 2490
epoch: 1000
next table: 2661
cur table: 2688
epoch: 1000
next table: 2797
cur table: 2661
epoch: 1000
next table: 2106
cur table: 2150
Heartbeat CPU 0 instructions: 10000003 cycles: 2828639 heartbeat IPC: 3.53527 cumulative IPC: 3.53527 (Simulation time: 0 hr 3 min 8 sec) 
epoch: 1000
next table: 1908
cur table: 2106
epoch: 1000
next table: 2722
cur table: 2797
epoch: 1000
next table: 1947
cur table: 1908
epoch: 1000
next table: 2644
cur table: 2722
epoch: 1000
next table: 1950
cur table: 1947
epoch: 1000
next table: 2797
cur table: 2644
epoch: 1000
next table: 1905
cur table: 1950
epoch: 1000
next table: 2597
cur table: 2797
epoch: 1000
next table: 1730
cur table: 1905
epoch: 1000
next table: 2889
cur table: 2597
epoch: 1000
next table: 1646
cur table: 1730
epoch: 1000
next table: 1700
cur table: 1646
epoch: 1000
next table: 2850
cur table: 2889
epoch: 1000
next table: 1735
cur table: 1700
epoch: 1000
next table: 2578
cur table: 2850
epoch: 1000
next table: 1702
cur table: 1735
epoch: 1000
next table: 1667
cur table: 1702
epoch: 1000
next table: 2852
cur table: 2578
epoch: 1000
next table: 1642
cur table: 1667
epoch: 1000
next table: 2904
cur table: 2852
epoch: 1000
next table: 1694
cur table: 1642
epoch: 1000
next table: 1641
cur table: 1694
epoch: 1000
next table: 3236
cur table: 2904
epoch: 1000
next table: 1767
cur table: 1641
epoch: 1000
next table: 2717
cur table: 3236
epoch: 1000
next table: 1871
cur table: 1767
epoch: 1000
next table: 2631
cur table: 2717
epoch: 1000
next table: 1812
cur table: 1871
epoch: 1000
next table: 2765
cur table: 2631
epoch: 1000
next table: 1826
cur table: 1812
epoch: 1000
next table: 2655
cur table: 2765
epoch: 1000
next table: 1884
cur table: 1826
epoch: 1000
next table: 1871
cur table: 1884
epoch: 1000
next table: 2725
cur table: 2655
epoch: 1000
next table: 2510
cur table: 2725
epoch: 1000
next table: 2180
cur table: 1871
epoch: 1000
next table: 2733
cur table: 2510
epoch: 1000
next table: 2153
cur table: 2180
epoch: 1000
next table: 2731
cur table: 2733
epoch: 1000
next table: 2093
cur table: 2153
epoch: 1000
next table: 2616
cur table: 2731
epoch: 1000
next table: 2042
cur table: 2093
epoch: 1000
next table: 2798
cur table: 2616
epoch: 1000
next table: 1990
cur table: 2042
epoch: 1000
next table: 2519
cur table: 2798
epoch: 1000
next table: 2331
cur table: 1990
epoch: 1000
next table: 2685
cur table: 2519
epoch: 1000
next table: 2164
cur table: 2331
epoch: 1000
next table: 2729
cur table: 2685
epoch: 1000
next table: 2101
cur table: 2164
epoch: 1000
next table: 2758
cur table: 2729
epoch: 1000
next table: 2661
cur table: 2758
epoch: 1000
next table: 2044
cur table: 2101
epoch: 1000
next table: 2541
cur table: 2661
epoch: 1000
next table: 2241
cur table: 2044
epoch: 1000
next table: 2726
cur table: 2541
epoch: 1000
next table: 2129
cur table: 2241
epoch: 1000
next table: 2696
cur table: 2726
epoch: 1000
next table: 2122
cur table: 2129
epoch: 1000
next table: 2800
cur table: 2696
epoch: 1000
next table: 2185
cur table: 2122
epoch: 1000
next table: 2623
cur table: 2800
epoch: 1000
next table: 2566
cur table: 2623
epoch: 1000
next table: 2346
cur table: 2185
epoch: 1000
next table: 2762
cur table: 2566
epoch: 1000
next table: 2075
cur table: 2346
epoch: 1000
next table: 2707
cur table: 2762
epoch: 1000
next table: 2063
cur table: 2075
epoch: 1000
next table: 2756
cur table: 2707
epoch: 1000
next table: 2697
cur table: 2063
epoch: 1000
next table: 2535
cur table: 2756
epoch: 1000
next table: 2713
cur table: 2535
epoch: 1000
next table: 2649
cur table: 2713
epoch: 1000
next table: 2871
cur table: 2649
epoch: 1000
next table: 4734
cur table: 2697
epoch: 1000
next table: 2641
cur table: 2871
epoch: 1000
next table: 2681
cur table: 2641
epoch: 1000
next table: 2814
cur table: 2681
epoch: 1000
next table: 3979
cur table: 4734
epoch: 1000
next table: 2882
cur table: 2814
epoch: 1000
next table: 2315
cur table: 3979
epoch: 1000
next table: 2756
cur table: 2882
epoch: 1000
next table: 2663
cur table: 2756
epoch: 1000
next table: 2465
cur table: 2315
epoch: 1000
next table: 2744
cur table: 2663
epoch: 1000
next table: 2423
cur table: 2465
epoch: 1000
next table: 2770
cur table: 2744
epoch: 1000
next table: 2868
cur table: 2770
epoch: 1000
next table: 2289
cur table: 2423
epoch: 1000
next table: 2615
cur table: 2868
epoch: 1000
next table: 2527
cur table: 2289
epoch: 1000
next table: 2770
cur table: 2615
epoch: 1000
next table: 2639
cur table: 2770
epoch: 1000
next table: 2363
cur table: 2527
epoch: 1000
next table: 2844
cur table: 2639
epoch: 1000
next table: 2208
cur table: 2363
epoch: 1000
next table: 2613
cur table: 2844
epoch: 1000
next table: 1925
cur table: 2208
epoch: 1000
next table: 2523
cur table: 2613
epoch: 1000
next table: 1980
cur table: 1925
epoch: 1000
next table: 2588
cur table: 2523
epoch: 1000
next table: 1824
cur table: 1980
epoch: 1000
next table: 1823
cur table: 1824
epoch: 1000
next table: 2624
cur table: 2588
epoch: 1000
next table: 1842
cur table: 1823
epoch: 1000
next table: 2779
cur table: 2624
epoch: 1000
next table: 1755
cur table: 1842
epoch: 1000
next table: 2552
cur table: 2779
epoch: 1000
next table: 1701
cur table: 1755
epoch: 1000
next table: 1697
cur table: 1701
epoch: 1000
next table: 2545
cur table: 2552
epoch: 1000
next table: 1649
cur table: 1697
epoch: 1000
next table: 2722
cur table: 2545
epoch: 1000
next table: 1740
cur table: 1649
epoch: 1000
next table: 2679
cur table: 2722
epoch: 1000
next table: 1816
cur table: 1740
epoch: 1000
next table: 2777
cur table: 2679
epoch: 1000
next table: 1790
cur table: 1816
epoch: 1000
next table: 1830
cur table: 1790
epoch: 1000
next table: 2537
cur table: 2777
epoch: 1000
next table: 1801
cur table: 1830
epoch: 1000
next table: 2719
cur table: 2537
epoch: 1000
next table: 1803
cur table: 1801
epoch: 1000
next table: 2696
cur table: 2719
epoch: 1000
next table: 1994
cur table: 1803
epoch: 1000
next table: 2840
cur table: 2696
epoch: 1000
next table: 1976
cur table: 1994
epoch: 1000
next table: 2619
cur table: 2840
epoch: 1000
next table: 2010
cur table: 1976
epoch: 1000
next table: 2649
cur table: 2619
epoch: 1000
next table: 1958
cur table: 2010
epoch: 1000
next table: 2769
cur table: 2649
epoch: 1000
next table: 1977
cur table: 1958
epoch: 1000
next table: 2803
cur table: 2769
epoch: 1000
next table: 1983
cur table: 1977
epoch: 1000
next table: 2688
cur table: 2803
epoch: 1000
next table: 2305
cur table: 1983
epoch: 1000
next table: 2598
cur table: 2688
epoch: 1000
next table: 2143
cur table: 2305
epoch: 1000
next table: 2763
cur table: 2598
epoch: 1000
next table: 1988
cur table: 2143
epoch: 1000
next table: 2735
cur table: 2763
epoch: 1000
next table: 1999
cur table: 1988
epoch: 1000
next table: 2846
cur table: 2735
epoch: 1000
next table: 2564
cur table: 2846
epoch: 1000
next table: 2085
cur table: 1999
epoch: 1000
next table: 2746
cur table: 2564
epoch: 1000
next table: 2165
cur table: 2085
epoch: 1000
next table: 2702
cur table: 2746
epoch: 1000
next table: 2080
cur table: 2165
epoch: 1000
next table: 2897
cur table: 2702
epoch: 1000
next table: 1979
cur table: 2080
epoch: 1000
next table: 2571
cur table: 2897
epoch: 1000
next table: 2139
cur table: 1979
epoch: 1000
next table: 2762
cur table: 2571
epoch: 1000
next table: 2080
cur table: 2139
epoch: 1000
next table: 2669
cur table: 2762
epoch: 1000
next table: 2214
cur table: 2080
epoch: 1000
next table: 2898
cur table: 2669
epoch: 1000
next table: 2115
cur table: 2214
epoch: 1000
next table: 2664
cur table: 2898
epoch: 1000
next table: 2039
cur table: 2115
epoch: 1000
next table: 2648
cur table: 2664
epoch: 1000
next table: 2814
cur table: 2648
epoch: 1000
next table: 2083
cur table: 2039
epoch: 1000
next table: 2831
cur table: 2814
epoch: 1000
next table: 2095
cur table: 2083
epoch: 1000
next table: 2759
cur table: 2831
epoch: 1000
next table: 2038
cur table: 2095
epoch: 1000
next table: 2595
cur table: 2759
epoch: 1000
next table: 2016
cur table: 2038
epoch: 1000
next table: 2797
cur table: 2595
epoch: 1000
next table: 1988
cur table: 2016
epoch: 1000
next table: 2772
cur table: 2797
epoch: 1000
next table: 2213
cur table: 1988
epoch: 1000
next table: 2829
cur table: 2772
epoch: 1000
next table: 2361
cur table: 2213
epoch: 1000
next table: 2608
cur table: 2829
epoch: 1000
next table: 2064
cur table: 2361
epoch: 1000
next table: 2743
cur table: 2608
epoch: 1000
next table: 2078
cur table: 2064
epoch: 1000
next table: 2720
cur table: 2743
epoch: 1000
next table: 2890
cur table: 2720
epoch: 1000
next table: 2252
cur table: 2078
epoch: 1000
next table: 2612
cur table: 2890
epoch: 1000
next table: 2390
cur table: 2252
epoch: 1000
next table: 2760
cur table: 2612
epoch: 1000
next table: 2302
cur table: 2390
epoch: 1000
next table: 2701
cur table: 2760
epoch: 1000
next table: 2875
cur table: 2701
epoch: 1000
next table: 2185
cur table: 2302
epoch: 1000
next table: 2648
cur table: 2875
epoch: 1000
next table: 2108
cur table: 2185
epoch: 1000
next table: 2715
cur table: 2648
epoch: 1000
next table: 2134
cur table: 2108
epoch: 1000
next table: 2741
cur table: 2715
epoch: 1000
next table: 2219
cur table: 2134
epoch: 1000
next table: 2826
cur table: 2741
epoch: 1000
next table: 2027
cur table: 2219
epoch: 1000
next table: 2673
cur table: 2826
epoch: 1000
next table: 2087
cur table: 2027
epoch: 1000
next table: 2654
cur table: 2673
epoch: 1000
next table: 2039
cur table: 2087
epoch: 1000
next table: 2809
cur table: 2654
epoch: 1000
next table: 2080
cur table: 2039
epoch: 1000
next table: 2806
cur table: 2809
epoch: 1000
next table: 2756
cur table: 2806
epoch: 1000
next table: 2184
cur table: 2080
epoch: 1000
next table: 2633
cur table: 2756
epoch: 1000
next table: 2144
cur table: 2184
epoch: 1000
next table: 2786
cur table: 2633
epoch: 1000
next table: 2001
cur table: 2144
epoch: 1000
next table: 2755
cur table: 2786
epoch: 1000
next table: 2221
cur table: 2001
epoch: 1000
next table: 2852
cur table: 2755
epoch: 1000
next table: 2142
cur table: 2221
epoch: 1000
next table: 2577
cur table: 2852
epoch: 1000
next table: 2001
cur table: 2142
epoch: 1000
next table: 2782
cur table: 2577
epoch: 1000
next table: 2143
cur table: 2001
epoch: 1000
next table: 2756
cur table: 2782
epoch: 1000
next table: 2185
cur table: 2143
epoch: 1000
next table: 2905
cur table: 2756
epoch: 1000
next table: 2632
cur table: 2905
epoch: 1000
next table: 2389
cur table: 2185
epoch: 1000
next table: 2792
cur table: 2632
epoch: 1000
next table: 2112
cur table: 2389
epoch: 1000
next table: 2680
cur table: 2792
epoch: 1000
next table: 2095
cur table: 2112
epoch: 1000
next table: 2906
cur table: 2680
epoch: 1000
next table: 2133
cur table: 2095
epoch: 1000
next table: 2652
cur table: 2906
epoch: 1000
next table: 2137
cur table: 2133
epoch: 1000
next table: 2724
cur table: 2652
epoch: 1000
next table: 2048
cur table: 2137
epoch: 1000
next table: 2740
cur table: 2724
epoch: 1000
next table: 2874
cur table: 2740
epoch: 1000
next table: 2015
cur table: 2048
epoch: 1000
next table: 2675
cur table: 2874
epoch: 1000
next table: 2110
cur table: 2015
epoch: 1000
next table: 2662
cur table: 2675
epoch: 1000
next table: 2284
cur table: 2110
epoch: 1000
next table: 2811
cur table: 2662
epoch: 1000
next table: 2299
cur table: 2284
epoch: 1000
next table: 2803
cur table: 2811
epoch: 1000
next table: 2031
cur table: 2299
epoch: 1000
next table: 2765
cur table: 2803
epoch: 1000
next table: 2160
cur table: 2031
epoch: 1000
next table: 2659
cur table: 2765
epoch: 1000
next table: 2821
cur table: 2659
epoch: 1000
next table: 2224
cur table: 2160
epoch: 1000
next table: 2753
cur table: 2821
epoch: 1000
next table: 2079
cur table: 2224
epoch: 1000
next table: 2801
cur table: 2753
epoch: 1000
next table: 2196
cur table: 2079
epoch: 1000
next table: 2651
cur table: 2801
epoch: 1000
next table: 2168
cur table: 2196
epoch: 1000
next table: 2753
cur table: 2651
epoch: 1000
next table: 2096
cur table: 2168
epoch: 1000
next table: 2721
cur table: 2753
epoch: 1000
next table: 2173
cur table: 2096
epoch: 1000
next table: 2881
cur table: 2721
epoch: 1000
next table: 2664
cur table: 2881
epoch: 1000
next table: 2320
cur table: 2173
epoch: 1000
next table: 2751
cur table: 2664
epoch: 1000
next table: 2308
cur table: 2320
epoch: 1000
next table: 2734
cur table: 2751
epoch: 1000
next table: 2137
cur table: 2308
epoch: 1000
next table: 2909
cur table: 2734
epoch: 1000
next table: 2078
cur table: 2137
epoch: 1000
next table: 2649
cur table: 2909
epoch: 1000
next table: 2101
cur table: 2078
epoch: 1000
next table: 2788
cur table: 2649
epoch: 1000
next table: 2045
cur table: 2101
epoch: 1000
next table: 2673
cur table: 2788
epoch: 1000
next table: 2938
cur table: 2673
epoch: 1000
next table: 2098
cur table: 2045
epoch: 1000
next table: 2657
cur table: 2938
epoch: 1000
next table: 2265
cur table: 2098
epoch: 1000
next table: 2770
cur table: 2657
epoch: 1000
next table: 2249
cur table: 2265
epoch: 1000
next table: 2730
cur table: 2770
epoch: 1000
next table: 2108
cur table: 2249
epoch: 1000
next table: 2904
cur table: 2730
epoch: 1000
next table: 2023
cur table: 2108
epoch: 1000
next table: 2706
cur table: 2904
epoch: 1000
next table: 2186
cur table: 2023
epoch: 1000
next table: 2731
cur table: 2706
epoch: 1000
next table: 2809
cur table: 2731
epoch: 1000
next table: 2218
cur table: 2186
epoch: 1000
next table: 2844
cur table: 2809
epoch: 1000
next table: 2170
cur table: 2218
epoch: 1000
next table: 2749
cur table: 2844
epoch: 1000
next table: 2044
cur table: 2170
epoch: 1000
next table: 2703
cur table: 2749
epoch: 1000
next table: 2083
cur table: 2044
epoch: 1000
next table: 2802
cur table: 2703
epoch: 1000
next table: 2287
cur table: 2083
epoch: 1000
next table: 2820
cur table: 2802
epoch: 1000
next table: 2790
cur table: 2820
epoch: 1000
next table: 2272
cur table: 2287
epoch: 1000
next table: 2631
cur table: 2790
epoch: 1000
next table: 2189
cur table: 2272
epoch: 1000
next table: 2813
cur table: 2631
epoch: 1000
next table: 2079
cur table: 2189
epoch: 1000
next table: 2764
cur table: 2813
epoch: 1000
next table: 2014
cur table: 2079
epoch: 1000
next table: 2869
cur table: 2764
epoch: 1000
next table: 2070
cur table: 2014
epoch: 1000
next table: 2677
cur table: 2869
epoch: 1000
next table: 2017
cur table: 2070
epoch: 1000
next table: 2764
cur table: 2677
epoch: 1000
next table: 2278
cur table: 2017
epoch: 1000
next table: 2808
cur table: 2764
epoch: 1000
next table: 2884
cur table: 2808
epoch: 1000
next table: 2161
cur table: 2278
epoch: 1000
next table: 2669
cur table: 2884
epoch: 1000
next table: 2324
cur table: 2161
epoch: 1000
next table: 2782
cur table: 2669
epoch: 1000
next table: 2280
cur table: 2324
epoch: 1000
next table: 2709
cur table: 2782
epoch: 1000
next table: 2148
cur table: 2280
epoch: 1000
next table: 2908
cur table: 2709
epoch: 1000
next table: 2677
cur table: 2908
epoch: 1000
next table: 2210
cur table: 2148
epoch: 1000
next table: 2795
cur table: 2677
epoch: 1000
next table: 2271
cur table: 2210
epoch: 1000
next table: 2734
cur table: 2795
epoch: 1000
next table: 2027
cur table: 2271
epoch: 1000
next table: 2938
cur table: 2734
epoch: 1000
next table: 2010
cur table: 2027
epoch: 1000
next table: 2671
cur table: 2938
epoch: 1000
next table: 2210
cur table: 2010
epoch: 1000
next table: 2811
cur table: 2671
epoch: 1000
next table: 2275
cur table: 2210
epoch: 1000
next table: 2744
cur table: 2811
epoch: 1000
next table: 2903
cur table: 2744
epoch: 1000
next table: 2190
cur table: 2275
epoch: 1000
next table: 2720
cur table: 2903
epoch: 1000
next table: 2055
cur table: 2190
epoch: 1000
next table: 2723
cur table: 2720
epoch: 1000
next table: 2040
cur table: 2055
epoch: 1000
next table: 2808
cur table: 2723
epoch: 1000
next table: 2020
cur table: 2040
epoch: 1000
next table: 2873
cur table: 2808
epoch: 1000
next table: 2078
cur table: 2020
epoch: 1000
next table: 2734
cur table: 2873
epoch: 1000
next table: 2319
cur table: 2078
epoch: 1000
next table: 2729
cur table: 2734
epoch: 1000
next table: 2221
cur table: 2319
epoch: 1000
next table: 2818
cur table: 2729
epoch: 1000
next table: 2808
cur table: 2818
epoch: 1000
next table: 2241
cur table: 2221
epoch: 1000
next table: 2799
cur table: 2808
epoch: 1000
next table: 2314
cur table: 2241
epoch: 1000
next table: 2655
cur table: 2799
epoch: 1000
next table: 2267
cur table: 2314
epoch: 1000
next table: 2796
cur table: 2655
epoch: 1000
next table: 2080
cur table: 2267
epoch: 1000
next table: 2755
cur table: 2796
epoch: 1000
next table: 2023
cur table: 2080
epoch: 1000
next table: 2887
cur table: 2755
epoch: 1000
next table: 2713
cur table: 2887
epoch: 1000
next table: 2104
cur table: 2023
epoch: 1000
next table: 2767
cur table: 2713
epoch: 1000
next table: 2055
cur table: 2104
epoch: 1000
next table: 2756
cur table: 2767
epoch: 1000
next table: 2023
cur table: 2055
epoch: 1000
next table: 2909
cur table: 2756
epoch: 1000
next table: 2024
cur table: 2023
epoch: 1000
next table: 2676
cur table: 2909
epoch: 1000
next table: 2083
cur table: 2024
epoch: 1000
next table: 2802
cur table: 2676
epoch: 1000
next table: 2275
cur table: 2083
epoch: 1000
next table: 2780
cur table: 2802
epoch: 1000
next table: 2101
cur table: 2275
epoch: 1000
next table: 2947
cur table: 2780
epoch: 1000
next table: 2046
cur table: 2101
epoch: 1000
next table: 2677
cur table: 2947
epoch: 1000
next table: 2086
cur table: 2046
epoch: 1000
next table: 2816
cur table: 2677
epoch: 1000
next table: 2035
cur table: 2086
epoch: 1000
next table: 2699
cur table: 2816
epoch: 1000
next table: 2013
cur table: 2035
epoch: 1000
next table: 2936
cur table: 2699
epoch: 1000
next table: 2025
cur table: 2013
epoch: 1000
next table: 2704
cur table: 2936
epoch: 1000
next table: 2768
cur table: 2704
epoch: 1000
next table: 2270
cur table: 2025
epoch: 1000
next table: 2791
cur table: 2768
epoch: 1000
next table: 2287
cur table: 2270
epoch: 1000
next table: 2920
cur table: 2791
epoch: 1000
next table: 2073
cur table: 2287
epoch: 1000
next table: 2738
cur table: 2920
epoch: 1000
next table: 2101
cur table: 2073
epoch: 1000
next table: 2715
cur table: 2738
epoch: 1000
next table: 2082
cur table: 2101
epoch: 1000
next table: 2850
cur table: 2715
epoch: 1000
next table: 2027
cur table: 2082
epoch: 1000
next table: 2878
cur table: 2850
epoch: 1000
next table: 2010
cur table: 2027
epoch: 1000
next table: 2731
cur table: 2878
epoch: 1000
next table: 2162
cur table: 2010
epoch: 1000
next table: 2716
cur table: 2731
epoch: 1000
next table: 2846
cur table: 2716
epoch: 1000
next table: 2201
cur table: 2162
epoch: 1000
next table: 2873
cur table: 2846
epoch: 1000
next table: 2075
cur table: 2201
epoch: 1000
next table: 2815
cur table: 2873
epoch: 1000
next table: 1987
cur table: 2075
epoch: 1000
next table: 2707
cur table: 2815
epoch: 1000
next table: 2002
cur table: 1987
epoch: 1000
next table: 2854
cur table: 2707
epoch: 1000
next table: 2209
cur table: 2002
epoch: 1000
next table: 2852
cur table: 2854
epoch: 1000
next table: 2120
cur table: 2209
epoch: 1000
next table: 2903
cur table: 2852
epoch: 1000
next table: 2267
cur table: 2120
epoch: 1000
next table: 2754
cur table: 2903
epoch: 1000
next table: 2853
cur table: 2754
epoch: 1000
next table: 2110
cur table: 2267
epoch: 1000
next table: 2817
cur table: 2853
epoch: 1000
next table: 2019
cur table: 2110
epoch: 1000
next table: 2977
cur table: 2817
epoch: 1000
next table: 2027
cur table: 2019
epoch: 1000
next table: 2713
cur table: 2977
epoch: 1000
next table: 2086
cur table: 2027
epoch: 1000
next table: 2848
cur table: 2713
epoch: 1000
next table: 1999
cur table: 2086
epoch: 1000
next table: 2813
cur table: 2848
epoch: 1000
next table: 2036
cur table: 1999
epoch: 1000
next table: 2972
cur table: 2813
epoch: 1000
next table: 2216
cur table: 2036
epoch: 1000
next table: 2752
cur table: 2972
epoch: 1000
next table: 2202
cur table: 2216
epoch: 1000
next table: 2858
cur table: 2752
epoch: 1000
next table: 1988
cur table: 2202
epoch: 1000
next table: 2820
cur table: 2858
epoch: 1000
next table: 2058
cur table: 1988
epoch: 1000
next table: 3029
cur table: 2820
epoch: 1000
next table: 2059
cur table: 2058
epoch: 1000
next table: 2762
cur table: 3029
epoch: 1000
next table: 2085
cur table: 2059
epoch: 1000
next table: 2880
cur table: 2762
epoch: 1000
next table: 2821
cur table: 2880
epoch: 1000
next table: 2212
cur table: 2085
epoch: 1000
next table: 2985
cur table: 2821
epoch: 1000
next table: 1988
cur table: 2212
epoch: 1000
next table: 2784
cur table: 2985
epoch: 1000
next table: 2054
cur table: 1988
epoch: 1000
next table: 2822
cur table: 2784
epoch: 1000
next table: 2062
cur table: 2054
epoch: 1000
next table: 2887
cur table: 2822
epoch: 1000
next table: 2049
cur table: 2062
epoch: 1000
next table: 2945
cur table: 2887
epoch: 1000
next table: 2060
cur table: 2049
epoch: 1000
next table: 2758
cur table: 2945
epoch: 1000
next table: 2020
cur table: 2060
epoch: 1000
next table: 2786
cur table: 2758
epoch: 1000
next table: 2014
cur table: 2020
epoch: 1000
next table: 2899
cur table: 2786
epoch: 1000
next table: 2281
cur table: 2014
epoch: 1000
next table: 2928
cur table: 2899
epoch: 1000
next table: 2206
cur table: 2281
epoch: 1000
next table: 2843
cur table: 2928
epoch: 1000
next table: 2782
cur table: 2843
epoch: 1000
next table: 2134
cur table: 2206
epoch: 1000
next table: 2919
cur table: 2782
epoch: 1000
next table: 2133
cur table: 2134
epoch: 1000
next table: 2916
cur table: 2919
epoch: 1000
next table: 2241
cur table: 2133
epoch: 1000
next table: 2877
cur table: 2916
epoch: 1000
next table: 2150
cur table: 2241
epoch: 1000
next table: 2720
cur table: 2877
epoch: 1000
next table: 2046
cur table: 2150
epoch: 1000
next table: 2883
cur table: 2720
epoch: 1000
next table: 2058
cur table: 2046
epoch: 1000
next table: 2855
cur table: 2883
epoch: 1000
next table: 2101
cur table: 2058
epoch: 1000
next table: 2931
cur table: 2855
epoch: 1000
next table: 2752
cur table: 2931
epoch: 1000
next table: 2364
cur table: 2101
epoch: 1000
next table: 2824
cur table: 2752
epoch: 1000
next table: 2108
cur table: 2364
epoch: 1000
next table: 2886
cur table: 2824
epoch: 1000
next table: 2180
cur table: 2108
epoch: 1000
next table: 2973
cur table: 2886
epoch: 1000
next table: 2122
cur table: 2180
epoch: 1000
next table: 2718
cur table: 2973
epoch: 1000
next table: 2208
cur table: 2122
epoch: 1000
next table: 2869
cur table: 2718
epoch: 1000
next table: 2118
cur table: 2208
epoch: 1000
next table: 2829
cur table: 2869
epoch: 1000
next table: 2019
cur table: 2118
epoch: 1000
next table: 2994
cur table: 2829
epoch: 1000
next table: 2756
cur table: 2994
epoch: 1000
next table: 2087
cur table: 2019
epoch: 1000
next table: 2893
cur table: 2756
epoch: 1000
next table: 2019
cur table: 2087
epoch: 1000
next table: 2866
cur table: 2893
epoch: 1000
next table: 2104
cur table: 2019
epoch: 1000
next table: 3008
cur table: 2866
epoch: 1000
next table: 2205
cur table: 2104
epoch: 1000
next table: 2727
cur table: 3008
epoch: 1000
next table: 2274
cur table: 2205
epoch: 1000
next table: 2868
cur table: 2727
epoch: 1000
next table: 2042
cur table: 2274
epoch: 1000
next table: 2768
cur table: 2868
epoch: 1000
next table: 2026
cur table: 2042
epoch: 1000
next table: 3020
cur table: 2768
epoch: 1000
next table: 2061
cur table: 2026
epoch: 1000
next table: 2734
cur table: 3020
epoch: 1000
next table: 2057
cur table: 2061
epoch: 1000
next table: 2861
cur table: 2734
epoch: 1000
next table: 2846
cur table: 2861
epoch: 1000
next table: 2201
cur table: 2057
epoch: 1000
next table: 3038
cur table: 2846
epoch: 1000
next table: 2053
cur table: 2201
epoch: 1000
next table: 2744
cur table: 3038
epoch: 1000
next table: 2049
cur table: 2053
epoch: 1000
next table: 2812
cur table: 2744
epoch: 1000
next table: 2108
cur table: 2049
epoch: 1000
next table: 2854
cur table: 2812
epoch: 1000
next table: 2072
cur table: 2108
epoch: 1000
next table: 2964
cur table: 2854
epoch: 1000
next table: 2066
cur table: 2072
epoch: 1000
next table: 2794
cur table: 2964
epoch: 1000
next table: 2056
cur table: 2066
epoch: 1000
next table: 2797
cur table: 2794
epoch: 1000
next table: 2016
cur table: 2056
epoch: 1000
next table: 2901
cur table: 2797
epoch: 1000
next table: 2095
cur table: 2016
epoch: 1000
next table: 2950
cur table: 2901
epoch: 1000
next table: 2080
cur table: 2095
epoch: 1000
next table: 2808
cur table: 2950
epoch: 1000
next table: 2049
cur table: 2080
epoch: 1000
next table: 2792
cur table: 2808
epoch: 1000
next table: 2031
cur table: 2049
epoch: 1000
next table: 2902
cur table: 2792
epoch: 1000
next table: 2015
cur table: 2031
epoch: 1000
next table: 2884
cur table: 2902
epoch: 1000
next table: 2022
cur table: 2015
epoch: 1000
next table: 2886
cur table: 2884
epoch: 1000
next table: 2744
cur table: 2886
epoch: 1000
next table: 2314
cur table: 2022
epoch: 1000
next table: 2908
cur table: 2744
epoch: 1000
next table: 2092
cur table: 2314
epoch: 1000
next table: 2881
cur table: 2908
epoch: 1000
next table: 2066
cur table: 2092
epoch: 1000
next table: 2907
cur table: 2881
epoch: 1000
next table: 2019
cur table: 2066
epoch: 1000
next table: 2745
cur table: 2907
epoch: 1000
next table: 2269
cur table: 2019
epoch: 1000
next table: 2874
cur table: 2745
epoch: 1000
next table: 2167
cur table: 2269
epoch: 1000
next table: 2894
cur table: 2874
epoch: 1000
next table: 2959
cur table: 2894
epoch: 1000
next table: 2160
cur table: 2167
epoch: 1000
next table: 2703
cur table: 2959
epoch: 1000
next table: 2247
cur table: 2160
epoch: 1000
next table: 2881
cur table: 2703
epoch: 1000
next table: 2086
cur table: 2247
epoch: 1000
next table: 2872
cur table: 2881
epoch: 1000
next table: 2119
cur table: 2086
epoch: 1000
next table: 2983
cur table: 2872
epoch: 1000
next table: 2056
cur table: 2119
epoch: 1000
next table: 2771
cur table: 2983
epoch: 1000
next table: 2308
cur table: 2056
epoch: 1000
next table: 2903
cur table: 2771
epoch: 1000
next table: 2856
cur table: 2903
epoch: 1000
next table: 2089
cur table: 2308
epoch: 1000
next table: 3033
cur table: 2856
epoch: 1000
next table: 2014
cur table: 2089
epoch: 1000
next table: 2777
cur table: 3033
epoch: 1000
next table: 2082
cur table: 2014
epoch: 1000
next table: 2907
cur table: 2777
epoch: 1000
next table: 2077
cur table: 2082
epoch: 1000
next table: 2842
cur table: 2907
epoch: 1000
next table: 2047
cur table: 2077
epoch: 1000
next table: 3051
cur table: 2842
epoch: 1000
next table: 2027
cur table: 2047
epoch: 1000
next table: 2756
cur table: 3051
epoch: 1000
next table: 2215
cur table: 2027
epoch: 1000
next table: 2865
cur table: 2756
epoch: 1000
next table: 2095
cur table: 2215
epoch: 1000
next table: 2826
cur table: 2865
epoch: 1000
next table: 2056
cur table: 2095
epoch: 1000
next table: 3031
cur table: 2826
epoch: 1000
next table: 2780
cur table: 3031
epoch: 1000
next table: 2309
cur table: 2056
epoch: 1000
next table: 2824
cur table: 2780
epoch: 1000
next table: 2071
cur table: 2309
epoch: 1000
next table: 2905
cur table: 2824
epoch: 1000
next table: 2066
cur table: 2071
epoch: 1000
next table: 3016
cur table: 2905
epoch: 1000
next table: 2054
cur table: 2066
epoch: 1000
next table: 2817
cur table: 3016
epoch: 1000
next table: 2139
cur table: 2054
epoch: 1000
next table: 2847
cur table: 2817
epoch: 1000
next table: 2049
cur table: 2139
epoch: 1000
next table: 2953
cur table: 2847
epoch: 1000
next table: 2057
cur table: 2049
epoch: 1000
next table: 2964
cur table: 2953
epoch: 1000
next table: 2052
cur table: 2057
epoch: 1000
next table: 2870
cur table: 2964
epoch: 1000
next table: 2108
cur table: 2052
epoch: 1000
next table: 2813
cur table: 2870
epoch: 1000
next table: 2065
cur table: 2108
epoch: 1000
next table: 2954
cur table: 2813
epoch: 1000
next table: 2036
cur table: 2065
epoch: 1000
next table: 2912
cur table: 2954
epoch: 1000
next table: 2041
cur table: 2036
epoch: 1000
next table: 2910
cur table: 2912
epoch: 1000
next table: 2099
cur table: 2041
epoch: 1000
next table: 2770
cur table: 2910
epoch: 1000
next table: 2013
cur table: 2099
epoch: 1000
next table: 2944
cur table: 2770
epoch: 1000
next table: 2922
cur table: 2944
epoch: 1000
next table: 2035
cur table: 2013
epoch: 1000
next table: 2946
cur table: 2922
epoch: 1000
next table: 2055
cur table: 2035
epoch: 1000
next table: 2734
cur table: 2946
epoch: 1000
next table: 2066
cur table: 2055
epoch: 1000
next table: 2926
cur table: 2734
epoch: 1000
next table: 2040
cur table: 2066
epoch: 1000
next table: 2864
cur table: 2926
epoch: 1000
next table: 2011
cur table: 2040
epoch: 1000
next table: 2982
cur table: 2864
epoch: 1000
next table: 2032
cur table: 2011
epoch: 1000
next table: 2738
cur table: 2982
epoch: 1000
next table: 2052
cur table: 2032
epoch: 1000
next table: 2861
cur table: 2738
epoch: 1000
next table: 2318
cur table: 2052
epoch: 1000
next table: 2863
cur table: 2861
epoch: 1000
next table: 2166
cur table: 2318
epoch: 1000
next table: 2999
cur table: 2863
epoch: 1000
next table: 2053
cur table: 2166
epoch: 1000
next table: 2760
cur table: 2999
epoch: 1000
next table: 2023
cur table: 2053
epoch: 1000
next table: 2900
cur table: 2760
epoch: 1000
next table: 2875
cur table: 2900
epoch: 1000
next table: 2093
cur table: 2023
epoch: 1000
next table: 3054
cur table: 2875
epoch: 1000
next table: 1994
cur table: 2093
epoch: 1000
next table: 2789
cur table: 3054
epoch: 1000
next table: 2122
cur table: 1994
epoch: 1000
next table: 2911
cur table: 2789
epoch: 1000
next table: 2113
cur table: 2122
Heartbeat CPU 0 instructions: 20000003 cycles: 5642299 heartbeat IPC: 3.55409 cumulative IPC: 3.54465 (Simulation time: 0 hr 6 min 13 sec) 
epoch: 1000
next table: 2816
cur table: 2911
epoch: 1000
next table: 2136
cur table: 2113
epoch: 1000
next table: 3035
cur table: 2816
epoch: 1000
next table: 2265
cur table: 2136
epoch: 1000
next table: 2740
cur table: 3035
epoch: 1000
next table: 2299
cur table: 2265
epoch: 1000
next table: 2868
cur table: 2740
epoch: 1000
next table: 2832
cur table: 2868
epoch: 1000
next table: 2057
cur table: 2299
epoch: 1000
next table: 3016
cur table: 2832
epoch: 1000
next table: 2052
cur table: 2057
epoch: 1000
next table: 2780
cur table: 3016
epoch: 1000
next table: 2092
cur table: 2052
epoch: 1000
next table: 2799
cur table: 2780
epoch: 1000
next table: 2058
cur table: 2092
epoch: 1000
next table: 2895
cur table: 2799
epoch: 1000
next table: 2053
cur table: 2058
epoch: 1000
next table: 2922
cur table: 2895
epoch: 1000
next table: 2173
cur table: 2053
epoch: 1000
next table: 2870
cur table: 2922
epoch: 1000
next table: 2391
cur table: 2173
epoch: 1000
next table: 2813
cur table: 2870
epoch: 1000
next table: 2922
cur table: 2813
epoch: 1000
next table: 2112
cur table: 2391
epoch: 1000
next table: 2905
cur table: 2922
epoch: 1000
next table: 2074
cur table: 2112
epoch: 1000
next table: 2918
cur table: 2905
epoch: 1000
next table: 2054
cur table: 2074
epoch: 1000
next table: 2759
cur table: 2918
epoch: 1000
next table: 2131
cur table: 2054
epoch: 1000
next table: 2901
cur table: 2759
epoch: 1000
next table: 2279
cur table: 2131
epoch: 1000
next table: 2877
cur table: 2901
epoch: 1000
next table: 2228
cur table: 2279
epoch: 1000
next table: 2959
cur table: 2877
epoch: 1000
next table: 2761
cur table: 2959
epoch: 1000
next table: 2150
cur table: 2228
epoch: 1000
next table: 2890
cur table: 2761
epoch: 1000
next table: 2066
cur table: 2150
epoch: 1000
next table: 2892
cur table: 2890
epoch: 1000
next table: 2057
cur table: 2066
epoch: 1000
next table: 3017
cur table: 2892
epoch: 1000
next table: 2189
cur table: 2057
epoch: 1000
next table: 2793
cur table: 3017
epoch: 1000
next table: 2146
cur table: 2189
epoch: 1000
next table: 2921
cur table: 2793
epoch: 1000
next table: 2263
cur table: 2146
epoch: 1000
next table: 2869
cur table: 2921
epoch: 1000
next table: 2178
cur table: 2263
epoch: 1000
next table: 3034
cur table: 2869
epoch: 1000
next table: 2786
cur table: 3034
epoch: 1000
next table: 2182
cur table: 2178
epoch: 1000
next table: 2925
cur table: 2786
epoch: 1000
next table: 2128
cur table: 2182
epoch: 1000
next table: 2860
cur table: 2925
epoch: 1000
next table: 2104
cur table: 2128
epoch: 1000
next table: 3095
cur table: 2860
epoch: 1000
next table: 2048
cur table: 2104
epoch: 1000
next table: 2815
cur table: 3095
epoch: 1000
next table: 2046
cur table: 2048
epoch: 1000
next table: 2859
cur table: 2815
epoch: 1000
next table: 2138
cur table: 2046
epoch: 1000
next table: 2916
cur table: 2859
epoch: 1000
next table: 2167
cur table: 2138
epoch: 1000
next table: 3014
cur table: 2916
epoch: 1000
next table: 2061
cur table: 2167
epoch: 1000
next table: 2839
cur table: 3014
epoch: 1000
next table: 2005
cur table: 2061
epoch: 1000
next table: 2876
cur table: 2839
epoch: 1000
next table: 1994
cur table: 2005
epoch: 1000
next table: 2960
cur table: 2876
epoch: 1000
next table: 2002
cur table: 1994
epoch: 1000
next table: 2998
cur table: 2960
epoch: 1000
next table: 2073
cur table: 2002
epoch: 1000
next table: 2855
cur table: 2998
epoch: 1000
next table: 2045
cur table: 2073
epoch: 1000
next table: 2880
cur table: 2855
epoch: 1000
next table: 1944
cur table: 2045
epoch: 1000
next table: 2990
cur table: 2880
epoch: 1000
next table: 1967
cur table: 1944
epoch: 1000
next table: 2930
cur table: 2990
epoch: 1000
next table: 1953
cur table: 1967
epoch: 1000
next table: 2977
cur table: 2930
epoch: 1000
next table: 2147
cur table: 1953
epoch: 1000
next table: 2814
cur table: 2977
epoch: 1000
next table: 3010
cur table: 2814
epoch: 1000
next table: 2127
cur table: 2147
epoch: 1000
next table: 2938
cur table: 3010
epoch: 1000
next table: 2028
cur table: 2127
epoch: 1000
next table: 3006
cur table: 2938
epoch: 1000
next table: 1973
cur table: 2028
epoch: 1000
next table: 2853
cur table: 3006
epoch: 1000
next table: 2015
cur table: 1973
epoch: 1000
next table: 2968
cur table: 2853
epoch: 1000
next table: 1990
cur table: 2015
epoch: 1000
next table: 2946
cur table: 2968
epoch: 1000
next table: 1981
cur table: 1990
epoch: 1000
next table: 3085
cur table: 2946
epoch: 1000
next table: 1946
cur table: 1981
epoch: 1000
next table: 2844
cur table: 3085
epoch: 1000
next table: 2134
cur table: 1946
epoch: 1000
next table: 2992
cur table: 2844
epoch: 1000
next table: 2074
cur table: 2134
epoch: 1000
next table: 2935
cur table: 2992
epoch: 1000
next table: 1960
cur table: 2074
epoch: 1000
next table: 3140
cur table: 2935
epoch: 1000
next table: 1940
cur table: 1960
epoch: 1000
next table: 2917
cur table: 3140
epoch: 1000
next table: 2011
cur table: 1940
epoch: 1000
next table: 3050
cur table: 2917
epoch: 1000
next table: 2091
cur table: 2011
epoch: 1000
next table: 2946
cur table: 3050
epoch: 1000
next table: 1941
cur table: 2091
epoch: 1000
next table: 3131
cur table: 2946
epoch: 1000
next table: 1929
cur table: 1941
epoch: 1000
next table: 2921
cur table: 3131
epoch: 1000
next table: 1901
cur table: 1929
epoch: 1000
next table: 1896
cur table: 1901
epoch: 1000
next table: 3056
cur table: 2921
epoch: 1000
next table: 1971
cur table: 1896
epoch: 1000
next table: 2941
cur table: 3056
epoch: 1000
next table: 1966
cur table: 1971
epoch: 1000
next table: 3155
cur table: 2941
epoch: 1000
next table: 1891
cur table: 1966
epoch: 1000
next table: 2878
cur table: 3155
epoch: 1000
next table: 1922
cur table: 1891
epoch: 1000
next table: 3052
cur table: 2878
epoch: 1000
next table: 2044
cur table: 1922
epoch: 1000
next table: 2937
cur table: 3052
epoch: 1000
next table: 1986
cur table: 2044
epoch: 1000
next table: 3163
cur table: 2937
epoch: 1000
next table: 1924
cur table: 1986
epoch: 1000
next table: 2926
cur table: 3163
epoch: 1000
next table: 1911
cur table: 1924
epoch: 1000
next table: 2956
cur table: 2926
epoch: 1000
next table: 1900
cur table: 1911
epoch: 1000
next table: 3043
cur table: 2956
epoch: 1000
next table: 1930
cur table: 1900
epoch: 1000
next table: 3121
cur table: 3043
epoch: 1000
next table: 1839
cur table: 1930
epoch: 1000
next table: 2958
cur table: 3121
epoch: 1000
next table: 1823
cur table: 1839
epoch: 1000
next table: 1933
cur table: 1823
epoch: 1000
next table: 2940
cur table: 2958
epoch: 1000
next table: 1881
cur table: 1933
epoch: 1000
next table: 3049
cur table: 2940
epoch: 1000
next table: 1858
cur table: 1881
epoch: 1000
next table: 3065
cur table: 3049
epoch: 1000
next table: 1791
cur table: 1858
epoch: 1000
next table: 3024
cur table: 3065
epoch: 1000
next table: 1825
cur table: 1791
epoch: 1000
next table: 2923
cur table: 3024
epoch: 1000
next table: 1817
cur table: 1825
epoch: 1000
next table: 1810
cur table: 1817
epoch: 1000
next table: 3091
cur table: 2923
epoch: 1000
next table: 1834
cur table: 1810
epoch: 1000
next table: 3062
cur table: 3091
epoch: 1000
next table: 1800
cur table: 1834
epoch: 1000
next table: 3069
cur table: 3062
epoch: 1000
next table: 1819
cur table: 1800
epoch: 1000
next table: 2881
cur table: 3069
epoch: 1000
next table: 1898
cur table: 1819
epoch: 1000
next table: 3073
cur table: 2881
epoch: 1000
next table: 1822
cur table: 1898
epoch: 1000
next table: 1821
cur table: 1822
epoch: 1000
next table: 2983
cur table: 3073
epoch: 1000
next table: 1770
cur table: 1821
epoch: 1000
next table: 3095
cur table: 2983
epoch: 1000
next table: 1827
cur table: 1770
epoch: 1000
next table: 2913
cur table: 3095
epoch: 1000
next table: 1917
cur table: 1827
epoch: 1000
next table: 3025
cur table: 2913
epoch: 1000
next table: 1856
cur table: 1917
epoch: 1000
next table: 3050
cur table: 3025
epoch: 1000
next table: 1895
cur table: 1856
epoch: 1000
next table: 3148
cur table: 3050
epoch: 1000
next table: 1860
cur table: 1895
epoch: 1000
next table: 1899
cur table: 1860
epoch: 1000
next table: 2901
cur table: 3148
epoch: 1000
next table: 1892
cur table: 1899
epoch: 1000
next table: 3014
cur table: 2901
epoch: 1000
next table: 1861
cur table: 1892
epoch: 1000
next table: 3036
cur table: 3014
epoch: 1000
next table: 1865
cur table: 1861
epoch: 1000
next table: 3162
cur table: 3036
epoch: 1000
next table: 1871
cur table: 1865
epoch: 1000
next table: 2900
cur table: 3162
epoch: 1000
next table: 1915
cur table: 1871
epoch: 1000
next table: 3012
cur table: 2900
epoch: 1000
next table: 1948
cur table: 1915
epoch: 1000
next table: 2986
cur table: 3012
epoch: 1000
next table: 1951
cur table: 1948
epoch: 1000
next table: 3185
cur table: 2986
epoch: 1000
next table: 1909
cur table: 1951
epoch: 1000
next table: 2923
cur table: 3185
epoch: 1000
next table: 1879
cur table: 1909
epoch: 1000
next table: 1871
cur table: 1879
epoch: 1000
next table: 3060
cur table: 2923
epoch: 1000
next table: 1892
cur table: 1871
epoch: 1000
next table: 2937
cur table: 3060
epoch: 1000
next table: 1849
cur table: 1892
epoch: 1000
next table: 3192
cur table: 2937
epoch: 1000
next table: 1889
cur table: 1849
epoch: 1000
next table: 2878
cur table: 3192
epoch: 1000
next table: 1933
cur table: 1889
epoch: 1000
next table: 3052
cur table: 2878
epoch: 1000
next table: 1948
cur table: 1933
epoch: 1000
next table: 2922
cur table: 3052
epoch: 1000
next table: 1898
cur table: 1948
epoch: 1000
next table: 3193
cur table: 2922
epoch: 1000
next table: 1853
cur table: 1898
epoch: 1000
next table: 2927
cur table: 3193
epoch: 1000
next table: 1881
cur table: 1853
epoch: 1000
next table: 1846
cur table: 1881
epoch: 1000
next table: 3005
cur table: 2927
epoch: 1000
next table: 1973
cur table: 1846
epoch: 1000
next table: 3008
cur table: 3005
epoch: 1000
next table: 1895
cur table: 1973
epoch: 1000
next table: 3088
cur table: 3008
epoch: 1000
next table: 1855
cur table: 1895
epoch: 1000
next table: 2963
cur table: 3088
epoch: 1000
next table: 1868
cur table: 1855
epoch: 1000
next table: 2990
cur table: 2963
epoch: 1000
next table: 1864
cur table: 1868
epoch: 1000
next table: 3053
cur table: 2990
epoch: 1000
next table: 1885
cur table: 1864
epoch: 1000
next table: 3153
cur table: 3053
epoch: 1000
next table: 1843
cur table: 1885
epoch: 1000
next table: 1865
cur table: 1843
epoch: 1000
next table: 2964
cur table: 3153
epoch: 1000
next table: 1927
cur table: 1865
epoch: 1000
next table: 2999
cur table: 2964
epoch: 1000
next table: 1989
cur table: 1927
epoch: 1000
next table: 3078
cur table: 2999
epoch: 1000
next table: 1922
cur table: 1989
epoch: 1000
next table: 3083
cur table: 3078
epoch: 1000
next table: 1882
cur table: 1922
epoch: 1000
next table: 3013
cur table: 3083
epoch: 1000
next table: 1942
cur table: 1882
epoch: 1000
next table: 2931
cur table: 3013
epoch: 1000
next table: 1895
cur table: 1942
epoch: 1000
next table: 3090
cur table: 2931
epoch: 1000
next table: 1920
cur table: 1895
epoch: 1000
next table: 3065
cur table: 3090
epoch: 1000
next table: 1857
cur table: 1920
epoch: 1000
next table: 3061
cur table: 3065
epoch: 1000
next table: 1890
cur table: 1857
epoch: 1000
next table: 2902
cur table: 3061
epoch: 1000
next table: 2104
cur table: 1890
epoch: 1000
next table: 3080
cur table: 2902
epoch: 1000
next table: 2079
cur table: 2104
epoch: 1000
next table: 2990
cur table: 3080
epoch: 1000
next table: 1965
cur table: 2079
epoch: 1000
next table: 3122
cur table: 2990
epoch: 1000
next table: 1908
cur table: 1965
epoch: 1000
next table: 2942
cur table: 3122
epoch: 1000
next table: 1938
cur table: 1908
epoch: 1000
next table: 2997
cur table: 2942
epoch: 1000
next table: 1945
cur table: 1938
epoch: 1000
next table: 3034
cur table: 2997
epoch: 1000
next table: 1962
cur table: 1945
epoch: 1000
next table: 3165
cur table: 3034
epoch: 1000
next table: 1878
cur table: 1962
epoch: 1000
next table: 2907
cur table: 3165
epoch: 1000
next table: 2036
cur table: 1878
epoch: 1000
next table: 3049
cur table: 2907
epoch: 1000
next table: 2095
cur table: 2036
epoch: 1000
next table: 2955
cur table: 3049
epoch: 1000
next table: 2021
cur table: 2095
epoch: 1000
next table: 3185
cur table: 2955
epoch: 1000
next table: 1952
cur table: 2021
epoch: 1000
next table: 2926
cur table: 3185
epoch: 1000
next table: 2103
cur table: 1952
epoch: 1000
next table: 3092
cur table: 2926
epoch: 1000
next table: 2030
cur table: 2103
epoch: 1000
next table: 2963
cur table: 3092
epoch: 1000
next table: 2125
cur table: 2030
epoch: 1000
next table: 3155
cur table: 2963
epoch: 1000
next table: 1997
cur table: 2125
epoch: 1000
next table: 2922
cur table: 3155
epoch: 1000
next table: 2076
cur table: 1997
epoch: 1000
next table: 2792
cur table: 2922
epoch: 1000
next table: 2036
cur table: 2076
epoch: 1000
next table: 2757
cur table: 2792
epoch: 1000
next table: 2047
cur table: 2036
epoch: 1000
next table: 2730
cur table: 2757
epoch: 1000
next table: 1964
cur table: 2047
epoch: 1000
next table: 2906
cur table: 2730
epoch: 1000
next table: 2865
cur table: 2906
epoch: 1000
next table: 2132
cur table: 1964
epoch: 1000
next table: 2766
cur table: 2865
epoch: 1000
next table: 2096
cur table: 2132
epoch: 1000
next table: 2660
cur table: 2766
epoch: 1000
next table: 2065
cur table: 2096
epoch: 1000
next table: 2992
cur table: 2660
epoch: 1000
next table: 2048
cur table: 2065
epoch: 1000
next table: 2872
cur table: 2992
epoch: 1000
next table: 2106
cur table: 2048
epoch: 1000
next table: 2917
cur table: 2872
epoch: 1000
next table: 1991
cur table: 2106
epoch: 1000
next table: 2783
cur table: 2917
epoch: 1000
next table: 2665
cur table: 2783
epoch: 1000
next table: 2031
cur table: 1991
epoch: 1000
next table: 2828
cur table: 2665
epoch: 1000
next table: 1991
cur table: 2031
epoch: 1000
next table: 2653
cur table: 2828
epoch: 1000
next table: 2156
cur table: 1991
epoch: 1000
next table: 2952
cur table: 2653
epoch: 1000
next table: 2108
cur table: 2156
epoch: 1000
next table: 2707
cur table: 2952
epoch: 1000
next table: 2067
cur table: 2108
epoch: 1000
next table: 2826
cur table: 2707
epoch: 1000
next table: 2761
cur table: 2826
epoch: 1000
next table: 1950
cur table: 2067
epoch: 1000
next table: 2616
cur table: 2761
epoch: 1000
next table: 2029
cur table: 1950
epoch: 1000
next table: 2941
cur table: 2616
epoch: 1000
next table: 2012
cur table: 2029
epoch: 1000
next table: 2731
cur table: 2941
epoch: 1000
next table: 2018
cur table: 2012
epoch: 1000
next table: 3015
cur table: 2731
epoch: 1000
next table: 1861
cur table: 2018
epoch: 1000
next table: 2912
cur table: 3015
epoch: 1000
next table: 1917
cur table: 1861
epoch: 1000
next table: 2985
cur table: 2912
epoch: 1000
next table: 1937
cur table: 1917
epoch: 1000
next table: 2969
cur table: 2985
epoch: 1000
next table: 1947
cur table: 1937
epoch: 1000
next table: 2773
cur table: 2969
epoch: 1000
next table: 1970
cur table: 1947
epoch: 1000
next table: 2842
cur table: 2773
epoch: 1000
next table: 2158
cur table: 1970
epoch: 1000
next table: 2738
cur table: 2842
epoch: 1000
next table: 2065
cur table: 2158
epoch: 1000
next table: 3060
cur table: 2738
epoch: 1000
next table: 2066
cur table: 2065
epoch: 1000
next table: 2669
cur table: 3060
epoch: 1000
next table: 3170
cur table: 2669
epoch: 1000
next table: 2057
cur table: 2066
epoch: 1000
next table: 2928
cur table: 3170
epoch: 1000
next table: 2121
cur table: 2057
epoch: 1000
next table: 3020
cur table: 2928
epoch: 1000
next table: 2127
cur table: 2121
epoch: 1000
next table: 2776
cur table: 3020
epoch: 1000
next table: 2148
cur table: 2127
epoch: 1000
next table: 2836
cur table: 2776
epoch: 1000
next table: 2055
cur table: 2148
epoch: 1000
next table: 2829
cur table: 2836
epoch: 1000
next table: 2650
cur table: 2829
epoch: 1000
next table: 2172
cur table: 2055
epoch: 1000
next table: 2886
cur table: 2650
epoch: 1000
next table: 1982
cur table: 2172
epoch: 1000
next table: 2822
cur table: 2886
epoch: 1000
next table: 1964
cur table: 1982
epoch: 1000
next table: 2788
cur table: 2822
epoch: 1000
next table: 1936
cur table: 1964
epoch: 1000
next table: 2715
cur table: 2788
epoch: 1000
next table: 2018
cur table: 1936
epoch: 1000
next table: 2655
cur table: 2715
epoch: 1000
next table: 2017
cur table: 2018
epoch: 1000
next table: 2809
cur table: 2655
epoch: 1000
next table: 2071
cur table: 2017
epoch: 1000
next table: 2987
cur table: 2809
epoch: 1000
next table: 1982
cur table: 2071
epoch: 1000
next table: 3169
cur table: 2987
epoch: 1000
next table: 1979
cur table: 1982
epoch: 1000
next table: 2910
cur table: 3169
epoch: 1000
next table: 1978
cur table: 1979
epoch: 1000
next table: 3068
cur table: 2910
epoch: 1000
next table: 2134
cur table: 1978
epoch: 1000
next table: 2856
cur table: 3068
epoch: 1000
next table: 2907
cur table: 2856
epoch: 1000
next table: 2000
cur table: 2134
epoch: 1000
next table: 2716
cur table: 2907
epoch: 1000
next table: 1925
cur table: 2000
epoch: 1000
next table: 2705
cur table: 2716
epoch: 1000
next table: 2121
cur table: 1925
epoch: 1000
next table: 2779
cur table: 2705
epoch: 1000
next table: 2014
cur table: 2121
epoch: 1000
next table: 2908
cur table: 2779
epoch: 1000
next table: 1941
cur table: 2014
epoch: 1000
next table: 2881
cur table: 2908
epoch: 1000
next table: 1956
cur table: 1941
epoch: 1000
next table: 2644
cur table: 2881
epoch: 1000
next table: 2007
cur table: 1956
epoch: 1000
next table: 2727
cur table: 2644
epoch: 1000
next table: 2041
cur table: 2007
epoch: 1000
next table: 3034
cur table: 2727
epoch: 1000
next table: 2044
cur table: 2041
epoch: 1000
next table: 2761
cur table: 3034
epoch: 1000
next table: 2846
cur table: 2761
epoch: 1000
next table: 1962
cur table: 2044
epoch: 1000
next table: 2631
cur table: 2846
epoch: 1000
next table: 1979
cur table: 1962
epoch: 1000
next table: 2810
cur table: 2631
epoch: 1000
next table: 1955
cur table: 1979
epoch: 1000
next table: 2854
cur table: 2810
epoch: 1000
next table: 1933
cur table: 1955
epoch: 1000
next table: 3095
cur table: 2854
epoch: 1000
next table: 1978
cur table: 1933
epoch: 1000
next table: 2940
cur table: 3095
epoch: 1000
next table: 2134
cur table: 1978
epoch: 1000
next table: 3015
cur table: 2940
epoch: 1000
next table: 2167
cur table: 2134
epoch: 1000
next table: 2914
cur table: 3015
epoch: 1000
next table: 2141
cur table: 2167
epoch: 1000
next table: 2687
cur table: 2914
epoch: 1000
next table: 2909
cur table: 2687
epoch: 1000
next table: 1981
cur table: 2141
epoch: 1000
next table: 2762
cur table: 2909
epoch: 1000
next table: 1997
cur table: 1981
epoch: 1000
next table: 2929
cur table: 2762
epoch: 1000
next table: 1888
cur table: 1997
epoch: 1000
next table: 2704
cur table: 2929
epoch: 1000
next table: 1901
cur table: 1888
epoch: 1000
next table: 2802
cur table: 2704
epoch: 1000
next table: 1930
cur table: 1901
epoch: 1000
next table: 2917
cur table: 2802
epoch: 1000
next table: 1984
cur table: 1930
epoch: 1000
next table: 2785
cur table: 2917
epoch: 1000
next table: 2123
cur table: 1984
epoch: 1000
next table: 2748
cur table: 2785
epoch: 1000
next table: 1903
cur table: 2123
epoch: 1000
next table: 2692
cur table: 2748
epoch: 1000
next table: 1943
cur table: 1903
epoch: 1000
next table: 3156
cur table: 2692
epoch: 1000
next table: 1836
cur table: 1943
epoch: 1000
next table: 2887
cur table: 3156
epoch: 1000
next table: 1914
cur table: 1836
epoch: 1000
next table: 2986
cur table: 2887
epoch: 1000
next table: 1942
cur table: 1914
epoch: 1000
next table: 3069
cur table: 2986
epoch: 1000
next table: 2027
cur table: 1942
epoch: 1000
next table: 3136
cur table: 3069
epoch: 1000
next table: 1923
cur table: 2027
epoch: 1000
next table: 2975
cur table: 3136
epoch: 1000
next table: 1898
cur table: 1923
epoch: 1000
next table: 2728
cur table: 2975
epoch: 1000
next table: 2108
cur table: 1898
epoch: 1000
next table: 2752
cur table: 2728
epoch: 1000
next table: 1894
cur table: 2108
epoch: 1000
next table: 2706
cur table: 2752
epoch: 1000
next table: 1881
cur table: 1894
epoch: 1000
next table: 2880
cur table: 2706
epoch: 1000
next table: 1964
cur table: 1881
epoch: 1000
next table: 2687
cur table: 2880
epoch: 1000
next table: 1952
cur table: 1964
epoch: 1000
next table: 2968
cur table: 2687
epoch: 1000
next table: 2041
cur table: 1952
epoch: 1000
next table: 3016
cur table: 2968
epoch: 1000
next table: 2090
cur table: 2041
epoch: 1000
next table: 2790
cur table: 3016
epoch: 1000
next table: 1997
cur table: 2090
epoch: 1000
next table: 3112
cur table: 2790
epoch: 1000
next table: 1900
cur table: 1997
epoch: 1000
next table: 2944
cur table: 3112
epoch: 1000
next table: 2040
cur table: 1900
epoch: 1000
next table: 3008
cur table: 2944
epoch: 1000
next table: 1906
cur table: 2040
epoch: 1000
next table: 2873
cur table: 3008
epoch: 1000
next table: 2009
cur table: 1906
epoch: 1000
next table: 2949
cur table: 2873
epoch: 1000
next table: 2651
cur table: 2949
epoch: 1000
next table: 2034
cur table: 2009
epoch: 1000
next table: 2749
cur table: 2651
epoch: 1000
next table: 1993
cur table: 2034
epoch: 1000
next table: 2810
cur table: 2749
epoch: 1000
next table: 2130
cur table: 1993
epoch: 1000
next table: 2906
cur table: 2810
epoch: 1000
next table: 1923
cur table: 2130
epoch: 1000
next table: 3136
cur table: 2906
epoch: 1000
next table: 1894
cur table: 1923
epoch: 1000
next table: 2697
cur table: 3136
epoch: 1000
next table: 1855
cur table: 1894
[...]
epoch: 1000
next table: 3071
cur table: 2997
epoch: 1000
next table: 2342
cur table: 2337
epoch: 1000
next table: 3075
cur table: 3071
epoch: 1000
next table: 2299
cur table: 2342
epoch: 1000
next table: 3300
cur table: 3075
epoch: 1000
next table: 2189
cur table: 2299
epoch: 1000
next table: 2996
cur table: 3300
epoch: 1000
next table: 2360
cur table: 2189
epoch: 1000
next table: 3010
cur table: 2996
epoch: 1000
next table: 3128
cur table: 3010
epoch: 1000
next table: 2296
cur table: 2360
epoch: 1000
next table: 3083
cur table: 3128
epoch: 1000
next table: 2233
cur table: 2296
epoch: 1000
next table: 3265
cur table: 3083
epoch: 1000
next table: 2302
cur table: 2233
epoch: 1000
next table: 2996
cur table: 3265
epoch: 1000
next table: 3038
cur table: 2996
epoch: 1000
next table: 2333
cur table: 2302
epoch: 1000
next table: 3143
cur table: 3038
epoch: 1000
next table: 2301
cur table: 2333
epoch: 1000
next table: 3112
cur table: 3143
epoch: 1000
next table: 2244
cur table: 2301
epoch: 1000
next table: 3213
cur table: 3112
epoch: 1000
next table: 2323
cur table: 2244
epoch: 1000
next table: 2987
cur table: 3213
epoch: 1000
next table: 3153
cur table: 2987
epoch: 1000
next table: 2281
cur table: 2323
epoch: 1000
next table: 3073
cur table: 3153
epoch: 1000
next table: 2295
cur table: 2281
epoch: 1000
next table: 3192
cur table: 3073
epoch: 1000
next table: 2328
cur table: 2295
epoch: 1000
next table: 3104
cur table: 3192
epoch: 1000
next table: 2987
cur table: 3104
epoch: 1000
next table: 2509
cur table: 2328
epoch: 1000
next table: 3126
cur table: 2987
epoch: 1000
next table: 2382
cur table: 2509
epoch: 1000
next table: 3057
cur table: 3126
epoch: 1000
next table: 3295
cur table: 3057
epoch: 1000
next table: 2367
cur table: 2382
epoch: 1000
next table: 3028
cur table: 3295
epoch: 1000
next table: 2482
cur table: 2367
epoch: 1000
next table: 3006
cur table: 3028
epoch: 1000
next table: 2369
cur table: 2482
epoch: 1000
next table: 2625
cur table: 3006
epoch: 1000
next table: 2324
cur table: 2625
epoch: 1000
next table: 2422
cur table: 2369
epoch: 1000
next table: 2283
cur table: 2324
epoch: 1000
next table: 2337
cur table: 2422
epoch: 1000
next table: 2410
cur table: 2283
epoch: 1000
next table: 2345
cur table: 2410
epoch: 1000
next table: 2710
cur table: 2337
epoch: 1000
next table: 2746
cur table: 2345
Heartbeat CPU 0 instructions: 100000002 cycles: 192935326 heartbeat IPC: 0.272217 cumulative IPC: 0.279686 (Simulation time: 0 hr 29 min 50 sec) 
Finished CPU 0 instructions: 50000003 cycles: 178771828 cumulative IPC: 0.279686 (Simulation time: 0 hr 29 min 50 sec) 

ChampSim completed all CPUs

Region of Interest Statistics

CPU 0 cumulative IPC: 0.279686 instructions: 50000003 cycles: 178771828
ITLB TOTAL     ACCESS:    8915032  HIT:    8915032  MISS:          0  HIT %:        100  MISS %:          0   MPKI: 0
ITLB LOAD TRANSLATION ACCESS:    8915032  HIT:    8915032  MISS:          0  HIT %:        100  MISS %:          0   MPKI: 0
ITLB PREFETCH  REQUESTED:          0  ISSUED:          0  USEFUL:          0  USELESS:          0
ITLB USEFUL LOAD PREFETCHES:          0 PREFETCH ISSUED TO LOWER LEVEL:          0  ACCURACY: -nan
ITLB TIMELY PREFETCHES:          0 LATE PREFETCHES: 0 DROPPED PREFETCHES: 0
ITLB PREFETCHES SAME FILL-ORIGIN LEVEL: 0 DIFFERENT FILL-ORIGIN LEVEL: 0
ITLB AVERAGE MISS LATENCY: -nan cycles
ITLB RQ	ACCESS:    9592070	FORWARD:          0	MERGED:     677038	TO_CACHE:    8915032

Revised Interactions: positive negative neutral
ITLB_interactions 0 0 0 -nan -nan -nan
DTLB TOTAL     ACCESS:    7427396  HIT:    6210498  MISS:    1216898  HIT %:    83.6161  MISS %:    16.3839   MPKI: 24.338
DTLB LOAD TRANSLATION ACCESS:    7427396  HIT:    6210498  MISS:    1216898  HIT %:    83.6161  MISS %:    16.3839   MPKI: 24.338
DTLB PREFETCH  REQUESTED:          0  ISSUED:          0  USEFUL:          0  USELESS:          0
DTLB USEFUL LOAD PREFETCHES:          0 PREFETCH ISSUED TO LOWER LEVEL:          0  ACCURACY: -nan
DTLB TIMELY PREFETCHES:          0 LATE PREFETCHES: 0 DROPPED PREFETCHES: 0
DTLB PREFETCHES SAME FILL-ORIGIN LEVEL: 0 DIFFERENT FILL-ORIGIN LEVEL: 0
DTLB AVERAGE MISS LATENCY: 56.1111 cycles
DTLB RQ	ACCESS:    8628330	FORWARD:          0	MERGED:    1183634	TO_CACHE:    7444696

Revised Interactions: positive negative neutral
DTLB_interactions 0 0 0 -nan -nan -nan
STLB TOTAL     ACCESS:    1216898  HIT:      98809  MISS:    1118089  HIT %:    8.11974  MISS %:    91.8803   MPKI: 22.3618
STLB LOAD TRANSLATION ACCESS:    1216898  HIT:      98809  MISS:    1118089  HIT %:    8.11974  MISS %:    91.8803   MPKI: 22.3618
STLB PREFETCH  REQUESTED:          0  ISSUED:          0  USEFUL:          0  USELESS:          0
STLB USEFUL LOAD PREFETCHES:          0 PREFETCH ISSUED TO LOWER LEVEL:          0  ACCURACY: -nan
STLB TIMELY PREFETCHES:          0 LATE PREFETCHES: 0 DROPPED PREFETCHES: 0
STLB PREFETCHES SAME FILL-ORIGIN LEVEL: 0 DIFFERENT FILL-ORIGIN LEVEL: 0
STLB AVERAGE MISS LATENCY: 51.115 cycles
STLB RQ	ACCESS:    1216898	FORWARD:          0	MERGED:          0	TO_CACHE:    1216898

Revised Interactions: positive negative neutral
STLB_interactions 0 0 0 -nan -nan -nan
STLB Hit, L1D data hit: 0
STLB Hit, L2C data hit: 0
STLB Hit, LLC data hit: 0
STLB Hit, LLC data miss: 0
STLB STLB hints to L2: 0
L1D TOTAL     ACCESS:    8606853  HIT:    5834208  MISS:    2772645  HIT %:    67.7856  MISS %:    32.2144   MPKI: 55.4529
L1D LOAD      ACCESS:    6389712  HIT:    3755665  MISS:    2634047  HIT %:    58.7767  MISS %:    41.2233   MPKI: 52.6809
L1D RFO       ACCESS:    2217141  HIT:    2078543  MISS:     138598  HIT %:    93.7488  MISS %:     6.2512   MPKI: 2.77196
L1D PREFETCH  REQUESTED:          0  ISSUED:          0  USEFUL:          0  USELESS:          0
L1D USEFUL LOAD PREFETCHES:          0 PREFETCH ISSUED TO LOWER LEVEL:          0  ACCURACY: -nan
L1D TIMELY PREFETCHES:          0 LATE PREFETCHES: 0 DROPPED PREFETCHES: 0
L1D PREFETCHES SAME FILL-ORIGIN LEVEL: 0 DIFFERENT FILL-ORIGIN LEVEL: 0
L1D AVERAGE MISS LATENCY: 114.59 cycles
L1D RQ	ACCESS:   12327179	FORWARD:          0	MERGED:    5783800	TO_CACHE:    6411187
L1D WQ	ACCESS:    2217146	FORWARD:     132192	MERGED:          3	TO_CACHE:    2217143

Revised Interactions: positive negative neutral
L1D_interactions 0 0 0 -nan -nan -nan
L1D UNIQUE REGIONS ACCESSED: 0
L1D REGIONS CONFLICTS: 0
L1D Cross Page Prefetch Requests: 0
L1D Same Page Prefetch Requests: 0
L1D ROI Sum of L1D PQ occupancy: 0
L1D PREFETCHES PUSHED FROM L2C: 0
L1I TOTAL     ACCESS:    9592069  HIT:    9592069  MISS:          0  HIT %:        100  MISS %:          0   MPKI: 0
L1I LOAD      ACCESS:    9592069  HIT:    9592069  MISS:          0  HIT %:        100  MISS %:          0   MPKI: 0
L1I PREFETCH  REQUESTED:          0  ISSUED:          0  USEFUL:          0  USELESS:          0
L1I USEFUL LOAD PREFETCHES:          0 PREFETCH ISSUED TO LOWER LEVEL:          0  ACCURACY: -nan
L1I TIMELY PREFETCHES:          0 LATE PREFETCHES: 0 DROPPED PREFETCHES: 0
L1I PREFETCHES SAME FILL-ORIGIN LEVEL: 0 DIFFERENT FILL-ORIGIN LEVEL: 0
L1I AVERAGE MISS LATENCY: -nan cycles
L1I RQ	ACCESS:   14197551	FORWARD:          0	MERGED:    4605481	TO_CACHE:    9592070

Revised Interactions: positive negative neutral
L1I_interactions 0 0 0 -nan -nan -nan
BTB TOTAL     ACCESS:    6608312  HIT:    6608304  MISS:          8  HIT %:    99.9999  MISS %: 0.00012106   MPKI: 0.00016
BTB BRANCH_DIRECT_JUMP	ACCESS:    1137286  HIT:    1137284  MISS:          2
BTB BRANCH_INDIRECT	ACCESS:          0  HIT:          0  MISS:          0
BTB BRANCH_CONDITIONAL	ACCESS:    3253882  HIT:    3253878  MISS:          4
BTB BRANCH_DIRECT_CALL	ACCESS:    1108572  HIT:    1108571  MISS:          1
BTB BRANCH_INDIRECT_CALL	ACCESS:          0  HIT:          0  MISS:          0
BTB BRANCH_RETURN	ACCESS:    1108572  HIT:    1108571  MISS:          1
BTB BRANCH_OTHER ACCESS:          0  HIT:          0  MISS:          0

L2C TOTAL     ACCESS:    5718912  HIT:    3444104  MISS:    2274808  HIT %:    60.2231  MISS %:    39.7769   MPKI: 45.4962
L2C LOAD      ACCESS:    2634047  HIT:    1107670  MISS:    1526377  HIT %:     42.052  MISS %:     57.948   MPKI: 30.5275
L2C DATA LOAD MPKI: 30.5275
L2C INSTRUCTION LOAD MPKI: 0
L2C RFO       ACCESS:     138598  HIT:      11117  MISS:     127481  HIT %:    8.02104  MISS %:     91.979   MPKI: 2.54962
L2C PREFETCH  ACCESS:     567134  HIT:     566100  MISS:       1034  HIT %:    99.8177  MISS %:    0.18232   MPKI: 0.02068
L2C DATA PREFETCH MPKI: 0.02068
L2C INSTRUCTION PREFETCH MPKI: 0
L2C WRITEBACK ACCESS:    1108572  HIT:     785577  MISS:     322995  HIT %:    70.8639  MISS %:    29.1361   MPKI: 6.4599
L2C LOAD TRANSLATION ACCESS:    1270561  HIT:     973640  MISS:     296921  HIT %:    76.6307  MISS %:    23.3693   MPKI: 5.93842
L2C PREFETCH  REQUESTED:    1707052  ISSUED:    1707052  USEFUL:        280  USELESS:        822
L2C USEFUL LOAD PREFETCHES:        280 PREFETCH ISSUED TO LOWER LEVEL:    1009740  ACCURACY: 0.0277299
L2C TIMELY PREFETCHES:        280 LATE PREFETCHES: 11 DROPPED PREFETCHES: 0
L2C PREFETCHES SAME FILL-ORIGIN LEVEL: 1045 DIFFERENT FILL-ORIGIN LEVEL: 1008695
L2C AVERAGE MISS LATENCY: 128.074 cycles
L2C RQ	ACCESS:    4043206	FORWARD:          0	MERGED:          0	TO_CACHE:    4043206
L2C WQ	ACCESS:    1108572	FORWARD:          0	MERGED:          0	TO_CACHE:    1108572
L2C PQ	ACCESS:    1707052	FORWARD:          0	MERGED:      32693	TO_CACHE:    1674359

Revised Interactions: positive negative neutral
L2C_interactions 273 759 618 16.5455 46 37.4545
L2C Instructions Evicting Data 0
L2C Translations Evicting Data 228884
L2C Data Evicting Data 1480329
L2C Instructions Evicting Instructions 0
L2C Translations Evicting Instructions 0
L2C Data Evicting Instructions 0
L2C Instructions Evicting Translations 0
L2C Translations Evicting Translations 68037
L2C Data Evicting Translations 174563
L2C Dense regions hint from L2: 0
PSCL5 TOTAL     ACCESS:    1118089  HIT:    1118089  MISS:          0  HIT %:        100  MISS %:          0   MPKI: 0
PSCL5 LOAD TRANSLATION ACCESS:    1118089  HIT:    1118089  MISS:          0  HIT %:        100  MISS %:          0   MPKI: 0
PSCL5 PREFETCH  REQUESTED:          0  ISSUED:          0  USEFUL:          0  USELESS:          0
PSCL5 USEFUL LOAD PREFETCHES:          0 PREFETCH ISSUED TO LOWER LEVEL:          0  ACCURACY: -nan
PSCL5 TIMELY PREFETCHES:          0 LATE PREFETCHES: 0 DROPPED PREFETCHES: 0
PSCL5 PREFETCHES SAME FILL-ORIGIN LEVEL: 0 DIFFERENT FILL-ORIGIN LEVEL: 0

Revised Interactions: positive negative neutral
PSCL5_interactions 0 0 0 -nan -nan -nan
PSCL4 TOTAL     ACCESS:    1118089  HIT:    1118089  MISS:          0  HIT %:        100  MISS %:          0   MPKI: 0
PSCL4 LOAD TRANSLATION ACCESS:    1118089  HIT:    1118089  MISS:          0  HIT %:        100  MISS %:          0   MPKI: 0
PSCL4 PREFETCH  REQUESTED:          0  ISSUED:          0  USEFUL:          0  USELESS:          0
PSCL4 USEFUL LOAD PREFETCHES:          0 PREFETCH ISSUED TO LOWER LEVEL:          0  ACCURACY: -nan
PSCL4 TIMELY PREFETCHES:          0 LATE PREFETCHES: 0 DROPPED PREFETCHES: 0
PSCL4 PREFETCHES SAME FILL-ORIGIN LEVEL: 0 DIFFERENT FILL-ORIGIN LEVEL: 0

Revised Interactions: positive negative neutral
PSCL4_interactions 0 0 0 -nan -nan -nan
PSCL3 TOTAL     ACCESS:    1118089  HIT:    1118089  MISS:          0  HIT %:        100  MISS %:          0   MPKI: 0
PSCL3 LOAD TRANSLATION ACCESS:    1118089  HIT:    1118089  MISS:          0  HIT %:        100  MISS %:          0   MPKI: 0
PSCL3 PREFETCH  REQUESTED:          0  ISSUED:          0  USEFUL:          0  USELESS:          0
PSCL3 USEFUL LOAD PREFETCHES:          0 PREFETCH ISSUED TO LOWER LEVEL:          0  ACCURACY: -nan
PSCL3 TIMELY PREFETCHES:          0 LATE PREFETCHES: 0 DROPPED PREFETCHES: 0
PSCL3 PREFETCHES SAME FILL-ORIGIN LEVEL: 0 DIFFERENT FILL-ORIGIN LEVEL: 0

Revised Interactions: positive negative neutral
PSCL3_interactions 0 0 0 -nan -nan -nan
PSCL2 TOTAL     ACCESS:    1118089  HIT:     965617  MISS:     152472  HIT %:    86.3632  MISS %:    13.6368   MPKI: 3.04944
PSCL2 LOAD TRANSLATION ACCESS:    1118089  HIT:     965617  MISS:     152472  HIT %:    86.3632  MISS %:    13.6368   MPKI: 3.04944
PSCL2 PREFETCH  REQUESTED:          0  ISSUED:          0  USEFUL:          0  USELESS:          0
PSCL2 USEFUL LOAD PREFETCHES:          0 PREFETCH ISSUED TO LOWER LEVEL:          0  ACCURACY: -nan
PSCL2 TIMELY PREFETCHES:          0 LATE PREFETCHES: 0 DROPPED PREFETCHES: 0
PSCL2 PREFETCHES SAME FILL-ORIGIN LEVEL: 0 DIFFERENT FILL-ORIGIN LEVEL: 0

Revised Interactions: positive negative neutral
PSCL2_interactions 0 0 0 -nan -nan -nan
LLC TOTAL     ACCESS:    4063962  HIT:    2088023  MISS:    1975939  HIT %:     51.379  MISS %:     48.621   MPKI: 39.5188
LLC LOAD      ACCESS:    1526371  HIT:     234027  MISS:    1292344  HIT %:    15.3322  MISS %:    84.6678   MPKI: 25.8469
LLC RFO       ACCESS:     127476  HIT:     114437  MISS:      13039  HIT %:    89.7714  MISS %:    10.2286   MPKI: 0.26078
LLC PREFETCH  ACCESS:    1003951  HIT:     842704  MISS:     161247  HIT %:    83.9388  MISS %:    16.0612   MPKI: 3.22494
LLC WRITEBACK ACCESS:    1109243  HIT:     640208  MISS:     469035  HIT %:    57.7158  MISS %:    42.2842   MPKI: 9.3807
LLC LOAD TRANSLATION ACCESS:     296921  HIT:     256647  MISS:      40274  HIT %:    86.4361  MISS %:    13.5639   MPKI: 0.80548
LLC PREFETCH  REQUESTED:          0  ISSUED:          0  USEFUL:      17278  USELESS:     143416
LLC USEFUL LOAD PREFETCHES:      17278 PREFETCH ISSUED TO LOWER LEVEL:     163769  ACCURACY: 10.5502
LLC TIMELY PREFETCHES:      17278 LATE PREFETCHES: 2522 DROPPED PREFETCHES: 0
LLC PREFETCHES SAME FILL-ORIGIN LEVEL: 163557 DIFFERENT FILL-ORIGIN LEVEL: 0
LLC AVERAGE MISS LATENCY: 134.028 cycles
LLC RQ	ACCESS:    1950768	FORWARD:          0	MERGED:          0	TO_CACHE:    1950768
LLC WQ	ACCESS:    1109243	FORWARD:          0	MERGED:          0	TO_CACHE:    1109243
LLC PQ	ACCESS:    1009740	FORWARD:          0	MERGED:       2606	TO_CACHE:    1007134

Revised Interactions: positive negative neutral
LLC_interactions 13117 147995 100965 5.00502 56.47 38.5249
LLC Dense regions hint to LLC: 0

RAW hits: 974766
Loads Generated: 13301945
Loads sent to L1D: 12327179
Stores Generated: 2217144
Stores sent to L1D: 2217146
Major fault: 0 Minor fault: 42623
Allocated PAGES: 42623
 All Calls: 4625795
 Critical Calls: 4625795
------------------
Depth Distribution
------------------
depth 0: 0
depth 1: 3002155
depth 2: 44423
depth 3: 2426
depth 4: 54
depth 5: 0
depth 6: 0
depth 7: 0
depth 8: 0
depth 9: 0
depth 10: 0
depth 11: 0
depth 12: 0
depth 13: 0
depth 14: 0
depth 15: 0
depth 16: 0
depth 17: 0
depth 18: 0
depth 19: 0
depth 20: 0
depth 21: 0
depth 22: 0
depth 23: 0
depth 24: 0
depth 25: 0
depth 26: 0
depth 27: 0
depth 28: 0
depth 29: 0
Total: 3049058
-----------------------------
-----------------------------
	Captured at Filter
-----------------------------
depth 0: 0
depth 1: 9049
depth 2: 1372
depth 3: 179
depth 4: 9
depth 5: 0
depth 6: 0
depth 7: 0
depth 8: 0
depth 9: 0
depth 10: 0
depth 11: 0
depth 12: 0
depth 13: 0
depth 14: 0
depth 15: 0
depth 16: 0
depth 17: 0
depth 18: 0
depth 19: 0
depth 20: 0
depth 21: 0
depth 22: 0
depth 23: 0
depth 24: 0
depth 25: 0
depth 26: 0
depth 27: 0
depth 28: 0
depth 29: 0
-----------------------------
-----------------------------
		Lost at Page
-----------------------------
depth 0: 0
depth 1: 160639
depth 2: 3655
depth 3: 310
depth 4: 1
depth 5: 0
depth 6: 0
depth 7: 0
depth 8: 0
depth 9: 0
depth 10: 0
depth 11: 0
depth 12: 0
depth 13: 0
depth 14: 0
depth 15: 0
depth 16: 0
depth 17: 0
depth 18: 0
depth 19: 0
depth 20: 0
depth 21: 0
depth 22: 0
depth 23: 0
depth 24: 0
depth 25: 0
depth 26: 0
depth 27: 0
depth 28: 0
depth 29: 0
-----------------------------
-----------------------------
	Lost due to PQ Size
-----------------------------
0
-----------------------------
ST read accesses: 1418531
ST write accesses: 1215516
PT read accesses: 23169099
PT write accesses: 1516675
FILTER read accesses: 6617565
FILTER write accesses: 2318160
GHR read accesses: 10280019
GHR write accesses: 64005
GHR counter read accesses: 22276050
GHR counter write accesses: 2637830
ST tag read accesses: 1635065741
ST tag write accesses: 313812174

DRAM Statistics
 CHANNEL 0
 RQ ROW_BUFFER_HIT:       6842  ROW_BUFFER_MISS:    1499973
 DBUS_CONGESTED:          9
 WQ ROW_BUFFER_HIT:     354113  ROW_BUFFER_MISS:     753848  FULL:          0

 AVG_CONGESTED_CYCLE: 6
 All warmup complete: 2
Channel 0 Bank busy for read cycles: 0
Channel 0 Bank busy for write cycles: 0
Channel 0
Rank 0
0banks busy for read cycles: 3964885
0banks busy for write cycles: 75710
1banks busy for read cycles: 42916056
1banks busy for write cycles: 9011922
2banks busy for read cycles: 27866792
2banks busy for write cycles: 12825329
3banks busy for read cycles: 24024587
3banks busy for write cycles: 14747187
4banks busy for read cycles: 10792147
4banks busy for write cycles: 12633005
5banks busy for read cycles: 1573795
5banks busy for write cycles: 8246314
6banks busy for read cycles: 488698
6banks busy for write cycles: 4783665
7banks busy for read cycles: 91208
7banks busy for write cycles: 2829490
8banks busy for read cycles: 1112
8banks busy for write cycles: 1899927

CPU 0 Branch Prediction Accuracy: 99.9768% MPKI: 0.03616 Average ROB Occupancy at Mispredict: 180.373
Branch types
NOT_BRANCH: 42211281 84.4226%
BRANCH_DIRECT_JUMP: 1137286 2.27457%
BRANCH_INDIRECT: 0 0%
BRANCH_CONDITIONAL: 4434288 8.86858%
BRANCH_DIRECT_CALL: 1108572 2.21714%
BRANCH_INDIRECT_CALL: 0 0%
BRANCH_RETURN: 1108572 2.21714%
BRANCH_OTHER: 0 0%

@sumon_overall_L1D         0         0         0         0         0         0         0
@Sumon_Early_by_class_L1D         0         0         0         0
@Sumon_Late_by_class_L1D         0         0         0         0

@Sumon_Early_by_cycle_L1D         0         0         0         0         0         0         0         0         0         0         0         0
@Sumon_Late_by_cycle_L1D         0         0         0         0         0         0
@Sumon_Early_stream_L1D         0         0         0         0         0         0         0         0         0         0         0         0
@Sumon_Early_CS_L1D         0         0         0         0         0         0         0         0         0         0         0         0
@Sumon_Early_CPLX_L1D         0         0         0         0         0         0         0         0         0         0         0         0
@Sumon_Late_stream_L1D         0         0         0         0         0         0
@Sumon_Late_CS_L1D         0         0         0         0         0         0
@Sumon_Late_CPLX_L1D         0         0         0         0         0         0
@sumon_overall_L2C       280        11         0       822      1034   1707052   1707052
@Sumon_Early_by_class_L2C         0         0         0         0
@Sumon_Late_by_class_L2C         0         0         0         0

@Sumon_Early_by_cycle_L2C        66       147        58         4         0         0         0         0         0         0         0         5
@Sumon_Late_by_cycle_L2C         0         3         3         1         4         0
@Sumon_Early_stream_L2C         0         0         0         0         0         0         0         0         0         0         0         0
@Sumon_Early_CS_L2C         0         0         0         0         0         0         0         0         0         0         0         0
@Sumon_Early_CPLX_L2C         0         0         0         0         0         0         0         0         0         0         0         0
@Sumon_Late_stream_L2C         0         0         0         0         0         0
@Sumon_Late_CS_L2C         0         0         0         0         0         0
@Sumon_Late_CPLX_L2C         0         0         0         0         0         0
DRAM PAGES: 1048576
Allocated PAGES: 42623
