Initialize SIGNATURE TABLE
ST_SET: 1
ST_WAY: 256
ST_TAG_BIT: 16
ST_TAG_MASK: ffff

Initialize PATTERN TABLE
PT_SET: 512
PT_WAY: 4
SIG_DELTA_BIT: 7
C_SIG_BIT: 4
C_DELTA_BIT: 4

Initialize PREFETCH FILTER
FILTER_SET: 1024

*** ChampSim Multicore Out-of-Order Simulator ***

Warmup Instructions: 50000000
Simulation Instructions: 50000000
Number of CPUs: 1
LLC sets: 2048
LLC ways: 16
Off-chip DRAM Size: 4096 MB Channels: 1 Width: 64-bit Data Rate: 6400 MT/s
CPU 0 runs ../../biswa/SPEC2017Traces/605.mcf_s-472B.champsimtrace.xz
.xz
CPU 0 Bimodal branch predictor
BTB has LRU replacement policy
ITLB has LRU replacement policy
DTLB has LRU replacement policy
STLB has LRU replacement policy
L1I has LRU replacement policy
L1D has LRU replacement policy
ST_WAYS: 256
PT_SETS: 512
Initialize DRRIP state for L2C
Initialize Hawkeye state
epoch: 1000
next table: 2501
cur table: 9668
epoch: 1000
next table: 2204
cur table: 2501
epoch: 1000
next table: 2107
cur table: 2204
epoch: 1000
next table: 2101
cur table: 2107
epoch: 1000
next table: 2039
cur table: 2101
epoch: 1000
next table: 2050
cur table: 2039
epoch: 1000
next table: 2033
cur table: 2050
epoch: 1000
next table: 2029
cur table: 2033
epoch: 1000
next table: 2045
cur table: 2029
epoch: 1000
next table: 2020
cur table: 2045
epoch: 1000
next table: 2024
cur table: 2020
epoch: 1000
next table: 2022
cur table: 2024
epoch: 1000
next table: 2043
cur table: 2022
epoch: 1000
next table: 2028
cur table: 2043
epoch: 1000
next table: 2029
cur table: 2028
epoch: 1000
next table: 2036
cur table: 2029
epoch: 1000
next table: 2039
cur table: 2036
epoch: 1000
next table: 2708
cur table: 22606
epoch: 1000
next table: 2045
cur table: 2039
epoch: 1000
next table: 2064
cur table: 2045
epoch: 1000
next table: 2552
cur table: 2708
epoch: 1000
next table: 2020
cur table: 2064
epoch: 1000
next table: 2380
cur table: 2552
epoch: 1000
next table: 2055
cur table: 2020
epoch: 1000
next table: 2072
cur table: 2055
epoch: 1000
next table: 2278
cur table: 2380
epoch: 1000
next table: 2057
cur table: 2072
epoch: 1000
next table: 2278
cur table: 2278
epoch: 1000
next table: 2049
cur table: 2057
epoch: 1000
next table: 2132
cur table: 2278
epoch: 1000
next table: 2051
cur table: 2049
epoch: 1000
next table: 2048
cur table: 2051
epoch: 1000
next table: 2106
cur table: 2132
epoch: 1000
next table: 2059
cur table: 2048
epoch: 1000
next table: 2006
cur table: 2106
epoch: 1000
next table: 2055
cur table: 2059
epoch: 1000
next table: 1976
cur table: 2006
epoch: 1000
next table: 2053
cur table: 2055
epoch: 1000
next table: 1909
cur table: 1976
epoch: 1000
next table: 2044
cur table: 2053
epoch: 1000
next table: 1931
cur table: 1909
epoch: 1000
next table: 2025
cur table: 2044
epoch: 1000
next table: 1941
cur table: 1931
epoch: 1000
next table: 2081
cur table: 2025
epoch: 1000
next table: 1934
cur table: 1941
epoch: 1000
next table: 2024
cur table: 2081
epoch: 1000
next table: 1886
cur table: 1934
epoch: 1000
next table: 2055
cur table: 2024
epoch: 1000
next table: 1898
cur table: 1886
epoch: 1000
next table: 2028
cur table: 2055
epoch: 1000
next table: 1901
cur table: 1898
epoch: 1000
next table: 2025
cur table: 2028
epoch: 1000
next table: 1932
cur table: 1901
epoch: 1000
next table: 2053
cur table: 2025
epoch: 1000
next table: 1924
cur table: 1932
epoch: 1000
next table: 2057
cur table: 2053
epoch: 1000
next table: 1907
cur table: 1924
epoch: 1000
next table: 2028
cur table: 2057
epoch: 1000
next table: 1911
cur table: 1907
epoch: 1000
next table: 2027
cur table: 2028
epoch: 1000
next table: 1886
cur table: 1911
epoch: 1000
next table: 2062
cur table: 2027
epoch: 1000
next table: 1907
cur table: 1886
epoch: 1000
next table: 2060
cur table: 2062
epoch: 1000
next table: 1886
cur table: 1907
epoch: 1000
next table: 2048
cur table: 2060
epoch: 1000
next table: 1903
cur table: 1886
epoch: 1000
next table: 1889
cur table: 1903
epoch: 1000
next table: 2048
cur table: 2048
epoch: 1000
next table: 1883
cur table: 1889
epoch: 1000
next table: 2061
cur table: 2048
epoch: 1000
next table: 1875
cur table: 1883
epoch: 1000
next table: 2085
cur table: 2061
epoch: 1000
next table: 1884
cur table: 1875
epoch: 1000
next table: 2055
cur table: 2085
epoch: 1000
next table: 1896
cur table: 1884
epoch: 1000
next table: 2056
cur table: 2055
epoch: 1000
next table: 1899
cur table: 1896
epoch: 1000
next table: 2055
cur table: 2056
epoch: 1000
next table: 1876
cur table: 1899
epoch: 1000
next table: 2051
cur table: 2055
epoch: 1000
next table: 1893
cur table: 1876
epoch: 1000
next table: 2058
cur table: 2051
epoch: 1000
next table: 1883
cur table: 1893
epoch: 1000
next table: 2096
cur table: 2058
epoch: 1000
next table: 1881
cur table: 1883
epoch: 1000
next table: 2048
cur table: 2096
epoch: 1000
next table: 1894
cur table: 1881
epoch: 1000
next table: 2033
cur table: 2048
epoch: 1000
next table: 1874
cur table: 1894
epoch: 1000
next table: 2021
cur table: 2033
epoch: 1000
next table: 1869
cur table: 1874
epoch: 1000
next table: 2022
cur table: 2021
epoch: 1000
next table: 1879
cur table: 1869
epoch: 1000
next table: 2020
cur table: 2022
epoch: 1000
next table: 1882
cur table: 1879
epoch: 1000
next table: 2022
cur table: 2020
epoch: 1000
next table: 1912
cur table: 1882
epoch: 1000
next table: 2020
cur table: 2022
epoch: 1000
next table: 1890
cur table: 1912
epoch: 1000
next table: 2023
cur table: 2020
epoch: 1000
next table: 1928
cur table: 1890
epoch: 1000
next table: 2032
cur table: 2023
epoch: 1000
next table: 1901
cur table: 1928
epoch: 1000
next table: 2025
cur table: 2032
epoch: 1000
next table: 1834
cur table: 1901
epoch: 1000
next table: 2032
cur table: 2025
epoch: 1000
next table: 1804
cur table: 1834
epoch: 1000
next table: 2031
cur table: 2032
epoch: 1000
next table: 1834
cur table: 1804
epoch: 1000
next table: 1856
cur table: 1834
epoch: 1000
next table: 2029
cur table: 2031
epoch: 1000
next table: 1888
cur table: 1856
epoch: 1000
next table: 2055
cur table: 2029
epoch: 1000
next table: 1832
cur table: 1888
epoch: 1000
next table: 2020
cur table: 2055
epoch: 1000
next table: 1833
cur table: 1832
epoch: 1000
next table: 2038
cur table: 2020
epoch: 1000
next table: 1782
cur table: 1833
epoch: 1000
next table: 2022
cur table: 2038
epoch: 1000
next table: 1771
cur table: 1782
epoch: 1000
next table: 2039
cur table: 2022
epoch: 1000
next table: 1814
cur table: 1771
epoch: 1000
next table: 2024
cur table: 2039
epoch: 1000
next table: 1831
cur table: 1814
epoch: 1000
next table: 2033
cur table: 2024
epoch: 1000
next table: 1819
cur table: 1831
epoch: 1000
next table: 2053
cur table: 2033
epoch: 1000
next table: 1848
cur table: 1819
epoch: 1000
next table: 2035
cur table: 2053
epoch: 1000
next table: 1851
cur table: 1848
epoch: 1000
next table: 2084
cur table: 2035
epoch: 1000
next table: 1827
cur table: 1851
epoch: 1000
next table: 2036
cur table: 2084
epoch: 1000
next table: 1845
cur table: 1827
epoch: 1000
next table: 2065
cur table: 2036
epoch: 1000
next table: 1819
cur table: 1845
epoch: 1000
next table: 1840
cur table: 1819
epoch: 1000
next table: 2050
cur table: 2065
epoch: 1000
next table: 1870
cur table: 1840
epoch: 1000
next table: 2079
cur table: 2050
epoch: 1000
next table: 1860
cur table: 1870
epoch: 1000
next table: 2064
cur table: 2079
epoch: 1000
next table: 1864
cur table: 1860
epoch: 1000
next table: 2039
cur table: 2064
epoch: 1000
next table: 1851
cur table: 1864
epoch: 1000
next table: 2034
cur table: 2039
epoch: 1000
next table: 1887
cur table: 1851
epoch: 1000
next table: 2108
cur table: 2034
epoch: 1000
next table: 1880
cur table: 1887
epoch: 1000
next table: 2042
cur table: 2108
epoch: 1000
next table: 1863
cur table: 1880
epoch: 1000
next table: 2066
cur table: 2042
epoch: 1000
next table: 1947
cur table: 1863
epoch: 1000
next table: 2023
cur table: 2066
epoch: 1000
next table: 2044
cur table: 1947
epoch: 1000
next table: 2092
cur table: 2023
epoch: 1000
next table: 2038
cur table: 2092
epoch: 1000
next table: 2102
cur table: 2044
epoch: 1000
next table: 2028
cur table: 2038
epoch: 1000
next table: 2311
cur table: 2102
epoch: 1000
next table: 2041
cur table: 2028
epoch: 1000
next table: 2032
cur table: 2041
epoch: 1000
next table: 2564
cur table: 2311
epoch: 1000
next table: 2024
cur table: 2032
epoch: 1000
next table: 2027
cur table: 2024
epoch: 1000
next table: 2049
cur table: 2027
epoch: 1000
next table: 4126
cur table: 2564
epoch: 1000
next table: 2023
cur table: 2049
epoch: 1000
next table: 2038
cur table: 2023
epoch: 1000
next table: 2027
cur table: 2038
epoch: 1000
next table: 2047
cur table: 2027
epoch: 1000
next table: 4451
cur table: 4126
epoch: 1000
next table: 2019
cur table: 2047
epoch: 1000
next table: 2052
cur table: 2019
epoch: 1000
next table: 2635
cur table: 4451
epoch: 1000
next table: 2024
cur table: 2052
epoch: 1000
next table: 2227
cur table: 2635
epoch: 1000
next table: 2036
cur table: 2024
epoch: 1000
next table: 2044
cur table: 2036
epoch: 1000
next table: 2250
cur table: 2227
epoch: 1000
next table: 2038
cur table: 2044
epoch: 1000
next table: 2300
cur table: 2250
epoch: 1000
next table: 2045
cur table: 2038
epoch: 1000
next table: 2268
cur table: 2300
epoch: 1000
next table: 2069
cur table: 2045
epoch: 1000
next table: 2020
cur table: 2069
epoch: 1000
next table: 2252
cur table: 2268
epoch: 1000
next table: 2074
cur table: 2020
epoch: 1000
next table: 2307
cur table: 2252
epoch: 1000
next table: 2045
cur table: 2074
epoch: 1000
next table: 2040
cur table: 2045
epoch: 1000
next table: 2231
cur table: 2307
epoch: 1000
next table: 2050
cur table: 2040
epoch: 1000
next table: 2224
cur table: 2231
epoch: 1000
next table: 2045
cur table: 2050
epoch: 1000
next table: 1968
cur table: 2224
epoch: 1000
next table: 2050
cur table: 2045
epoch: 1000
next table: 1973
cur table: 1968
epoch: 1000
next table: 2051
cur table: 2050
epoch: 1000
next table: 1939
cur table: 1973
epoch: 1000
next table: 2050
cur table: 2051
epoch: 1000
next table: 1932
cur table: 1939
epoch: 1000
next table: 2059
cur table: 2050
epoch: 1000
next table: 1924
cur table: 1932
epoch: 1000
next table: 2037
cur table: 2059
epoch: 1000
next table: 1915
cur table: 1924
epoch: 1000
next table: 2039
cur table: 2037
epoch: 1000
next table: 1891
cur table: 1915
epoch: 1000
next table: 2049
cur table: 2039
epoch: 1000
next table: 1911
cur table: 1891
epoch: 1000
next table: 2035
cur table: 2049
epoch: 1000
next table: 1907
cur table: 1911
epoch: 1000
next table: 2046
cur table: 2035
epoch: 1000
next table: 1870
cur table: 1907
epoch: 1000
next table: 2025
cur table: 2046
epoch: 1000
next table: 1874
cur table: 1870
epoch: 1000
next table: 2051
cur table: 2025
epoch: 1000
next table: 1887
cur table: 1874
epoch: 1000
next table: 2024
cur table: 2051
epoch: 1000
next table: 1859
cur table: 1887
epoch: 1000
next table: 2058
cur table: 2024
epoch: 1000
next table: 1847
cur table: 1859
epoch: 1000
next table: 2033
cur table: 2058
epoch: 1000
next table: 1868
cur table: 1847
epoch: 1000
next table: 2040
cur table: 2033
epoch: 1000
next table: 1851
cur table: 1868
epoch: 1000
next table: 2050
cur table: 2040
epoch: 1000
next table: 1865
cur table: 1851
epoch: 1000
next table: 2048
cur table: 2050
epoch: 1000
next table: 1881
cur table: 1865
epoch: 1000
next table: 1857
cur table: 1881
epoch: 1000
next table: 2059
cur table: 2048
epoch: 1000
next table: 1883
cur table: 1857
epoch: 1000
next table: 2037
cur table: 2059
epoch: 1000
next table: 1862
cur table: 1883
epoch: 1000
next table: 2057
cur table: 2037
epoch: 1000
next table: 1871
cur table: 1862
epoch: 1000
next table: 2077
cur table: 2057
epoch: 1000
next table: 1853
cur table: 1871
epoch: 1000
next table: 2043
cur table: 2077
epoch: 1000
next table: 1874
cur table: 1853
epoch: 1000
next table: 2061
cur table: 2043
epoch: 1000
next table: 1834
cur table: 1874
epoch: 1000
next table: 2059
cur table: 2061
epoch: 1000
next table: 1859
cur table: 1834
epoch: 1000
next table: 2056
cur table: 2059
epoch: 1000
next table: 1855
cur table: 1859
epoch: 1000
next table: 2051
cur table: 2056
epoch: 1000
next table: 1865
cur table: 1855
epoch: 1000
next table: 2088
cur table: 2051
epoch: 1000
next table: 1848
cur table: 1865
epoch: 1000
next table: 2049
cur table: 2088
epoch: 1000
next table: 1882
cur table: 1848
epoch: 1000
next table: 2054
cur table: 2049
epoch: 1000
next table: 1847
cur table: 1882
epoch: 1000
next table: 2019
cur table: 2054
epoch: 1000
next table: 1870
cur table: 1847
epoch: 1000
next table: 2024
cur table: 2019
epoch: 1000
next table: 1865
cur table: 1870
epoch: 1000
next table: 1874
cur table: 1865
epoch: 1000
next table: 2020
cur table: 2024
epoch: 1000
next table: 1867
cur table: 1874
epoch: 1000
next table: 2022
cur table: 2020
epoch: 1000
next table: 1870
cur table: 1867
epoch: 1000
next table: 2021
cur table: 2022
epoch: 1000
next table: 1878
cur table: 1870
epoch: 1000
next table: 2023
cur table: 2021
epoch: 1000
next table: 1909
cur table: 1878
epoch: 1000
next table: 2032
cur table: 2023
epoch: 1000
next table: 1811
cur table: 1909
epoch: 1000
next table: 2033
cur table: 2032
epoch: 1000
next table: 1790
cur table: 1811
epoch: 1000
next table: 2020
cur table: 2033
epoch: 1000
next table: 1794
cur table: 1790
epoch: 1000
next table: 2029
cur table: 2020
epoch: 1000
next table: 1821
cur table: 1794
epoch: 1000
next table: 2037
cur table: 2029
epoch: 1000
next table: 1830
cur table: 1821
epoch: 1000
next table: 2022
cur table: 2037
epoch: 1000
next table: 1822
cur table: 1830
epoch: 1000
next table: 1850
cur table: 1822
epoch: 1000
next table: 2053
cur table: 2022
epoch: 1000
next table: 1806
cur table: 1850
epoch: 1000
next table: 2036
cur table: 2053
epoch: 1000
next table: 1820
cur table: 1806
epoch: 1000
next table: 2035
cur table: 2036
epoch: 1000
next table: 1786
cur table: 1820
epoch: 1000
next table: 2017
cur table: 2035
epoch: 1000
next table: 1760
cur table: 1786
epoch: 1000
next table: 2034
cur table: 2017
epoch: 1000
next table: 1816
cur table: 1760
epoch: 1000
next table: 2066
cur table: 2034
epoch: 1000
next table: 1780
cur table: 1816
epoch: 1000
next table: 2019
cur table: 2066
epoch: 1000
next table: 1768
cur table: 1780
epoch: 1000
next table: 2044
cur table: 2019
epoch: 1000
next table: 1736
cur table: 1768
epoch: 1000
next table: 2031
cur table: 2044
epoch: 1000
next table: 1769
cur table: 1736
epoch: 1000
next table: 2029
cur table: 2031
epoch: 1000
next table: 1794
cur table: 1769
epoch: 1000
next table: 2075
cur table: 2029
epoch: 1000
next table: 1810
cur table: 1794
epoch: 1000
next table: 2037
cur table: 2075
epoch: 1000
next table: 1756
cur table: 1810
epoch: 1000
next table: 1767
cur table: 1756
epoch: 1000
next table: 2053
cur table: 2037
epoch: 1000
next table: 1791
cur table: 1767
epoch: 1000
next table: 2029
cur table: 2053
epoch: 1000
next table: 1813
cur table: 1791
epoch: 1000
next table: 2073
cur table: 2029
epoch: 1000
next table: 1806
cur table: 1813
epoch: 1000
next table: 2019
cur table: 2073
epoch: 1000
next table: 1717
cur table: 1806
epoch: 1000
next table: 2017
cur table: 2019
epoch: 1000
next table: 1772
cur table: 1717
epoch: 1000
next table: 2030
cur table: 2017
epoch: 1000
next table: 1799
cur table: 1772
epoch: 1000
next table: 2033
cur table: 2030
epoch: 1000
next table: 1814
cur table: 1799
epoch: 1000
next table: 2076
cur table: 2033
epoch: 1000
next table: 1791
cur table: 1814
epoch: 1000
next table: 2026
cur table: 2076
epoch: 1000
next table: 1799
cur table: 1791
epoch: 1000
next table: 2051
cur table: 2026
epoch: 1000
next table: 1828
cur table: 1799
epoch: 1000
next table: 2018
cur table: 2051
epoch: 1000
next table: 1847
cur table: 1828
epoch: 1000
next table: 2023
cur table: 2018
epoch: 1000
next table: 1845
cur table: 1847
epoch: 1000
next table: 2048
cur table: 2023
epoch: 1000
next table: 1863
cur table: 1845
epoch: 1000
next table: 2025
cur table: 2048
epoch: 1000
next table: 1900
cur table: 1863
epoch: 1000
next table: 2032
cur table: 2025
epoch: 1000
next table: 1942
cur table: 1900
epoch: 1000
next table: 2018
cur table: 2032
epoch: 1000
next table: 2020
cur table: 1942
epoch: 1000
next table: 2037
cur table: 2018
epoch: 1000
next table: 2059
cur table: 2020
epoch: 1000
next table: 2036
cur table: 2037
epoch: 1000
next table: 2117
cur table: 2059
epoch: 1000
next table: 2021
cur table: 2036
epoch: 1000
next table: 2021
cur table: 2021
epoch: 1000
next table: 2189
cur table: 2117
epoch: 1000
next table: 2020
cur table: 2021
epoch: 1000
next table: 2243
cur table: 2189
epoch: 1000
next table: 2048
cur table: 2020
epoch: 1000
next table: 2239
cur table: 2243
epoch: 1000
next table: 2035
cur table: 2048
epoch: 1000
next table: 2050
cur table: 2035
epoch: 1000
next table: 2212
cur table: 2239
epoch: 1000
next table: 2070
cur table: 2050
epoch: 1000
next table: 2201
cur table: 2212
epoch: 1000
next table: 2059
cur table: 2070
epoch: 1000
next table: 2229
cur table: 2201
epoch: 1000
next table: 2048
cur table: 2059
epoch: 1000
next table: 2053
cur table: 2048
epoch: 1000
next table: 2180
cur table: 2229
epoch: 1000
next table: 2050
cur table: 2053
epoch: 1000
next table: 2151
cur table: 2180
epoch: 1000
next table: 2023
cur table: 2050
epoch: 1000
next table: 2155
cur table: 2151
epoch: 1000
next table: 2076
cur table: 2023
epoch: 1000
next table: 2215
cur table: 2155
epoch: 1000
next table: 2027
cur table: 2076
epoch: 1000
next table: 2078
cur table: 2027
epoch: 1000
next table: 2116
cur table: 2215
epoch: 1000
next table: 2041
cur table: 2078
epoch: 1000
next table: 2156
cur table: 2116
epoch: 1000
next table: 2045
cur table: 2041
epoch: 1000
next table: 2111
cur table: 2156
epoch: 1000
next table: 2034
cur table: 2045
epoch: 1000
next table: 2171
cur table: 2111
epoch: 1000
next table: 2056
cur table: 2034
epoch: 1000
next table: 2043
cur table: 2056
epoch: 1000
next table: 2136
cur table: 2171
epoch: 1000
next table: 2048
cur table: 2043
epoch: 1000
next table: 2195
cur table: 2136
epoch: 1000
next table: 2022
cur table: 2048
epoch: 1000
next table: 2218
cur table: 2195
epoch: 1000
next table: 2028
cur table: 2022
epoch: 1000
next table: 2204
cur table: 2218
epoch: 1000
next table: 2045
cur table: 2028
epoch: 1000
next table: 2054
cur table: 2045
epoch: 1000
next table: 2181
cur table: 2204
epoch: 1000
next table: 2025
cur table: 2054
epoch: 1000
next table: 2188
cur table: 2181
epoch: 1000
next table: 2031
cur table: 2025
epoch: 1000
next table: 2246
cur table: 2188
epoch: 1000
next table: 2048
cur table: 2031
epoch: 1000
next table: 2020
cur table: 2048
epoch: 1000
next table: 2109
cur table: 2246
epoch: 1000
next table: 2060
cur table: 2020
epoch: 1000
next table: 2058
cur table: 2109
epoch: 1000
next table: 2049
cur table: 2060
epoch: 1000
next table: 2000
cur table: 2058
epoch: 1000
next table: 2078
cur table: 2049
epoch: 1000
next table: 2031
cur table: 2000
epoch: 1000
next table: 2075
cur table: 2078
epoch: 1000
next table: 1937
cur table: 2031
epoch: 1000
next table: 2046
cur table: 2075
epoch: 1000
next table: 1902
cur table: 1937
epoch: 1000
next table: 2066
cur table: 2046
epoch: 1000
next table: 1862
cur table: 1902
epoch: 1000
next table: 2059
cur table: 2066
epoch: 1000
next table: 1894
cur table: 1862
epoch: 1000
next table: 2054
cur table: 2059
epoch: 1000
next table: 1876
cur table: 1894
epoch: 1000
next table: 2054
cur table: 2054
epoch: 1000
next table: 1873
cur table: 1876
epoch: 1000
next table: 2053
cur table: 2054
epoch: 1000
next table: 1853
cur table: 1873
epoch: 1000
next table: 2052
cur table: 2053
epoch: 1000
next table: 1852
cur table: 1853
epoch: 1000
next table: 2042
cur table: 2052
epoch: 1000
next table: 1857
cur table: 1852
epoch: 1000
next table: 2049
cur table: 2042
epoch: 1000
next table: 1865
cur table: 1857
epoch: 1000
next table: 1866
cur table: 1865
epoch: 1000
next table: 2021
cur table: 2049
epoch: 1000
next table: 1894
cur table: 1866
epoch: 1000
next table: 2020
cur table: 2021
epoch: 1000
next table: 1892
cur table: 1894
epoch: 1000
next table: 2021
cur table: 2020
epoch: 1000
next table: 1889
cur table: 1892
epoch: 1000
next table: 2022
cur table: 2021
epoch: 1000
next table: 1882
cur table: 1889
epoch: 1000
next table: 2020
cur table: 2022
epoch: 1000
next table: 1921
cur table: 1882
epoch: 1000
next table: 2034
cur table: 2020
epoch: 1000
next table: 1889
cur table: 1921
epoch: 1000
next table: 2022
cur table: 2034
epoch: 1000
next table: 1809
cur table: 1889
epoch: 1000
next table: 2017
cur table: 2022
epoch: 1000
next table: 1790
cur table: 1809
epoch: 1000
next table: 2026
cur table: 2017
epoch: 1000
next table: 1819
cur table: 1790
epoch: 1000
next table: 2048
cur table: 2026
epoch: 1000
next table: 1842
cur table: 1819
epoch: 1000
next table: 2025
cur table: 2048
epoch: 1000
next table: 1831
cur table: 1842
epoch: 1000
next table: 2031
cur table: 2025
epoch: 1000
next table: 1831
cur table: 1831
epoch: 1000
next table: 2060
cur table: 2031
epoch: 1000
next table: 1823
cur table: 1831
epoch: 1000
next table: 2034
cur table: 2060
epoch: 1000
next table: 1772
cur table: 1823
epoch: 1000
next table: 1737
cur table: 1772
epoch: 1000
next table: 2026
cur table: 2034
epoch: 1000
next table: 1805
cur table: 1737
epoch: 1000
next table: 2080
cur table: 2026
epoch: 1000
next table: 1791
cur table: 1805
epoch: 1000
next table: 2035
cur table: 2080
epoch: 1000
next table: 1761
cur table: 1791
epoch: 1000
next table: 2039
cur table: 2035
epoch: 1000
next table: 1717
cur table: 1761
epoch: 1000
next table: 2028
cur table: 2039
epoch: 1000
next table: 1792
cur table: 1717
epoch: 1000
next table: 2025
cur table: 2028
epoch: 1000
next table: 1830
cur table: 1792
epoch: 1000
next table: 2058
cur table: 2025
epoch: 1000
next table: 1793
cur table: 1830
epoch: 1000
next table: 2032
cur table: 2058
epoch: 1000
next table: 1757
cur table: 1793
epoch: 1000
next table: 2017
cur table: 2032
epoch: 1000
next table: 1797
cur table: 1757
epoch: 1000
next table: 2053
cur table: 2017
epoch: 1000
next table: 1722
cur table: 1797
epoch: 1000
next table: 2028
cur table: 2053
epoch: 1000
next table: 1751
cur table: 1722
epoch: 1000
next table: 2036
cur table: 2028
epoch: 1000
next table: 1776
cur table: 1751
epoch: 1000
next table: 2031
cur table: 2036
epoch: 1000
next table: 1794
cur table: 1776
epoch: 1000
next table: 2018
cur table: 2031
epoch: 1000
next table: 1811
cur table: 1794
epoch: 1000
next table: 2029
cur table: 2018
epoch: 1000
next table: 1833
cur table: 1811
epoch: 1000
next table: 2017
cur table: 2029
epoch: 1000
next table: 1855
cur table: 1833
epoch: 1000
next table: 2028
cur table: 2017
epoch: 1000
next table: 1866
cur table: 1855
epoch: 1000
next table: 2019
cur table: 2028
epoch: 1000
next table: 1864
cur table: 1866
epoch: 1000
next table: 1851
cur table: 1864
epoch: 1000
next table: 2022
cur table: 2019
epoch: 1000
next table: 1850
cur table: 1851
epoch: 1000
next table: 2036
cur table: 2022
epoch: 1000
next table: 1836
cur table: 1850
epoch: 1000
next table: 2053
cur table: 2036
epoch: 1000
next table: 1928
cur table: 1836
epoch: 1000
next table: 2022
cur table: 2053
epoch: 1000
next table: 1946
cur table: 1928
epoch: 1000
next table: 2050
cur table: 2022
epoch: 1000
next table: 2011
cur table: 1946
epoch: 1000
next table: 2022
cur table: 2050
epoch: 1000
next table: 2018
cur table: 2022
epoch: 1000
next table: 1969
cur table: 2011
epoch: 1000
next table: 2026
cur table: 2018
epoch: 1000
next table: 2044
cur table: 1969
epoch: 1000
next table: 2033
cur table: 2026
epoch: 1000
next table: 2255
cur table: 2044
epoch: 1000
next table: 2040
cur table: 2033
epoch: 1000
next table: 2213
cur table: 2255
epoch: 1000
next table: 2050
cur table: 2040
epoch: 1000
next table: 2062
cur table: 2050
epoch: 1000
next table: 2245
cur table: 2213
epoch: 1000
next table: 2055
cur table: 2062
epoch: 1000
next table: 2350
cur table: 2245
epoch: 1000
next table: 2046
cur table: 2055
epoch: 1000
next table: 2071
cur table: 2046
epoch: 1000
next table: 2295
cur table: 2350
epoch: 1000
next table: 2050
cur table: 2071
epoch: 1000
next table: 2370
cur table: 2295
epoch: 1000
next table: 2020
cur table: 2050
epoch: 1000
next table: 2079
cur table: 2020
epoch: 1000
next table: 2465
cur table: 2370
epoch: 1000
next table: 2020
cur table: 2079
epoch: 1000
next table: 2346
cur table: 2465
epoch: 1000
next table: 2083
cur table: 2020
epoch: 1000
next table: 2276
cur table: 2346
epoch: 1000
next table: 2019
cur table: 2083
epoch: 1000
next table: 2078
cur table: 2019
epoch: 1000
next table: 2315
cur table: 2276
epoch: 1000
next table: 2021
cur table: 2078
epoch: 1000
next table: 2373
cur table: 2315
epoch: 1000
next table: 2047
cur table: 2021
epoch: 1000
next table: 2053
cur table: 2047
epoch: 1000
next table: 2243
cur table: 2373
epoch: 1000
next table: 2044
cur table: 2053
epoch: 1000
next table: 2227
cur table: 2243
epoch: 1000
next table: 2053
cur table: 2044
epoch: 1000
next table: 2182
cur table: 2227
epoch: 1000
next table: 2026
cur table: 2053
epoch: 1000
next table: 2057
cur table: 2026
epoch: 1000
next table: 2144
cur table: 2182
epoch: 1000
next table: 2046
cur table: 2057
epoch: 1000
next table: 2109
cur table: 2144
epoch: 1000
next table: 2018
cur table: 2046
epoch: 1000
next table: 2083
cur table: 2109
epoch: 1000
next table: 2046
cur table: 2018
epoch: 1000
next table: 2028
cur table: 2083
epoch: 1000
next table: 2056
cur table: 2046
epoch: 1000
next table: 2086
cur table: 2028
epoch: 1000
next table: 2021
cur table: 2056
epoch: 1000
next table: 2059
cur table: 2086
epoch: 1000
next table: 2054
cur table: 2021
epoch: 1000
next table: 2043
cur table: 2054
epoch: 1000
next table: 2065
cur table: 2059
epoch: 1000
next table: 2055
cur table: 2043
epoch: 1000
next table: 1999
cur table: 2065
epoch: 1000
next table: 2069
cur table: 2055
epoch: 1000
next table: 2067
cur table: 1999
epoch: 1000
next table: 2046
cur table: 2069
epoch: 1000
next table: 2060
cur table: 2067
epoch: 1000
next table: 2068
cur table: 2046
epoch: 1000
next table: 2016
cur table: 2060
epoch: 1000
next table: 2060
cur table: 2068
epoch: 1000
next table: 1985
cur table: 2016
epoch: 1000
next table: 2053
cur table: 2060
epoch: 1000
next table: 1971
cur table: 1985
epoch: 1000
next table: 2060
cur table: 2053
epoch: 1000
next table: 1895
cur table: 1971
epoch: 1000
next table: 2054
cur table: 2060
epoch: 1000
next table: 1885
cur table: 1895
epoch: 1000
next table: 2083
cur table: 2054
epoch: 1000
next table: 1898
cur table: 1885
epoch: 1000
next table: 2050
cur table: 2083
epoch: 1000
next table: 1888
cur table: 1898
epoch: 1000
next table: 2020
cur table: 2050
epoch: 1000
next table: 1889
cur table: 1888
epoch: 1000
next table: 2019
cur table: 2020
epoch: 1000
next table: 1853
cur table: 1889
epoch: 1000
next table: 2019
cur table: 2019
epoch: 1000
next table: 1883
cur table: 1853
epoch: 1000
next table: 2024
cur table: 2019
epoch: 1000
next table: 1866
cur table: 1883
epoch: 1000
next table: 2021
cur table: 2024
epoch: 1000
next table: 1877
cur table: 1866
epoch: 1000
next table: 2020
cur table: 2021
epoch: 1000
next table: 1891
cur table: 1877
epoch: 1000
next table: 2044
cur table: 2020
epoch: 1000
next table: 1915
cur table: 1891
epoch: 1000
next table: 1829
cur table: 1915
epoch: 1000
next table: 2017
cur table: 2044
epoch: 1000
next table: 1798
cur table: 1829
epoch: 1000
next table: 2026
cur table: 2017
epoch: 1000
next table: 1788
cur table: 1798
epoch: 1000
next table: 2021
cur table: 2026
epoch: 1000
next table: 1785
cur table: 1788
epoch: 1000
next table: 2024
cur table: 2021
epoch: 1000
next table: 1798
cur table: 1785
epoch: 1000
next table: 2039
cur table: 2024
epoch: 1000
next table: 1797
cur table: 1798
epoch: 1000
next table: 2024
cur table: 2039
epoch: 1000
next table: 1808
cur table: 1797
epoch: 1000
next table: 2046
cur table: 2024
epoch: 1000
next table: 1768
cur table: 1808
epoch: 1000
next table: 2055
cur table: 2046
Heartbeat CPU 0 instructions: 10000001 cycles: 3220405 heartbeat IPC: 3.1052 cumulative IPC: 3.1052 (Simulation time: 0 hr 3 min 16 sec) 
epoch: 1000
next table: 1737
cur table: 1768
epoch: 1000
next table: 2030
cur table: 2055
epoch: 1000
next table: 1803
cur table: 1737
epoch: 1000
next table: 2031
cur table: 2030
epoch: 1000
next table: 1742
cur table: 1803
epoch: 1000
next table: 2023
cur table: 2031
epoch: 1000
next table: 1779
cur table: 1742
epoch: 1000
next table: 2053
cur table: 2023
epoch: 1000
next table: 1744
cur table: 1779
epoch: 1000
next table: 2025
cur table: 2053
epoch: 1000
next table: 1777
cur table: 1744
epoch: 1000
next table: 2081
cur table: 2025
epoch: 1000
next table: 1767
cur table: 1777
epoch: 1000
next table: 2031
cur table: 2081
epoch: 1000
next table: 1751
cur table: 1767
epoch: 1000
next table: 1737
cur table: 1751
epoch: 1000
next table: 2026
cur table: 2031
epoch: 1000
next table: 1754
cur table: 1737
epoch: 1000
next table: 2034
cur table: 2026
epoch: 1000
next table: 1790
cur table: 1754
epoch: 1000
next table: 2064
cur table: 2034
epoch: 1000
next table: 1755
cur table: 1790
epoch: 1000
next table: 2020
cur table: 2064
epoch: 1000
next table: 1826
cur table: 1755
epoch: 1000
next table: 2017
cur table: 2020
epoch: 1000
next table: 1820
cur table: 1826
epoch: 1000
next table: 2026
cur table: 2017
epoch: 1000
next table: 1801
cur table: 1820
epoch: 1000
next table: 2022
cur table: 2026
epoch: 1000
next table: 1826
cur table: 1801
epoch: 1000
next table: 2017
cur table: 2022
epoch: 1000
next table: 1875
cur table: 1826
epoch: 1000
next table: 2019
cur table: 2017
epoch: 1000
next table: 1878
cur table: 1875
epoch: 1000
next table: 2025
cur table: 2019
epoch: 1000
next table: 1851
cur table: 1878
epoch: 1000
next table: 2031
cur table: 2025
epoch: 1000
next table: 1866
cur table: 1851
epoch: 1000
next table: 2031
cur table: 2031
epoch: 1000
next table: 1861
cur table: 1866
epoch: 1000
next table: 2034
cur table: 2031
epoch: 1000
next table: 1873
cur table: 1861
epoch: 1000
next table: 2023
cur table: 2034
epoch: 1000
next table: 1866
cur table: 1873
epoch: 1000
next table: 2037
cur table: 2023
epoch: 1000
next table: 1851
cur table: 1866
epoch: 1000
next table: 2029
cur table: 2037
epoch: 1000
next table: 1876
cur table: 1851
epoch: 1000
next table: 2023
cur table: 2029
epoch: 1000
next table: 1977
cur table: 1876
epoch: 1000
next table: 2038
cur table: 2023
epoch: 1000
next table: 2006
cur table: 1977
epoch: 1000
next table: 2021
cur table: 2038
epoch: 1000
next table: 2028
cur table: 2006
epoch: 1000
next table: 2061
cur table: 2021
epoch: 1000
next table: 2026
cur table: 2028
epoch: 1000
next table: 2052
cur table: 2061
epoch: 1000
next table: 2132
cur table: 2026
epoch: 1000
next table: 2020
cur table: 2052
epoch: 1000
next table: 2053
cur table: 2020
epoch: 1000
next table: 2329
cur table: 2132
epoch: 1000
next table: 2048
cur table: 2053
epoch: 1000
next table: 2241
cur table: 2329
epoch: 1000
next table: 2067
cur table: 2048
epoch: 1000
next table: 2205
cur table: 2241
epoch: 1000
next table: 2047
cur table: 2067
epoch: 1000
next table: 2042
cur table: 2047
epoch: 1000
next table: 2221
cur table: 2205
epoch: 1000
next table: 2040
cur table: 2042
epoch: 1000
next table: 2271
cur table: 2221
epoch: 1000
next table: 2018
cur table: 2040
epoch: 1000
next table: 2077
cur table: 2018
epoch: 1000
next table: 2254
cur table: 2271
epoch: 1000
next table: 2023
cur table: 2077
epoch: 1000
next table: 2218
cur table: 2254
epoch: 1000
next table: 2060
cur table: 2023
epoch: 1000
next table: 2260
cur table: 2218
epoch: 1000
next table: 2022
cur table: 2060
epoch: 1000
next table: 2063
cur table: 2022
epoch: 1000
next table: 2293
cur table: 2260
epoch: 1000
next table: 2034
cur table: 2063
epoch: 1000
next table: 2356
cur table: 2293
epoch: 1000
next table: 2042
cur table: 2034
epoch: 1000
next table: 2042
cur table: 2042
epoch: 1000
next table: 2352
cur table: 2356
epoch: 1000
next table: 2022
cur table: 2042
epoch: 1000
next table: 2498
cur table: 2352
epoch: 1000
next table: 2043
cur table: 2022
epoch: 1000
next table: 2048
cur table: 2043
epoch: 1000
next table: 2432
cur table: 2498
epoch: 1000
next table: 2025
cur table: 2048
epoch: 1000
next table: 2537
cur table: 2432
epoch: 1000
next table: 2020
cur table: 2025
epoch: 1000
next table: 2048
cur table: 2020
epoch: 1000
next table: 2216
cur table: 2537
epoch: 1000
next table: 2054
cur table: 2048
epoch: 1000
next table: 2211
cur table: 2216
epoch: 1000
next table: 2051
cur table: 2054
epoch: 1000
next table: 2213
cur table: 2211
epoch: 1000
next table: 2044
cur table: 2051
epoch: 1000
next table: 2059
cur table: 2044
epoch: 1000
next table: 2223
cur table: 2213
epoch: 1000
next table: 2073
cur table: 2059
epoch: 1000
next table: 2217
cur table: 2223
epoch: 1000
next table: 2046
cur table: 2073
epoch: 1000
next table: 2107
cur table: 2217
epoch: 1000
next table: 2069
cur table: 2046
epoch: 1000
next table: 1998
cur table: 2107
epoch: 1000
next table: 2050
cur table: 2069
epoch: 1000
next table: 1967
cur table: 1998
epoch: 1000
next table: 2048
cur table: 2050
epoch: 1000
next table: 2054
cur table: 2048
epoch: 1000
next table: 2042
cur table: 1967
epoch: 1000
next table: 2074
cur table: 2054
epoch: 1000
next table: 2034
cur table: 2042
epoch: 1000
next table: 2050
cur table: 2074
epoch: 1000
next table: 2039
cur table: 2034
epoch: 1000
next table: 2044
cur table: 2050
epoch: 1000
next table: 1942
cur table: 2039
epoch: 1000
next table: 2021
cur table: 2044
epoch: 1000
next table: 1899
cur table: 1942
epoch: 1000
next table: 2024
cur table: 2021
epoch: 1000
next table: 1891
cur table: 1899
epoch: 1000
next table: 2019
cur table: 2024
epoch: 1000
next table: 1860
cur table: 1891
epoch: 1000
next table: 2024
cur table: 2019
epoch: 1000
next table: 1873
cur table: 1860
epoch: 1000
next table: 2023
cur table: 2024
epoch: 1000
next table: 1893
cur table: 1873
epoch: 1000
next table: 2022
cur table: 2023
epoch: 1000
next table: 1904
cur table: 1893
epoch: 1000
next table: 1953
cur table: 1904
epoch: 1000
next table: 2024
cur table: 2022
epoch: 1000
next table: 1914
cur table: 1953
epoch: 1000
next table: 2028
cur table: 2024
epoch: 1000
next table: 1798
cur table: 1914
epoch: 1000
next table: 2049
cur table: 2028
epoch: 1000
next table: 1842
cur table: 1798
epoch: 1000
next table: 2020
cur table: 2049
epoch: 1000
next table: 1828
cur table: 1842
epoch: 1000
next table: 2054
cur table: 2020
epoch: 1000
next table: 1830
cur table: 1828
epoch: 1000
next table: 2034
cur table: 2054
epoch: 1000
next table: 1830
cur table: 1830
epoch: 1000
next table: 2047
cur table: 2034
epoch: 1000
next table: 1843
cur table: 1830
epoch: 1000
next table: 2038
cur table: 2047
epoch: 1000
next table: 1815
cur table: 1843
epoch: 1000
next table: 2035
cur table: 2038
epoch: 1000
next table: 1853
cur table: 1815
epoch: 1000
next table: 2028
cur table: 2035
epoch: 1000
next table: 2021
cur table: 2028
epoch: 1000
next table: 1861
cur table: 1853
epoch: 1000
next table: 2034
cur table: 2021
epoch: 1000
next table: 1835
cur table: 1861
epoch: 1000
next table: 2019
cur table: 2034
epoch: 1000
next table: 1860
cur table: 1835
epoch: 1000
next table: 2032
cur table: 2019
epoch: 1000
next table: 1826
cur table: 1860
epoch: 1000
next table: 2035
cur table: 2032
epoch: 1000
next table: 1837
cur table: 1826
epoch: 1000
next table: 2027
cur table: 2035
epoch: 1000
next table: 1851
cur table: 1837
epoch: 1000
next table: 2023
cur table: 2027
epoch: 1000
next table: 1897
cur table: 1851
epoch: 1000
next table: 2069
cur table: 2023
epoch: 1000
next table: 1888
cur table: 1897
epoch: 1000
next table: 1872
cur table: 1888
epoch: 1000
next table: 2093
cur table: 2069
epoch: 1000
next table: 1906
cur table: 1872
epoch: 1000
next table: 2021
cur table: 2093
epoch: 1000
next table: 1890
cur table: 1906
epoch: 1000
next table: 2022
cur table: 2021
epoch: 1000
next table: 1876
cur table: 1890
epoch: 1000
next table: 2020
cur table: 2022
epoch: 1000
next table: 1911
cur table: 1876
epoch: 1000
next table: 2020
cur table: 2020
epoch: 1000
next table: 1908
cur table: 1911
epoch: 1000
next table: 2017
cur table: 2020
epoch: 1000
next table: 1909
cur table: 1908
epoch: 1000
next table: 2024
cur table: 2017
epoch: 1000
next table: 1982
cur table: 1909
epoch: 1000
next table: 2019
cur table: 2024
epoch: 1000
next table: 2019
cur table: 2019
epoch: 1000
next table: 2016
cur table: 1982
epoch: 1000
next table: 2021
cur table: 2019
epoch: 1000
next table: 2316
cur table: 2016
epoch: 1000
next table: 2020
cur table: 2021
epoch: 1000
next table: 2261
cur table: 2316
epoch: 1000
next table: 2023
cur table: 2020
epoch: 1000
next table: 2026
cur table: 2023
epoch: 1000
next table: 2332
cur table: 2261
epoch: 1000
next table: 2023
cur table: 2026
epoch: 1000
next table: 2425
cur table: 2332
epoch: 1000
next table: 2022
cur table: 2023
epoch: 1000
next table: 2021
cur table: 2022
epoch: 1000
next table: 2331
cur table: 2425
epoch: 1000
next table: 2024
cur table: 2021
epoch: 1000
next table: 2286
cur table: 2331
epoch: 1000
next table: 2016
cur table: 2024
epoch: 1000
next table: 2025
cur table: 2016
epoch: 1000
next table: 2436
cur table: 2286
epoch: 1000
next table: 2020
cur table: 2025
epoch: 1000
next table: 2343
cur table: 2436
epoch: 1000
next table: 2024
cur table: 2020
epoch: 1000
next table: 2190
cur table: 2343
epoch: 1000
next table: 2021
cur table: 2024
epoch: 1000
next table: 2023
cur table: 2021
epoch: 1000
next table: 2373
cur table: 2190
epoch: 1000
next table: 2019
cur table: 2023
epoch: 1000
next table: 2292
cur table: 2373
epoch: 1000
next table: 2025
cur table: 2019
epoch: 1000
next table: 2019
cur table: 2025
epoch: 1000
next table: 2269
cur table: 2292
epoch: 1000
next table: 2025
cur table: 2019
epoch: 1000
next table: 2265
cur table: 2269
epoch: 1000
next table: 2019
cur table: 2025
epoch: 1000
next table: 2314
cur table: 2265
epoch: 1000
next table: 2023
cur table: 2019
epoch: 1000
next table: 2023
cur table: 2023
epoch: 1000
next table: 2301
cur table: 2314
epoch: 1000
next table: 2019
cur table: 2023
epoch: 1000
next table: 2200
cur table: 2301
epoch: 1000
next table: 2021
cur table: 2019
epoch: 1000
next table: 2155
cur table: 2200
epoch: 1000
next table: 2020
cur table: 2021
epoch: 1000
next table: 2020
cur table: 2020
epoch: 1000
next table: 2180
cur table: 2155
epoch: 1000
next table: 2025
cur table: 2020
epoch: 1000
next table: 2246
cur table: 2180
epoch: 1000
next table: 2021
cur table: 2025
epoch: 1000
next table: 2188
cur table: 2246
epoch: 1000
next table: 2025
cur table: 2021
epoch: 1000
next table: 2136
cur table: 2188
epoch: 1000
next table: 2021
cur table: 2025
epoch: 1000
next table: 2028
cur table: 2021
epoch: 1000
next table: 2249
cur table: 2136
epoch: 1000
next table: 2020
cur table: 2028
epoch: 1000
next table: 2246
cur table: 2249
epoch: 1000
next table: 2027
cur table: 2020
epoch: 1000
next table: 2156
cur table: 2246
epoch: 1000
next table: 2024
cur table: 2027
epoch: 1000
next table: 2025
cur table: 2024
epoch: 1000
next table: 2195
cur table: 2156
epoch: 1000
next table: 2026
cur table: 2025
epoch: 1000
next table: 2261
cur table: 2195
epoch: 1000
next table: 2024
cur table: 2026
epoch: 1000
next table: 2161
cur table: 2261
epoch: 1000
next table: 2022
cur table: 2024
epoch: 1000
next table: 2101
cur table: 2161
epoch: 1000
next table: 2026
cur table: 2022
epoch: 1000
next table: 2019
cur table: 2026
epoch: 1000
next table: 2050
cur table: 2101
epoch: 1000
next table: 2023
cur table: 2019
epoch: 1000
next table: 1889
cur table: 2050
epoch: 1000
next table: 2020
cur table: 2023
epoch: 1000
next table: 1914
cur table: 1889
epoch: 1000
next table: 2020
cur table: 2020
epoch: 1000
next table: 1909
cur table: 1914
epoch: 1000
next table: 2020
cur table: 2020
epoch: 1000
next table: 1900
cur table: 1909
epoch: 1000
next table: 1905
cur table: 1900
epoch: 1000
next table: 2023
cur table: 2020
epoch: 1000
next table: 1926
cur table: 1905
epoch: 1000
next table: 2019
cur table: 2023
epoch: 1000
next table: 1813
cur table: 1926
epoch: 1000
next table: 2019
cur table: 2019
epoch: 1000
next table: 1796
cur table: 1813
epoch: 1000
next table: 2029
cur table: 2019
epoch: 1000
next table: 1823
cur table: 1796
epoch: 1000
next table: 2024
cur table: 2029
epoch: 1000
next table: 1803
cur table: 1823
epoch: 1000
next table: 2024
cur table: 2024
epoch: 1000
next table: 1782
cur table: 1803
epoch: 1000
next table: 2022
cur table: 2024
epoch: 1000
next table: 1782
cur table: 1782
epoch: 1000
next table: 2032
cur table: 2022
epoch: 1000
next table: 1780
cur table: 1782
epoch: 1000
next table: 2022
cur table: 2032
epoch: 1000
next table: 1736
cur table: 1780
epoch: 1000
next table: 2060
cur table: 2022
epoch: 1000
next table: 1802
cur table: 1736
epoch: 1000
next table: 2022
cur table: 2060
epoch: 1000
next table: 1745
cur table: 1802
epoch: 1000
next table: 2033
cur table: 2022
epoch: 1000
next table: 1756
cur table: 1745
epoch: 1000
next table: 2022
cur table: 2033
epoch: 1000
next table: 1695
cur table: 1756
epoch: 1000
next table: 2039
cur table: 2022
epoch: 1000
next table: 1762
cur table: 1695
epoch: 1000
next table: 2038
cur table: 2039
epoch: 1000
next table: 1768
cur table: 1762
epoch: 1000
next table: 2026
cur table: 2038
epoch: 1000
next table: 1719
cur table: 1768
epoch: 1000
next table: 2022
cur table: 2026
epoch: 1000
next table: 1771
cur table: 1719
epoch: 1000
next table: 2030
cur table: 2022
epoch: 1000
next table: 1751
cur table: 1771
epoch: 1000
next table: 2020
cur table: 2030
epoch: 1000
next table: 1754
cur table: 1751
epoch: 1000
next table: 1810
cur table: 1754
epoch: 1000
next table: 2027
cur table: 2020
epoch: 1000
next table: 1821
cur table: 1810
epoch: 1000
next table: 2022
cur table: 2027
epoch: 1000
next table: 1811
cur table: 1821
epoch: 1000
next table: 2026
cur table: 2022
epoch: 1000
next table: 1860
cur table: 1811
epoch: 1000
next table: 2071
cur table: 2026
epoch: 1000
next table: 1848
cur table: 1860
epoch: 1000
next table: 2024
cur table: 2071
epoch: 1000
next table: 1881
cur table: 1848
epoch: 1000
next table: 2031
cur table: 2024
epoch: 1000
next table: 1882
cur table: 1881
epoch: 1000
next table: 2028
cur table: 2031
epoch: 1000
next table: 1890
cur table: 1882
epoch: 1000
next table: 2019
cur table: 2028
epoch: 1000
next table: 1872
cur table: 1890
epoch: 1000
next table: 2046
cur table: 2019
epoch: 1000
next table: 1855
cur table: 1872
epoch: 1000
next table: 2032
cur table: 2046
epoch: 1000
next table: 1888
cur table: 1855
epoch: 1000
next table: 2020
cur table: 2032
epoch: 1000
next table: 1892
cur table: 1888
epoch: 1000
next table: 2044
cur table: 2020
epoch: 1000
next table: 1914
cur table: 1892
epoch: 1000
next table: 2024
cur table: 2044
epoch: 1000
next table: 1958
cur table: 1914
epoch: 1000
next table: 2029
cur table: 2024
epoch: 1000
next table: 2001
cur table: 1958
epoch: 1000
next table: 2036
cur table: 2029
epoch: 1000
next table: 2120
cur table: 2001
epoch: 1000
next table: 2043
cur table: 2036
epoch: 1000
next table: 2047
cur table: 2043
epoch: 1000
next table: 2081
cur table: 2120
epoch: 1000
next table: 2066
cur table: 2047
epoch: 1000
next table: 2129
cur table: 2081
epoch: 1000
next table: 2026
cur table: 2066
epoch: 1000
next table: 2046
cur table: 2129
epoch: 1000
next table: 2074
cur table: 2026
epoch: 1000
next table: 2103
cur table: 2046
epoch: 1000
next table: 2036
cur table: 2074
epoch: 1000
next table: 2045
cur table: 2036
epoch: 1000
next table: 2230
cur table: 2103
epoch: 1000
next table: 2049
cur table: 2045
epoch: 1000
next table: 2124
cur table: 2230
epoch: 1000
next table: 2042
cur table: 2049
epoch: 1000
next table: 2170
cur table: 2124
epoch: 1000
next table: 2047
cur table: 2042
epoch: 1000
next table: 2208
cur table: 2170
epoch: 1000
next table: 2048
cur table: 2047
epoch: 1000
next table: 2042
cur table: 2048
epoch: 1000
next table: 2152
cur table: 2208
epoch: 1000
next table: 2047
cur table: 2042
epoch: 1000
next table: 2168
cur table: 2152
epoch: 1000
next table: 2043
cur table: 2047
epoch: 1000
next table: 2229
cur table: 2168
epoch: 1000
next table: 2052
cur table: 2043
epoch: 1000
next table: 2189
cur table: 2229
epoch: 1000
next table: 2053
cur table: 2052
epoch: 1000
next table: 2045
cur table: 2053
epoch: 1000
next table: 2296
cur table: 2189
epoch: 1000
next table: 2047
cur table: 2045
epoch: 1000
next table: 2424
cur table: 2296
epoch: 1000
next table: 2031
cur table: 2047
epoch: 1000
next table: 2047
cur table: 2031
epoch: 1000
next table: 2413
cur table: 2424
epoch: 1000
next table: 2023
cur table: 2047
epoch: 1000
next table: 2396
cur table: 2413
epoch: 1000
next table: 2057
cur table: 2023
epoch: 1000
next table: 2020
cur table: 2057
epoch: 1000
next table: 2167
cur table: 2396
epoch: 1000
next table: 2026
cur table: 2020
epoch: 1000
next table: 2097
cur table: 2167
epoch: 1000
next table: 2044
cur table: 2026
epoch: 1000
next table: 2073
cur table: 2097
epoch: 1000
next table: 2053
cur table: 2044
epoch: 1000
next table: 2102
cur table: 2073
epoch: 1000
next table: 2046
cur table: 2053
epoch: 1000
next table: 1992
cur table: 2102
epoch: 1000
next table: 2042
cur table: 2046
epoch: 1000
next table: 2024
cur table: 1992
epoch: 1000
next table: 2049
cur table: 2042
epoch: 1000
next table: 2063
cur table: 2049
epoch: 1000
next table: 2061
cur table: 2024
epoch: 1000
next table: 2051
cur table: 2063
epoch: 1000
next table: 2011
cur table: 2061
epoch: 1000
next table: 2056
cur table: 2051
epoch: 1000
next table: 1973
cur table: 2011
epoch: 1000
next table: 2085
cur table: 2056
epoch: 1000
next table: 1954
cur table: 1973
epoch: 1000
next table: 2054
cur table: 2085
epoch: 1000
next table: 1962
cur table: 1954
epoch: 1000
next table: 2048
cur table: 2054
epoch: 1000
next table: 1994
cur table: 1962
epoch: 1000
next table: 2052
cur table: 2048
epoch: 1000
next table: 1963
cur table: 1994
epoch: 1000
next table: 2047
cur table: 2052
epoch: 1000
next table: 1998
cur table: 1963
epoch: 1000
next table: 2046
cur table: 2047
epoch: 1000
next table: 2011
cur table: 1998
epoch: 1000
next table: 2020
cur table: 2046
epoch: 1000
next table: 1890
cur table: 2011
epoch: 1000
next table: 2022
cur table: 2020
epoch: 1000
next table: 1892
cur table: 1890
epoch: 1000
next table: 2015
cur table: 2022
epoch: 1000
next table: 1887
cur table: 1892
epoch: 1000
next table: 2019
cur table: 2015
epoch: 1000
next table: 1885
cur table: 1887
epoch: 1000
next table: 2023
cur table: 2019
epoch: 1000
next table: 1884
cur table: 1885
epoch: 1000
next table: 2022
cur table: 2023
epoch: 1000
next table: 1953
cur table: 1884
epoch: 1000
next table: 2026
cur table: 2022
epoch: 1000
next table: 1911
cur table: 1953
epoch: 1000
next table: 2055
cur table: 2026
epoch: 1000
next table: 1846
cur table: 1911
epoch: 1000
next table: 2023
cur table: 2055
epoch: 1000
next table: 1823
cur table: 1846
epoch: 1000
next table: 2062
cur table: 2023
epoch: 1000
next table: 1809
cur table: 1823
epoch: 1000
next table: 2019
cur table: 2062
epoch: 1000
next table: 1849
cur table: 1809
epoch: 1000
next table: 2071
cur table: 2019
epoch: 1000
next table: 1824
cur table: 1849
epoch: 1000
next table: 2039
cur table: 2071
epoch: 1000
next table: 1822
cur table: 1824
epoch: 1000
next table: 2025
cur table: 2039
epoch: 1000
next table: 1849
cur table: 1822
epoch: 1000
next table: 2035
cur table: 2025
epoch: 1000
next table: 1816
cur table: 1849
epoch: 1000
next table: 2021
cur table: 2035
epoch: 1000
next table: 1864
cur table: 1816
epoch: 1000
next table: 2050
cur table: 2021
epoch: 1000
next table: 1825
cur table: 1864
epoch: 1000
next table: 2029
cur table: 2050
epoch: 1000
next table: 1866
cur table: 1825
epoch: 1000
next table: 2050
cur table: 2029
epoch: 1000
next table: 1830
cur table: 1866
epoch: 1000
next table: 2036
cur table: 2050
epoch: 1000
next table: 1841
cur table: 1830
epoch: 1000
next table: 2032
cur table: 2036
epoch: 1000
next table: 1877
cur table: 1841
epoch: 1000
next table: 2044
cur table: 2032
epoch: 1000
next table: 1899
cur table: 1877
epoch: 1000
next table: 2069
cur table: 2044
epoch: 1000
next table: 1907
cur table: 1899
epoch: 1000
next table: 2052
cur table: 2069
epoch: 1000
next table: 1863
cur table: 1907
epoch: 1000
next table: 2016
cur table: 2052
epoch: 1000
next table: 1888
cur table: 1863
epoch: 1000
next table: 2023
cur table: 2016
epoch: 1000
next table: 1890
cur table: 1888
epoch: 1000
next table: 2021
cur table: 2023
epoch: 1000
next table: 1881
cur table: 1890
epoch: 1000
next table: 2021
cur table: 2021
epoch: 1000
next table: 2027
cur table: 1881
epoch: 1000
next table: 2020
cur table: 2021
epoch: 1000
next table: 2063
cur table: 2027
epoch: 1000
next table: 2020
cur table: 2020
epoch: 1000
next table: 2023
cur table: 2020
epoch: 1000
next table: 2189
cur table: 2063
epoch: 1000
next table: 2021
cur table: 2023
epoch: 1000
next table: 2218
cur table: 2189
epoch: 1000
next table: 2022
cur table: 2021
epoch: 1000
next table: 2358
cur table: 2218
epoch: 1000
next table: 2020
cur table: 2022
epoch: 1000
next table: 2022
cur table: 2020
epoch: 1000
next table: 2324
cur table: 2358
epoch: 1000
next table: 2024
cur table: 2022
epoch: 1000
next table: 2339
cur table: 2324
epoch: 1000
next table: 2022
cur table: 2024
epoch: 1000
next table: 2023
cur table: 2022
epoch: 1000
next table: 2471
cur table: 2339
epoch: 1000
next table: 2023
cur table: 2023
epoch: 1000
next table: 2374
cur table: 2471
epoch: 1000
next table: 2020
cur table: 2023
epoch: 1000
next table: 2021
cur table: 2020
epoch: 1000
next table: 2514
cur table: 2374
epoch: 1000
next table: 2019
cur table: 2021
epoch: 1000
next table: 2023
cur table: 2019
epoch: 1000
next table: 2607
cur table: 2514
epoch: 1000
next table: 2026
cur table: 2023
epoch: 1000
next table: 2413
cur table: 2607
epoch: 1000
next table: 2023
cur table: 2026
epoch: 1000
next table: 2022
cur table: 2023
epoch: 1000
next table: 2490
cur table: 2413
epoch: 1000
next table: 2022
cur table: 2022
epoch: 1000
next table: 2466
cur table: 2490
epoch: 1000
next table: 2024
cur table: 2022
epoch: 1000
next table: 2023
cur table: 2024
epoch: 1000
next table: 2315
cur table: 2466
epoch: 1000
next table: 2020
cur table: 2023
epoch: 1000
next table: 2359
cur table: 2315
epoch: 1000
next table: 2023
cur table: 2020
epoch: 1000
next table: 2021
cur table: 2023
epoch: 1000
next table: 2477
cur table: 2359
epoch: 1000
next table: 2024
cur table: 2021
epoch: 1000
next table: 2368
cur table: 2477
epoch: 1000
next table: 2020
cur table: 2024
epoch: 1000
next table: 2018
cur table: 2020
epoch: 1000
next table: 2233
cur table: 2368
epoch: 1000
next table: 2021
cur table: 2018
epoch: 1000
next table: 2187
cur table: 2233
epoch: 1000
next table: 2022
cur table: 2021
epoch: 1000
next table: 2197
cur table: 2187
epoch: 1000
next table: 2022
cur table: 2022
epoch: 1000
next table: 2027
cur table: 2022
epoch: 1000
next table: 2344
cur table: 2197
epoch: 1000
next table: 2023
cur table: 2027
epoch: 1000
next table: 2191
cur table: 2344
epoch: 1000
next table: 2023
cur table: 2023
epoch: 1000
next table: 2187
cur table: 2191
epoch: 1000
next table: 2020
cur table: 2023
epoch: 1000
next table: 2024
cur table: 2020
epoch: 1000
next table: 2288
cur table: 2187
epoch: 1000
next table: 2025
cur table: 2024
epoch: 1000
next table: 2268
cur table: 2288
epoch: 1000
next table: 2024
cur table: 2025
epoch: 1000
next table: 2177
cur table: 2268
epoch: 1000
next table: 2021
cur table: 2024
epoch: 1000
next table: 2025
cur table: 2021
epoch: 1000
next table: 2291
cur table: 2177
epoch: 1000
next table: 2024
cur table: 2025
epoch: 1000
next table: 2068
cur table: 2291
epoch: 1000
next table: 2023
cur table: 2024
epoch: 1000
next table: 1892
cur table: 2068
epoch: 1000
next table: 2018
cur table: 2023
epoch: 1000
next table: 1893
cur table: 1892
epoch: 1000
next table: 2023
cur table: 2018
epoch: 1000
next table: 1890
cur table: 1893
epoch: 1000
next table: 2020
cur table: 2023
epoch: 1000
next table: 1904
cur table: 1890
epoch: 1000
next table: 2022
cur table: 2020
epoch: 1000
next table: 1907
cur table: 1904
epoch: 1000
next table: 2019
cur table: 2022
epoch: 1000
next table: 1900
cur table: 1907
epoch: 1000
next table: 2021
cur table: 2019
epoch: 1000
next table: 1916
cur table: 1900
epoch: 1000
next table: 2022
cur table: 2021
epoch: 1000
next table: 1893
cur table: 1916
epoch: 1000
next table: 1942
cur table: 1893
epoch: 1000
next table: 2026
cur table: 2022
epoch: 1000
next table: 1854
cur table: 1942
epoch: 1000
next table: 2022
cur table: 2026
epoch: 1000
next table: 1792
cur table: 1854
epoch: 1000
next table: 2032
cur table: 2022
epoch: 1000
next table: 1787
cur table: 1792
epoch: 1000
next table: 2034
cur table: 2032
epoch: 1000
next table: 1839
cur table: 1787
epoch: 1000
next table: 2046
cur table: 2034
epoch: 1000
next table: 1803
cur table: 1839
epoch: 1000
next table: 2083
cur table: 2046
epoch: 1000
next table: 1828
cur table: 1803
epoch: 1000
next table: 2040
cur table: 2083
epoch: 1000
next table: 1826
cur table: 1828
epoch: 1000
next table: 2056
cur table: 2040
epoch: 1000
next table: 1866
cur table: 1826
epoch: 1000
next table: 1825
cur table: 1866
epoch: 1000
next table: 2078
cur table: 2056
epoch: 1000
next table: 1803
cur table: 1825
epoch: 1000
next table: 2106
cur table: 2078
epoch: 1000
next table: 1785
cur table: 1803
epoch: 1000
next table: 2060
cur table: 2106
epoch: 1000
next table: 1776
cur table: 1785
epoch: 1000
next table: 2106
cur table: 2060
epoch: 1000
next table: 1821
cur table: 1776
epoch: 1000
next table: 2057
cur table: 2106
epoch: 1000
next table: 1770
cur table: 1821
epoch: 1000
next table: 1789
cur table: 1770
epoch: 1000
next table: 2090
cur table: 2057
epoch: 1000
next table: 1818
cur table: 1789
epoch: 1000
next table: 2046
cur table: 2090
epoch: 1000
next table: 1826
cur table: 1818
epoch: 1000
next table: 2077
cur table: 2046
epoch: 1000
next table: 1813
cur table: 1826
epoch: 1000
next table: 2042
cur table: 2077
epoch: 1000
next table: 1796
cur table: 1813
epoch: 1000
next table: 2022
cur table: 2042
epoch: 1000
next table: 1787
cur table: 1796
epoch: 1000
next table: 2061
cur table: 2022
epoch: 1000
next table: 1789
cur table: 1787
epoch: 1000
next table: 2049
cur table: 2061
epoch: 1000
next table: 1788
cur table: 1789
epoch: 1000
next table: 2074
cur table: 2049
epoch: 1000
next table: 1826
cur table: 1788
epoch: 1000
next table: 2042
cur table: 2074
epoch: 1000
next table: 1825
cur table: 1826
epoch: 1000
next table: 1798
cur table: 1825
epoch: 1000
next table: 2043
cur table: 2042
epoch: 1000
next table: 1806
cur table: 1798
epoch: 1000
next table: 2032
cur table: 2043
epoch: 1000
next table: 1809
cur table: 1806
epoch: 1000
next table: 2074
cur table: 2032
epoch: 1000
next table: 1816
cur table: 1809
epoch: 1000
next table: 2022
cur table: 2074
epoch: 1000
next table: 1807
cur table: 1816
epoch: 1000
next table: 2057
cur table: 2022
epoch: 1000
next table: 1815
cur table: 1807
epoch: 1000
next table: 2058
cur table: 2057
epoch: 1000
next table: 1847
cur table: 1815
epoch: 1000
next table: 2017
cur table: 2058
epoch: 1000
next table: 1821
cur table: 1847
epoch: 1000
next table: 2019
cur table: 2017
epoch: 1000
next table: 1806
cur table: 1821
epoch: 1000
next table: 2025
cur table: 2019
epoch: 1000
next table: 1803
cur table: 1806
epoch: 1000
next table: 2059
cur table: 2025
epoch: 1000
next table: 1823
cur table: 1803
epoch: 1000
next table: 2025
cur table: 2059
epoch: 1000
next table: 1816
cur table: 1823
epoch: 1000
next table: 1818
cur table: 1816
epoch: 1000
next table: 2017
cur table: 2025
epoch: 1000
next table: 1847
cur table: 1818
epoch: 1000
next table: 2039
cur table: 2017
epoch: 1000
next table: 1851
cur table: 1847
epoch: 1000
next table: 2024
cur table: 2039
epoch: 1000
next table: 1879
cur table: 1851
epoch: 1000
next table: 2024
cur table: 2024
epoch: 1000
next table: 1862
cur table: 1879
epoch: 1000
next table: 2026
cur table: 2024
epoch: 1000
next table: 1876
cur table: 1862
epoch: 1000
next table: 2035
cur table: 2026
epoch: 1000
next table: 1855
cur table: 1876
epoch: 1000
next table: 2027
cur table: 2035
epoch: 1000
next table: 1854
cur table: 1855
epoch: 1000
next table: 2044
cur table: 2027
epoch: 1000
next table: 1842
cur table: 1854
epoch: 1000
next table: 2027
cur table: 2044
epoch: 1000
next table: 1940
cur table: 1842
epoch: 1000
next table: 2037
cur table: 2027
epoch: 1000
next table: 1936
cur table: 1940
epoch: 1000
next table: 2024
cur table: 2037
epoch: 1000
next table: 1989
cur table: 1936
epoch: 1000
next table: 2032
cur table: 2024
epoch: 1000
next table: 2011
cur table: 1989
epoch: 1000
next table: 2031
cur table: 2032
epoch: 1000
next table: 2037
cur table: 2011
epoch: 1000
next table: 2063
cur table: 2031
epoch: 1000
next table: 1992
cur table: 2037
epoch: 1000
next table: 2050
cur table: 2063
epoch: 1000
next table: 2046
cur table: 2050
epoch: 1000
next table: 1958
cur table: 1992
epoch: 1000
next table: 2045
cur table: 2046
epoch: 1000
next table: 1945
cur table: 1958
epoch: 1000
next table: 2058
cur table: 2045
epoch: 1000
next table: 2104
cur table: 1945
epoch: 1000
next table: 2059
cur table: 2058
epoch: 1000
next table: 2215
cur table: 2104
epoch: 1000
next table: 2019
cur table: 2059
epoch: 1000
next table: 2307
cur table: 2215
epoch: 1000
next table: 2066
cur table: 2019
epoch: 1000
next table: 2031
cur table: 2066
epoch: 1000
next table: 2292
cur table: 2307
epoch: 1000
next table: 2047
cur table: 2031
epoch: 1000
next table: 2181
cur table: 2292
epoch: 1000
next table: 2062
cur table: 2047
epoch: 1000
next table: 2165
cur table: 2181
epoch: 1000
next table: 2046
cur table: 2062
epoch: 1000
next table: 2037
cur table: 2046
epoch: 1000
next table: 2144
cur table: 2165
epoch: 1000
next table: 2054
cur table: 2037
epoch: 1000
next table: 2172
cur table: 2144
epoch: 1000
next table: 2045
cur table: 2054
epoch: 1000
next table: 2327
cur table: 2172
epoch: 1000
next table: 2046
cur table: 2045
epoch: 1000
next table: 2051
cur table: 2046
epoch: 1000
next table: 2338
cur table: 2327
epoch: 1000
next table: 2035
cur table: 2051
epoch: 1000
next table: 2395
cur table: 2338
epoch: 1000
next table: 2045
cur table: 2035
epoch: 1000
next table: 2026
cur table: 2045
epoch: 1000
next table: 2294
cur table: 2395
epoch: 1000
next table: 2051
cur table: 2026
epoch: 1000
next table: 2206
cur table: 2294
epoch: 1000
next table: 2031
cur table: 2051
epoch: 1000
next table: 2171
cur table: 2206
epoch: 1000
next table: 2047
cur table: 2031
epoch: 1000
next table: 2022
cur table: 2047
epoch: 1000
next table: 2181
cur table: 2171
epoch: 1000
next table: 2055
cur table: 2022
epoch: 1000
next table: 2017
cur table: 2181
epoch: 1000
next table: 2048
cur table: 2055
epoch: 1000
next table: 1972
cur table: 2017
epoch: 1000
next table: 2037
cur table: 2048
epoch: 1000
next table: 2021
cur table: 1972
epoch: 1000
next table: 2064
cur table: 2037
epoch: 1000
next table: 2133
cur table: 2021
epoch: 1000
next table: 2057
cur table: 2064
epoch: 1000
next table: 2146
cur table: 2133
epoch: 1000
next table: 2047
cur table: 2057
epoch: 1000
next table: 2092
cur table: 2047
epoch: 1000
next table: 2084
cur table: 2146
epoch: 1000
next table: 2050
cur table: 2092
epoch: 1000
next table: 2071
cur table: 2084
epoch: 1000
next table: 2052
cur table: 2050
epoch: 1000
next table: 2061
cur table: 2071
epoch: 1000
next table: 2052
cur table: 2052
epoch: 1000
next table: 2044
cur table: 2061
epoch: 1000
next table: 2047
cur table: 2052
epoch: 1000
next table: 1916
cur table: 2044
epoch: 1000
next table: 2045
cur table: 2047
epoch: 1000
next table: 1883
cur table: 1916
epoch: 1000
next table: 2047
cur table: 2045
epoch: 1000
next table: 1911
cur table: 1883
epoch: 1000
next table: 2022
cur table: 2047
epoch: 1000
next table: 1866
cur table: 1911
epoch: 1000
next table: 2022
cur table: 2022
epoch: 1000
next table: 1877
cur table: 1866
epoch: 1000
next table: 2021
cur table: 2022
epoch: 1000
next table: 1870
cur table: 1877
epoch: 1000
next table: 2020
cur table: 2021
epoch: 1000
next table: 1867
cur table: 1870
epoch: 1000
next table: 2024
cur table: 2020
epoch: 1000
next table: 1877
cur table: 1867
epoch: 1000
next table: 2021
cur table: 2024
epoch: 1000
next table: 1918
cur table: 1877
epoch: 1000
next table: 2026
cur table: 2021
epoch: 1000
next table: 1924
cur table: 1918
epoch: 1000
next table: 1840
cur table: 1924
epoch: 1000
next table: 2021
cur table: 2026
epoch: 1000
next table: 1785
cur table: 1840
epoch: 1000
next table: 2039
cur table: 2021
epoch: 1000
next table: 1802
cur table: 1785
epoch: 1000
next table: 2056
cur table: 2039
epoch: 1000
next table: 1781
cur table: 1802
epoch: 1000
next table: 2029
cur table: 2056
epoch: 1000
next table: 1787
cur table: 1781
epoch: 1000
next table: 2037
cur table: 2029
epoch: 1000
next table: 1790
cur table: 1787
epoch: 1000
next table: 2070
cur table: 2037
epoch: 1000
next table: 1806
cur table: 1790
epoch: 1000
next table: 2019
cur table: 2070
epoch: 1000
next table: 1796
cur table: 1806
epoch: 1000
next table: 2039
cur table: 2019
epoch: 1000
next table: 1779
cur table: 1796
epoch: 1000
next table: 2024
cur table: 2039
epoch: 1000
next table: 1795
cur table: 1779
epoch: 1000
next table: 2027
cur table: 2024
epoch: 1000
next table: 1785
cur table: 1795
epoch: 1000
next table: 2030
cur table: 2027
epoch: 1000
next table: 1792
cur table: 1785
epoch: 1000
next table: 2021
cur table: 2030
epoch: 1000
next table: 1793
cur table: 1792
epoch: 1000
next table: 2030
cur table: 2021
epoch: 1000
next table: 1850
cur table: 1793
epoch: 1000
next table: 2023
cur table: 2030
epoch: 1000
next table: 1826
cur table: 1850
epoch: 1000
next table: 2041
cur table: 2023
epoch: 1000
next table: 1879
cur table: 1826
epoch: 1000
next table: 2033
cur table: 2041
epoch: 1000
next table: 1886
cur table: 1879
epoch: 1000
next table: 2046
cur table: 2033
epoch: 1000
next table: 1896
cur table: 1886
epoch: 1000
next table: 2030
cur table: 2046
epoch: 1000
next table: 1860
cur table: 1896
epoch: 1000
next table: 2093
cur table: 2030
epoch: 1000
next table: 1867
cur table: 1860
epoch: 1000
next table: 2054
cur table: 2093
epoch: 1000
next table: 1879
cur table: 1867
epoch: 1000
next table: 2023
cur table: 2054
epoch: 1000
next table: 1898
cur table: 1879
epoch: 1000
next table: 2018
cur table: 2023
epoch: 1000
next table: 1914
cur table: 1898
epoch: 1000
next table: 2023
cur table: 2018
epoch: 1000
next table: 1894
cur table: 1914
epoch: 1000
next table: 2021
cur table: 2023
epoch: 1000
next table: 1882
cur table: 1894
epoch: 1000
next table: 2018
cur table: 2021
epoch: 1000
next table: 1946
cur table: 1882
epoch: 1000
next table: 2024
cur table: 2018
epoch: 1000
next table: 2031
cur table: 1946
epoch: 1000
next table: 2020
cur table: 2024
epoch: 1000
next table: 2155
cur table: 2031
epoch: 1000
next table: 2018
cur table: 2020
epoch: 1000
next table: 2190
cur table: 2155
epoch: 1000
next table: 2022
cur table: 2018
epoch: 1000
next table: 2024
cur table: 2022
epoch: 1000
next table: 2186
cur table: 2190
epoch: 1000
next table: 2024
cur table: 2024
epoch: 1000
next table: 2214
cur table: 2186
epoch: 1000
next table: 2023
cur table: 2024
epoch: 1000
next table: 2122
cur table: 2214
epoch: 1000
next table: 2021
cur table: 2023
epoch: 1000
next table: 2026
cur table: 2021
epoch: 1000
next table: 2275
cur table: 2122
epoch: 1000
next table: 2018
cur table: 2026
epoch: 1000
next table: 2249
cur table: 2275
epoch: 1000
next table: 2022
cur table: 2018
epoch: 1000
next table: 2297
cur table: 2249
epoch: 1000
next table: 2024
cur table: 2022
epoch: 1000
next table: 2022
cur table: 2024
epoch: 1000
next table: 2274
cur table: 2297
epoch: 1000
next table: 2021
cur table: 2022
epoch: 1000
next table: 2050
cur table: 2274
epoch: 1000
next table: 2021
cur table: 2021
epoch: 1000
next table: 2086
cur table: 2050
epoch: 1000
next table: 2021
cur table: 2021
epoch: 1000
next table: 2068
cur table: 2086
epoch: 1000
next table: 2025
cur table: 2021
epoch: 1000
next table: 2020
cur table: 2025
epoch: 1000
next table: 2207
cur table: 2068
epoch: 1000
next table: 2021
cur table: 2020
epoch: 1000
next table: 2226
cur table: 2207
epoch: 1000
next table: 2024
cur table: 2021
epoch: 1000
next table: 2239
cur table: 2226
epoch: 1000
next table: 2021
cur table: 2024
epoch: 1000
next table: 2189
cur table: 2239
epoch: 1000
next table: 2022
cur table: 2021
epoch: 1000
next table: 2021
cur table: 2022
epoch: 1000
next table: 2267
cur table: 2189
epoch: 1000
next table: 2019
cur table: 2021
epoch: 1000
next table: 2172
cur table: 2267
epoch: 1000
next table: 2019
cur table: 2019
epoch: 1000
next table: 2259
cur table: 2172
epoch: 1000
next table: 2021
cur table: 2019
epoch: 1000
next table: 2023
cur table: 2021
epoch: 1000
next table: 2196
cur table: 2259
epoch: 1000
next table: 2022
cur table: 2023
epoch: 1000
next table: 2252
cur table: 2196
epoch: 1000
next table: 2024
cur table: 2022
epoch: 1000
next table: 2192
cur table: 2252
epoch: 1000
next table: 2023
cur table: 2024
epoch: 1000
next table: 2026
cur table: 2023
epoch: 1000
next table: 2196
cur table: 2192
epoch: 1000
next table: 2024
cur table: 2026
epoch: 1000
next table: 2215
cur table: 2196
epoch: 1000
next table: 2025
cur table: 2024
epoch: 1000
next table: 2221
cur table: 2215
epoch: 1000
next table: 2025
cur table: 2025
epoch: 1000
next table: 2023
cur table: 2025
epoch: 1000
next table: 2262
cur table: 2221
epoch: 1000
next table: 2022
cur table: 2023
epoch: 1000
next table: 2233
cur table: 2262
epoch: 1000
next table: 2026
cur table: 2022
epoch: 1000
next table: 2203
cur table: 2233
epoch: 1000
next table: 2024
cur table: 2026
epoch: 1000
next table: 2134
cur table: 2203
epoch: 1000
next table: 2019
cur table: 2024
epoch: 1000
next table: 2023
cur table: 2019
epoch: 1000
next table: 2125
cur table: 2134
epoch: 1000
next table: 2022
cur table: 2023
epoch: 1000
next table: 1946
cur table: 2125
epoch: 1000
next table: 2017
cur table: 2022
epoch: 1000
next table: 2030
cur table: 1946
epoch: 1000
next table: 2021
cur table: 2017
epoch: 1000
next table: 2045
cur table: 2030
epoch: 1000
next table: 2019
cur table: 2021
epoch: 1000
next table: 1984
cur table: 2045
epoch: 1000
next table: 2021
cur table: 2019
epoch: 1000
next table: 2052
cur table: 1984
epoch: 1000
next table: 2025
cur table: 2021
epoch: 1000
next table: 1968
cur table: 2052
epoch: 1000
next table: 2019
cur table: 2025
epoch: 1000
next table: 1856
cur table: 1968
epoch: 1000
next table: 2042
cur table: 2019
epoch: 1000
next table: 1857
cur table: 1856
epoch: 1000
next table: 2024
cur table: 2042
epoch: 1000
next table: 1813
cur table: 1857
epoch: 1000
next table: 2052
cur table: 2024
epoch: 1000
next table: 1835
cur table: 1813
epoch: 1000
next table: 2045
cur table: 2052
epoch: 1000
next table: 1820
cur table: 1835
epoch: 1000
next table: 2064
cur table: 2045
epoch: 1000
next table: 1810
cur table: 1820
epoch: 1000
next table: 2039
cur table: 2064
epoch: 1000
next table: 1800
cur table: 1810
epoch: 1000
next table: 2042
cur table: 2039
epoch: 1000
next table: 1825
cur table: 1800
epoch: 1000
next table: 2019
cur table: 2042
epoch: 1000
next table: 1830
cur table: 1825
epoch: 1000
next table: 2020
cur table: 2019
epoch: 1000
next table: 1833
cur table: 1830
epoch: 1000
next table: 2024
cur table: 2020
epoch: 1000
next table: 1830
cur table: 1833
epoch: 1000
next table: 2027
cur table: 2024
epoch: 1000
next table: 1878
cur table: 1830
epoch: 1000
next table: 2017
cur table: 2027
epoch: 1000
next table: 1880
cur table: 1878
epoch: 1000
next table: 2032
cur table: 2017
epoch: 1000
next table: 1864
cur table: 1880
epoch: 1000
next table: 2020
cur table: 2032
epoch: 1000
next table: 1848
cur table: 1864
epoch: 1000
next table: 2057
cur table: 2020
epoch: 1000
next table: 1885
cur table: 1848
epoch: 1000
next table: 2032
cur table: 2057
epoch: 1000
next table: 1881
cur table: 1885
epoch: 1000
next table: 2053
cur table: 2032
epoch: 1000
next table: 1890
cur table: 1881
epoch: 1000
next table: 2052
cur table: 2053
epoch: 1000
next table: 2005
cur table: 1890
epoch: 1000
next table: 2021
cur table: 2052
epoch: 1000
next table: 2022
cur table: 2005
epoch: 1000
next table: 2023
cur table: 2021
epoch: 1000
next table: 2016
cur table: 2022
epoch: 1000
next table: 2018
cur table: 2023
epoch: 1000
next table: 2020
cur table: 2018
epoch: 1000
next table: 2062
cur table: 2016
epoch: 1000
next table: 2018
cur table: 2020
epoch: 1000
next table: 1989
cur table: 2062
epoch: 1000
next table: 2018
cur table: 2018
epoch: 1000
next table: 2029
cur table: 1989
epoch: 1000
next table: 2021
cur table: 2018
epoch: 1000
next table: 2034
cur table: 2029
epoch: 1000
next table: 2021
cur table: 2021
epoch: 1000
next table: 2106
cur table: 2034
epoch: 1000
next table: 2023
cur table: 2021
epoch: 1000
next table: 2061
cur table: 2106
epoch: 1000
next table: 2019
cur table: 2023
epoch: 1000
next table: 2020
cur table: 2019
epoch: 1000
next table: 2227
cur table: 2061
epoch: 1000
next table: 2019
cur table: 2020
epoch: 1000
next table: 2355
cur table: 2227
epoch: 1000
next table: 2021
cur table: 2019
epoch: 1000
next table: 2014
cur table: 2021
epoch: 1000
next table: 2348
cur table: 2355
epoch: 1000
next table: 2024
cur table: 2014
epoch: 1000
next table: 2375
cur table: 2348
epoch: 1000
next table: 2022
cur table: 2024
epoch: 1000
next table: 2019
cur table: 2022
epoch: 1000
next table: 2385
cur table: 2375
epoch: 1000
next table: 2025
cur table: 2019
epoch: 1000
next table: 2431
cur table: 2385
epoch: 1000
next table: 2018
cur table: 2025
epoch: 1000
next table: 2025
cur table: 2018
epoch: 1000
next table: 2351
cur table: 2431
epoch: 1000
next table: 2022
cur table: 2025
epoch: 1000
next table: 2438
cur table: 2351
epoch: 1000
next table: 2018
cur table: 2022
epoch: 1000
next table: 2022
cur table: 2018
epoch: 1000
next table: 2425
cur table: 2438
epoch: 1000
next table: 2022
cur table: 2022
epoch: 1000
next table: 2573
cur table: 2425
epoch: 1000
next table: 2022
cur table: 2022
epoch: 1000
next table: 2023
cur table: 2022
epoch: 1000
next table: 2586
cur table: 2573
epoch: 1000
next table: 2020
cur table: 2023
epoch: 1000
next table: 2022
cur table: 2020
epoch: 1000
next table: 2613
cur table: 2586
epoch: 1000
next table: 2020
cur table: 2022
epoch: 1000
next table: 2022
cur table: 2020
epoch: 1000
next table: 2628
cur table: 2613
epoch: 1000
next table: 2020
cur table: 2022
epoch: 1000
next table: 2542
cur table: 2628
epoch: 1000
next table: 2021
cur table: 2020
epoch: 1000
next table: 2022
cur table: 2021
epoch: 1000
next table: 2552
cur table: 2542
epoch: 1000
next table: 2023
cur table: 2022
epoch: 1000
next table: 2023
cur table: 2023
epoch: 1000
next table: 2433
cur table: 2552
epoch: 1000
next table: 2019
cur table: 2023
epoch: 1000
next table: 2498
cur table: 2433
epoch: 1000
next table: 2025
cur table: 2019
epoch: 1000
next table: 2023
cur table: 2025
epoch: 1000
next table: 2531
cur table: 2498
epoch: 1000
next table: 2027
cur table: 2023
epoch: 1000
next table: 2443
cur table: 2531
epoch: 1000
next table: 2024
cur table: 2027
epoch: 1000
next table: 2019
cur table: 2024
epoch: 1000
next table: 2391
cur table: 2443
epoch: 1000
next table: 2022
cur table: 2019
epoch: 1000
next table: 2146
cur table: 2391
epoch: 1000
next table: 2024
cur table: 2022
epoch: 1000
next table: 2118
cur table: 2146
epoch: 1000
next table: 2024
cur table: 2024
epoch: 1000
next table: 2018
cur table: 2024
epoch: 1000
next table: 2161
cur table: 2118
epoch: 1000
next table: 2021
cur table: 2018
epoch: 1000
next table: 2112
cur table: 2161
epoch: 1000
next table: 2022
cur table: 2021
epoch: 1000
next table: 2073
cur table: 2112
epoch: 1000
next table: 2020
cur table: 2022
epoch: 1000
next table: 1896
cur table: 2073
epoch: 1000
next table: 2021
cur table: 2020
epoch: 1000
next table: 1926
cur table: 1896
epoch: 1000
next table: 2023
cur table: 2021
epoch: 1000
next table: 1936
cur table: 1926
epoch: 1000
next table: 2022
cur table: 2023
epoch: 1000
next table: 1961
cur table: 1936
epoch: 1000
next table: 2025
cur table: 2022
epoch: 1000
next table: 1952
cur table: 1961
epoch: 1000
next table: 2020
cur table: 2025
epoch: 1000
next table: 1901
cur table: 1952
epoch: 1000
next table: 2038
cur table: 2020
epoch: 1000
next table: 1835
cur table: 1901
epoch: 1000
next table: 2041
cur table: 2038
epoch: 1000
next table: 1863
cur table: 1835
epoch: 1000
next table: 2052
cur table: 2041
epoch: 1000
next table: 1829
cur table: 1863
epoch: 1000
next table: 2059
cur table: 2052
epoch: 1000
next table: 1843
cur table: 1829
epoch: 1000
next table: 2055
cur table: 2059
epoch: 1000
next table: 1856
cur table: 1843
epoch: 1000
next table: 2061
cur table: 2055
epoch: 1000
next table: 1836
cur table: 1856
epoch: 1000
next table: 2048
cur table: 2061
epoch: 1000
next table: 1819
cur table: 1836
epoch: 1000
next table: 2047
cur table: 2048
epoch: 1000
next table: 1876
cur table: 1819
epoch: 1000
next table: 2051
cur table: 2047
epoch: 1000
next table: 1872
cur table: 1876
epoch: 1000
next table: 2031
cur table: 2051
epoch: 1000
next table: 1888
cur table: 1872
epoch: 1000
next table: 2059
cur table: 2031
epoch: 1000
next table: 1876
cur table: 1888
epoch: 1000
next table: 2055
cur table: 2059
epoch: 1000
next table: 1914
cur table: 1876
epoch: 1000
next table: 2049
cur table: 2055
epoch: 1000
next table: 1903
cur table: 1914
epoch: 1000
next table: 2041
cur table: 2049
epoch: 1000
next table: 1934
cur table: 1903
epoch: 1000
next table: 2046
cur table: 2041
epoch: 1000
next table: 1887
cur table: 1934
epoch: 1000
next table: 2019
cur table: 2046
epoch: 1000
next table: 1886
cur table: 1887
epoch: 1000
next table: 2020
cur table: 2019
epoch: 1000
next table: 1894
cur table: 1886
epoch: 1000
next table: 2020
cur table: 2020
epoch: 1000
next table: 1890
cur table: 1894
epoch: 1000
next table: 2015
cur table: 2020
epoch: 1000
next table: 1896
cur table: 1890
epoch: 1000
next table: 2021
cur table: 2015
epoch: 1000
next table: 1912
cur table: 1896
epoch: 1000
next table: 2019
cur table: 2021
epoch: 1000
next table: 1901
cur table: 1912
epoch: 1000
next table: 2024
cur table: 2019
epoch: 1000
next table: 2092
cur table: 1901
epoch: 1000
next table: 2020
cur table: 2024
epoch: 1000
next table: 2115
cur table: 2092
epoch: 1000
next table: 2019
cur table: 2020
epoch: 1000
next table: 2022
cur table: 2019
epoch: 1000
next table: 2128
cur table: 2115
epoch: 1000
next table: 2018
cur table: 2022
epoch: 1000
next table: 2151
cur table: 2128
epoch: 1000
next table: 2024
cur table: 2018
epoch: 1000
next table: 2169
cur table: 2151
epoch: 1000
next table: 2021
cur table: 2024
epoch: 1000
next table: 2153
cur table: 2169
epoch: 1000
next table: 2024
cur table: 2021
epoch: 1000
next table: 2019
cur table: 2024
epoch: 1000
next table: 2184
cur table: 2153
epoch: 1000
next table: 2022
cur table: 2019
epoch: 1000
next table: 2151
cur table: 2184
epoch: 1000
next table: 2024
cur table: 2022
epoch: 1000
next table: 2142
cur table: 2151
epoch: 1000
next table: 2022
cur table: 2024
epoch: 1000
next table: 2127
cur table: 2142
epoch: 1000
next table: 2021
cur table: 2022
epoch: 1000
next table: 2184
cur table: 2127
epoch: 1000
next table: 2024
cur table: 2021
epoch: 1000
next table: 2022
cur table: 2024
epoch: 1000
next table: 2153
cur table: 2184
epoch: 1000
next table: 2024
cur table: 2022
epoch: 1000
next table: 2109
cur table: 2153
epoch: 1000
next table: 2024
cur table: 2024
epoch: 1000
next table: 2131
cur table: 2109
epoch: 1000
next table: 2023
cur table: 2024
epoch: 1000
next table: 2158
cur table: 2131
epoch: 1000
next table: 2022
cur table: 2023
epoch: 1000
next table: 2022
cur table: 2022
epoch: 1000
next table: 2116
cur table: 2158
epoch: 1000
next table: 2022
cur table: 2022
epoch: 1000
next table: 2120
cur table: 2116
epoch: 1000
next table: 2026
cur table: 2022
epoch: 1000
next table: 2134
cur table: 2120
epoch: 1000
next table: 2022
cur table: 2026
epoch: 1000
next table: 2357
cur table: 2134
epoch: 1000
next table: 2023
cur table: 2022
epoch: 1000
next table: 2022
cur table: 2023
epoch: 1000
next table: 2220
cur table: 2357
epoch: 1000
next table: 2020
cur table: 2022
epoch: 1000
next table: 2276
cur table: 2220
epoch: 1000
next table: 2017
cur table: 2020
epoch: 1000
next table: 2025
cur table: 2017
epoch: 1000
next table: 2296
cur table: 2276
epoch: 1000
next table: 2017
cur table: 2025
epoch: 1000
next table: 2286
cur table: 2296
epoch: 1000
next table: 2023
cur table: 2017
epoch: 1000
next table: 2260
cur table: 2286
epoch: 1000
next table: 2022
cur table: 2023
epoch: 1000
next table: 2029
cur table: 2022
epoch: 1000
next table: 2267
cur table: 2260
epoch: 1000
next table: 2023
cur table: 2029
epoch: 1000
next table: 2219
cur table: 2267
epoch: 1000
next table: 2025
cur table: 2023
epoch: 1000
next table: 2242
cur table: 2219
epoch: 1000
next table: 2024
cur table: 2025
epoch: 1000
next table: 2026
cur table: 2024
epoch: 1000
next table: 2227
cur table: 2242
epoch: 1000
next table: 2021
cur table: 2026
epoch: 1000
next table: 2240
cur table: 2227
epoch: 1000
next table: 2022
cur table: 2021
epoch: 1000
next table: 2318
cur table: 2240
epoch: 1000
next table: 2020
cur table: 2022
epoch: 1000
next table: 2024
cur table: 2020
epoch: 1000
next table: 2173
cur table: 2318
epoch: 1000
next table: 2019
cur table: 2024
epoch: 1000
next table: 2231
cur table: 2173
epoch: 1000
next table: 2022
cur table: 2019
epoch: 1000
next table: 2152
cur table: 2231
epoch: 1000
next table: 2022
cur table: 2022
epoch: 1000
next table: 2169
cur table: 2152
epoch: 1000
next table: 2017
cur table: 2022
epoch: 1000
next table: 2022
cur table: 2017
epoch: 1000
next table: 2211
cur table: 2169
epoch: 1000
next table: 2018
cur table: 2022
epoch: 1000
next table: 2195
cur table: 2211
epoch: 1000
next table: 2021
cur table: 2018
epoch: 1000
next table: 2071
cur table: 2195
epoch: 1000
next table: 2026
cur table: 2021
epoch: 1000
next table: 1966
cur table: 2071
epoch: 1000
next table: 2019
cur table: 2026
epoch: 1000
next table: 1875
cur table: 1966
epoch: 1000
next table: 2040
cur table: 2019
epoch: 1000
next table: 1809
cur table: 1875
epoch: 1000
next table: 2021
cur table: 2040
epoch: 1000
next table: 1847
cur table: 1809
epoch: 1000
next table: 2049
cur table: 2021
epoch: 1000
next table: 1840
cur table: 1847
epoch: 1000
next table: 2022
cur table: 2049
epoch: 1000
next table: 1847
cur table: 1840
epoch: 1000
next table: 2061
cur table: 2022
epoch: 1000
next table: 1806
cur table: 1847
epoch: 1000
next table: 2038
cur table: 2061
epoch: 1000
next table: 1790
cur table: 1806
epoch: 1000
next table: 2034
cur table: 2038
epoch: 1000
next table: 1809
cur table: 1790
epoch: 1000
next table: 2031
cur table: 2034
epoch: 1000
next table: 1836
cur table: 1809
epoch: 1000
next table: 2022
cur table: 2031
epoch: 1000
next table: 1833
cur table: 1836
epoch: 1000
next table: 2043
cur table: 2022
epoch: 1000
next table: 1789
cur table: 1833
epoch: 1000
next table: 2018
cur table: 2043
epoch: 1000
next table: 1832
cur table: 1789
epoch: 1000
next table: 2036
cur table: 2018
epoch: 1000
next table: 1837
cur table: 1832
epoch: 1000
next table: 2053
cur table: 2036
epoch: 1000
next table: 1834
cur table: 1837
epoch: 1000
next table: 2032
cur table: 2053
epoch: 1000
next table: 1836
cur table: 1834
epoch: 1000
next table: 2033
cur table: 2032
epoch: 1000
next table: 1865
cur table: 1836
epoch: 1000
next table: 2025
cur table: 2033
epoch: 1000
next table: 1889
cur table: 1865
epoch: 1000
next table: 2050
cur table: 2025
epoch: 1000
next table: 1894
cur table: 1889
epoch: 1000
next table: 2054
cur table: 2050
epoch: 1000
next table: 1859
cur table: 1894
epoch: 1000
next table: 2063
cur table: 2054
epoch: 1000
next table: 1881
cur table: 1859
epoch: 1000
next table: 2018
cur table: 2063
epoch: 1000
next table: 1888
cur table: 1881
epoch: 1000
next table: 2024
cur table: 2018
epoch: 1000
next table: 1896
cur table: 1888
epoch: 1000
next table: 2018
cur table: 2024
[...]
epoch: 1000
next table: 1963
cur table: 1933
epoch: 1000
next table: 2023
cur table: 2047
epoch: 1000
next table: 1928
cur table: 1963
epoch: 1000
next table: 2036
cur table: 2023
epoch: 1000
next table: 1956
cur table: 1928
epoch: 1000
next table: 2047
cur table: 2036
epoch: 1000
next table: 1971
cur table: 1956
epoch: 1000
next table: 2064
cur table: 2047
epoch: 1000
next table: 1910
cur table: 1971
epoch: 1000
next table: 2058
cur table: 2064
epoch: 1000
next table: 1964
cur table: 1910
epoch: 1000
next table: 2038
cur table: 2058
epoch: 1000
next table: 1947
cur table: 1964
epoch: 1000
next table: 2068
cur table: 2038
epoch: 1000
next table: 1886
cur table: 1947
epoch: 1000
next table: 2067
cur table: 2068
epoch: 1000
next table: 1920
cur table: 1886
epoch: 1000
next table: 2057
cur table: 2067
epoch: 1000
next table: 1925
cur table: 1920
epoch: 1000
next table: 2044
cur table: 2057
epoch: 1000
next table: 1944
cur table: 1925
epoch: 1000
next table: 2063
cur table: 2044
epoch: 1000
next table: 1867
cur table: 1944
epoch: 1000
next table: 2083
cur table: 2063
epoch: 1000
next table: 1908
cur table: 1867
epoch: 1000
next table: 2055
cur table: 2083
epoch: 1000
next table: 1896
cur table: 1908
epoch: 1000
next table: 2069
cur table: 2055
epoch: 1000
next table: 1847
cur table: 1896
epoch: 1000
next table: 2052
cur table: 2069
epoch: 1000
next table: 1847
cur table: 1847
epoch: 1000
next table: 2052
cur table: 2052
epoch: 1000
next table: 1870
cur table: 1847
epoch: 1000
next table: 2024
cur table: 2052
epoch: 1000
next table: 1868
cur table: 1870
epoch: 1000
next table: 2019
cur table: 2024
epoch: 1000
next table: 1842
cur table: 1868
epoch: 1000
next table: 2021
cur table: 2019
epoch: 1000
next table: 1851
cur table: 1842
epoch: 1000
next table: 2018
cur table: 2021
epoch: 1000
next table: 1862
cur table: 1851
epoch: 1000
next table: 2017
cur table: 2018
epoch: 1000
next table: 1831
cur table: 1862
epoch: 1000
next table: 1845
cur table: 1831
epoch: 1000
next table: 2032
cur table: 2017
epoch: 1000
next table: 1836
cur table: 1845
epoch: 1000
next table: 2058
cur table: 2032
epoch: 1000
next table: 1834
cur table: 1836
epoch: 1000
next table: 2026
cur table: 2058
epoch: 1000
next table: 1868
cur table: 1834
Heartbeat CPU 0 instructions: 100000002 cycles: 154804953 heartbeat IPC: 0.339174 cumulative IPC: 0.361701 (Simulation time: 0 hr 29 min 51 sec) 
Finished CPU 0 instructions: 50000001 cycles: 138235786 cumulative IPC: 0.361701 (Simulation time: 0 hr 29 min 51 sec) 

ChampSim completed all CPUs

Region of Interest Statistics

CPU 0 cumulative IPC: 0.361701 instructions: 50000001 cycles: 138235786
ITLB TOTAL     ACCESS:    8276204  HIT:    8276204  MISS:          0  HIT %:        100  MISS %:          0   MPKI: 0
ITLB LOAD TRANSLATION ACCESS:    8276204  HIT:    8276204  MISS:          0  HIT %:        100  MISS %:          0   MPKI: 0
ITLB PREFETCH  REQUESTED:          0  ISSUED:          0  USEFUL:          0  USELESS:          0
ITLB USEFUL LOAD PREFETCHES:          0 PREFETCH ISSUED TO LOWER LEVEL:          0  ACCURACY: -nan
ITLB TIMELY PREFETCHES:          0 LATE PREFETCHES: 0 DROPPED PREFETCHES: 0
ITLB PREFETCHES SAME FILL-ORIGIN LEVEL: 0 DIFFERENT FILL-ORIGIN LEVEL: 0
ITLB AVERAGE MISS LATENCY: -nan cycles
ITLB RQ	ACCESS:   10963820	FORWARD:          0	MERGED:    2687617	TO_CACHE:    8276203

Revised Interactions: positive negative neutral
ITLB_interactions 0 0 0 -nan -nan -nan
DTLB TOTAL     ACCESS:   13940115  HIT:   13797757  MISS:     142358  HIT %:    98.9788  MISS %:    1.02121   MPKI: 2.84716
DTLB LOAD TRANSLATION ACCESS:   13940115  HIT:   13797757  MISS:     142358  HIT %:    98.9788  MISS %:    1.02121   MPKI: 2.84716
DTLB PREFETCH  REQUESTED:          0  ISSUED:          0  USEFUL:          0  USELESS:          0
DTLB USEFUL LOAD PREFETCHES:          0 PREFETCH ISSUED TO LOWER LEVEL:          0  ACCURACY: -nan
DTLB TIMELY PREFETCHES:          0 LATE PREFETCHES: 0 DROPPED PREFETCHES: 0
DTLB PREFETCHES SAME FILL-ORIGIN LEVEL: 0 DIFFERENT FILL-ORIGIN LEVEL: 0
DTLB AVERAGE MISS LATENCY: 38.2854 cycles
DTLB RQ	ACCESS:   22806111	FORWARD:          0	MERGED:    8835537	TO_CACHE:   13970574

Revised Interactions: positive negative neutral
DTLB_interactions 0 0 0 -nan -nan -nan
STLB TOTAL     ACCESS:     142358  HIT:      77595  MISS:      64763  HIT %:    54.5069  MISS %:    45.4931   MPKI: 1.29526
STLB LOAD TRANSLATION ACCESS:     142358  HIT:      77595  MISS:      64763  HIT %:    54.5069  MISS %:    45.4931   MPKI: 1.29526
STLB PREFETCH  REQUESTED:          0  ISSUED:          0  USEFUL:          0  USELESS:          0
STLB USEFUL LOAD PREFETCHES:          0 PREFETCH ISSUED TO LOWER LEVEL:          0  ACCURACY: -nan
STLB TIMELY PREFETCHES:          0 LATE PREFETCHES: 0 DROPPED PREFETCHES: 0
STLB PREFETCHES SAME FILL-ORIGIN LEVEL: 0 DIFFERENT FILL-ORIGIN LEVEL: 0
STLB AVERAGE MISS LATENCY: 64.3566 cycles
STLB RQ	ACCESS:     142358	FORWARD:          0	MERGED:          0	TO_CACHE:     142358

Revised Interactions: positive negative neutral
STLB_interactions 0 0 0 -nan -nan -nan
STLB Hit, L1D data hit: 0
STLB Hit, L2C data hit: 0
STLB Hit, LLC data hit: 0
STLB Hit, LLC data miss: 0
STLB STLB hints to L2: 0
L1D TOTAL     ACCESS:   22185639  HIT:   19678994  MISS:    2506645  HIT %:    88.7015  MISS %:    11.2985   MPKI: 50.1329
L1D LOAD      ACCESS:   10473782  HIT:    8086150  MISS:    2387632  HIT %:    77.2037  MISS %:    22.7963   MPKI: 47.7526
L1D RFO       ACCESS:   11711857  HIT:   11592844  MISS:     119013  HIT %:    98.9838  MISS %:    1.01618   MPKI: 2.38026
L1D PREFETCH  REQUESTED:          0  ISSUED:          0  USEFUL:          0  USELESS:          0
L1D USEFUL LOAD PREFETCHES:          0 PREFETCH ISSUED TO LOWER LEVEL:          0  ACCURACY: -nan
L1D TIMELY PREFETCHES:          0 LATE PREFETCHES: 0 DROPPED PREFETCHES: 0
L1D PREFETCHES SAME FILL-ORIGIN LEVEL: 0 DIFFERENT FILL-ORIGIN LEVEL: 0
L1D AVERAGE MISS LATENCY: 104.976 cycles
L1D RQ	ACCESS:   16791903	FORWARD:          0	MERGED:    6053933	TO_CACHE:   10729811
L1D WQ	ACCESS:   12292019	FORWARD:       8159	MERGED:     215719	TO_CACHE:   12076300

Revised Interactions: positive negative neutral
L1D_interactions 0 0 0 -nan -nan -nan
L1D UNIQUE REGIONS ACCESSED: 0
L1D REGIONS CONFLICTS: 0
L1D Cross Page Prefetch Requests: 0
L1D Same Page Prefetch Requests: 0
L1D ROI Sum of L1D PQ occupancy: 0
L1D PREFETCHES PUSHED FROM L2C: 0
L1I TOTAL     ACCESS:   10963821  HIT:   10963821  MISS:          0  HIT %:        100  MISS %:          0   MPKI: 0
L1I LOAD      ACCESS:   10963821  HIT:   10963821  MISS:          0  HIT %:        100  MISS %:          0   MPKI: 0
L1I PREFETCH  REQUESTED:          0  ISSUED:          0  USEFUL:          0  USELESS:          0
L1I USEFUL LOAD PREFETCHES:          0 PREFETCH ISSUED TO LOWER LEVEL:          0  ACCURACY: -nan
L1I TIMELY PREFETCHES:          0 LATE PREFETCHES: 0 DROPPED PREFETCHES: 0
L1I PREFETCHES SAME FILL-ORIGIN LEVEL: 0 DIFFERENT FILL-ORIGIN LEVEL: 0
L1I AVERAGE MISS LATENCY: -nan cycles
L1I RQ	ACCESS:   14626411	FORWARD:          0	MERGED:    3662591	TO_CACHE:   10963820

Revised Interactions: positive negative neutral
L1I_interactions 0 0 0 -nan -nan -nan
BTB TOTAL     ACCESS:    5654586  HIT:    5654552  MISS:         34  HIT %:    99.9994  MISS %: 0.000601282   MPKI: 0.00068
BTB BRANCH_DIRECT_JUMP	ACCESS:     580686  HIT:     580680  MISS:          6
BTB BRANCH_INDIRECT	ACCESS:          0  HIT:          0  MISS:          0
BTB BRANCH_CONDITIONAL	ACCESS:    5073764  HIT:    5073740  MISS:         24
BTB BRANCH_DIRECT_CALL	ACCESS:         68  HIT:         66  MISS:          2
BTB BRANCH_INDIRECT_CALL	ACCESS:          0  HIT:          0  MISS:          0
BTB BRANCH_RETURN	ACCESS:         68  HIT:         66  MISS:          2
BTB BRANCH_OTHER ACCESS:          0  HIT:          0  MISS:          0

L2C TOTAL     ACCESS:    3246104  HIT:     670971  MISS:    2575133  HIT %:      20.67  MISS %:      79.33   MPKI: 51.5027
L2C LOAD      ACCESS:    2387630  HIT:     309179  MISS:    2078451  HIT %:    12.9492  MISS %:    87.0508   MPKI: 41.569
L2C DATA LOAD MPKI: 41.569
L2C INSTRUCTION LOAD MPKI: 0
L2C RFO       ACCESS:     119011  HIT:       2201  MISS:     116810  HIT %:    1.84941  MISS %:    98.1506   MPKI: 2.3362
L2C PREFETCH  ACCESS:     438328  HIT:     163608  MISS:     274720  HIT %:    37.3255  MISS %:    62.6745   MPKI: 5.4944
L2C DATA PREFETCH MPKI: 5.4944
L2C INSTRUCTION PREFETCH MPKI: 0
L2C WRITEBACK ACCESS:     236307  HIT:     142118  MISS:      94189  HIT %:    60.1413  MISS %:    39.8587   MPKI: 1.88378
L2C LOAD TRANSLATION ACCESS:      64828  HIT:      53865  MISS:      10963  HIT %:    83.0891  MISS %:    16.9109   MPKI: 0.21926
L2C PREFETCH  REQUESTED:    5037397  ISSUED:    5036683  USEFUL:     267617  USELESS:       7101
L2C USEFUL LOAD PREFETCHES:     267617 PREFETCH ISSUED TO LOWER LEVEL:    4569451  ACCURACY: 5.85666
L2C TIMELY PREFETCHES:     267617 LATE PREFETCHES: 5662 DROPPED PREFETCHES: 0
L2C PREFETCHES SAME FILL-ORIGIN LEVEL: 280382 DIFFERENT FILL-ORIGIN LEVEL: 4289069
L2C AVERAGE MISS LATENCY: 92.1101 cycles
L2C RQ	ACCESS:    2571472	FORWARD:          0	MERGED:          0	TO_CACHE:    2571469
L2C WQ	ACCESS:     236307	FORWARD:          5	MERGED:          0	TO_CACHE:     236307
L2C PQ	ACCESS:    5036683	FORWARD:          0	MERGED:     138621	TO_CACHE:    4898060

Revised Interactions: positive negative neutral
L2C_interactions 267361 7043 6417 95.2069 2.508 2.28509
L2C Instructions Evicting Data 0
L2C Translations Evicting Data 10940
L2C Data Evicting Data 2459776
L2C Instructions Evicting Instructions 0
L2C Translations Evicting Instructions 0
L2C Data Evicting Instructions 0
L2C Instructions Evicting Translations 0
L2C Translations Evicting Translations 23
L2C Data Evicting Translations 10205
L2C Dense regions hint from L2: 0
PSCL5 TOTAL     ACCESS:      64763  HIT:      64763  MISS:          0  HIT %:        100  MISS %:          0   MPKI: 0
PSCL5 LOAD TRANSLATION ACCESS:      64763  HIT:      64763  MISS:          0  HIT %:        100  MISS %:          0   MPKI: 0
PSCL5 PREFETCH  REQUESTED:          0  ISSUED:          0  USEFUL:          0  USELESS:          0
PSCL5 USEFUL LOAD PREFETCHES:          0 PREFETCH ISSUED TO LOWER LEVEL:          0  ACCURACY: -nan
PSCL5 TIMELY PREFETCHES:          0 LATE PREFETCHES: 0 DROPPED PREFETCHES: 0
PSCL5 PREFETCHES SAME FILL-ORIGIN LEVEL: 0 DIFFERENT FILL-ORIGIN LEVEL: 0

Revised Interactions: positive negative neutral
PSCL5_interactions 0 0 0 -nan -nan -nan
PSCL4 TOTAL     ACCESS:      64763  HIT:      64763  MISS:          0  HIT %:        100  MISS %:          0   MPKI: 0
PSCL4 LOAD TRANSLATION ACCESS:      64763  HIT:      64763  MISS:          0  HIT %:        100  MISS %:          0   MPKI: 0
PSCL4 PREFETCH  REQUESTED:          0  ISSUED:          0  USEFUL:          0  USELESS:          0
PSCL4 USEFUL LOAD PREFETCHES:          0 PREFETCH ISSUED TO LOWER LEVEL:          0  ACCURACY: -nan
PSCL4 TIMELY PREFETCHES:          0 LATE PREFETCHES: 0 DROPPED PREFETCHES: 0
PSCL4 PREFETCHES SAME FILL-ORIGIN LEVEL: 0 DIFFERENT FILL-ORIGIN LEVEL: 0

Revised Interactions: positive negative neutral
PSCL4_interactions 0 0 0 -nan -nan -nan
PSCL3 TOTAL     ACCESS:      64763  HIT:      64763  MISS:          0  HIT %:        100  MISS %:          0   MPKI: 0
PSCL3 LOAD TRANSLATION ACCESS:      64763  HIT:      64763  MISS:          0  HIT %:        100  MISS %:          0   MPKI: 0
PSCL3 PREFETCH  REQUESTED:          0  ISSUED:          0  USEFUL:          0  USELESS:          0
PSCL3 USEFUL LOAD PREFETCHES:          0 PREFETCH ISSUED TO LOWER LEVEL:          0  ACCURACY: -nan
PSCL3 TIMELY PREFETCHES:          0 LATE PREFETCHES: 0 DROPPED PREFETCHES: 0
PSCL3 PREFETCHES SAME FILL-ORIGIN LEVEL: 0 DIFFERENT FILL-ORIGIN LEVEL: 0

Revised Interactions: positive negative neutral
PSCL3_interactions 0 0 0 -nan -nan -nan
PSCL2 TOTAL     ACCESS:      64763  HIT:      64668  MISS:         95  HIT %:    99.8533  MISS %:   0.146689   MPKI: 0.0019
PSCL2 LOAD TRANSLATION ACCESS:      64763  HIT:      64668  MISS:         95  HIT %:    99.8533  MISS %:   0.146689   MPKI: 0.0019
PSCL2 PREFETCH  REQUESTED:          0  ISSUED:          0  USEFUL:          0  USELESS:          0
PSCL2 USEFUL LOAD PREFETCHES:          0 PREFETCH ISSUED TO LOWER LEVEL:          0  ACCURACY: -nan
PSCL2 TIMELY PREFETCHES:          0 LATE PREFETCHES: 0 DROPPED PREFETCHES: 0
PSCL2 PREFETCHES SAME FILL-ORIGIN LEVEL: 0 DIFFERENT FILL-ORIGIN LEVEL: 0

Revised Interactions: positive negative neutral
PSCL2_interactions 0 0 0 -nan -nan -nan
LLC TOTAL     ACCESS:    6121273  HIT:    3386755  MISS:    2734518  HIT %:    55.3276  MISS %:    44.6724   MPKI: 54.6904
LLC LOAD      ACCESS:    2072792  HIT:     858687  MISS:    1214105  HIT %:    41.4266  MISS %:    58.5734   MPKI: 24.2821
LLC RFO       ACCESS:     116807  HIT:       5848  MISS:     110959  HIT %:    5.00655  MISS %:    94.9935   MPKI: 2.21918
LLC PREFETCH  ACCESS:    3711050  HIT:    2505229  MISS:    1205821  HIT %:    67.5073  MISS %:    32.4927   MPKI: 24.1164
LLC WRITEBACK ACCESS:     209661  HIT:      15457  MISS:     194204  HIT %:    7.37238  MISS %:    92.6276   MPKI: 3.88408
LLC LOAD TRANSLATION ACCESS:      10963  HIT:       1534  MISS:       9429  HIT %:    13.9925  MISS %:    86.0075   MPKI: 0.18858
LLC PREFETCH  REQUESTED:          0  ISSUED:          0  USEFUL:     683453  USELESS:     519935
LLC USEFUL LOAD PREFETCHES:     683453 PREFETCH ISSUED TO LOWER LEVEL:    1660668  ACCURACY: 41.1553
LLC TIMELY PREFETCHES:     683453 LATE PREFETCHES: 454847 DROPPED PREFETCHES: 0
LLC PREFETCHES SAME FILL-ORIGIN LEVEL: 1648118 DIFFERENT FILL-ORIGIN LEVEL: 0
LLC AVERAGE MISS LATENCY: 122.197 cycles
LLC RQ	ACCESS:    2200562	FORWARD:          0	MERGED:          0	TO_CACHE:    2200562
LLC WQ	ACCESS:     209661	FORWARD:          0	MERGED:          0	TO_CACHE:     209661
LLC PQ	ACCESS:    4569451	FORWARD:          0	MERGED:      50679	TO_CACHE:    4518772

Revised Interactions: positive negative neutral
LLC_interactions 655168 547469 265032 44.64 37.3019 18.058
LLC Dense regions hint to LLC: 0

RAW hits: 635715
Loads Generated: 17427617
Loads sent to L1D: 16791903
Stores Generated: 12292015
Stores sent to L1D: 12292019
Major fault: 0 Minor fault: 20016
Allocated PAGES: 20016
 All Calls: 4942607
 Critical Calls: 4942607
------------------
Depth Distribution
------------------
depth 0: 0
depth 1: 4477915
depth 2: 2407534
depth 3: 1522172
depth 4: 987327
depth 5: 551625
depth 6: 373470
depth 7: 247585
depth 8: 149495
depth 9: 44639
depth 10: 1071
depth 11: 21
depth 12: 0
depth 13: 0
depth 14: 0
depth 15: 0
depth 16: 0
depth 17: 0
depth 18: 0
depth 19: 0
depth 20: 0
depth 21: 0
depth 22: 0
depth 23: 0
depth 24: 0
depth 25: 0
depth 26: 0
depth 27: 0
depth 28: 0
depth 29: 0
Total: 10762854
-----------------------------
-----------------------------
	Captured at Filter
-----------------------------
depth 0: 0
depth 1: 37400
depth 2: 18182
depth 3: 5915
depth 4: 3237
depth 5: 1383
depth 6: 732
depth 7: 410
depth 8: 230
depth 9: 61
depth 10: 2
depth 11: 0
depth 12: 0
depth 13: 0
depth 14: 0
depth 15: 0
depth 16: 0
depth 17: 0
depth 18: 0
depth 19: 0
depth 20: 0
depth 21: 0
depth 22: 0
depth 23: 0
depth 24: 0
depth 25: 0
depth 26: 0
depth 27: 0
depth 28: 0
depth 29: 0
-----------------------------
-----------------------------
		Lost at Page
-----------------------------
depth 0: 0
depth 1: 250058
depth 2: 164809
depth 3: 130945
depth 4: 106857
depth 5: 61321
depth 6: 42123
depth 7: 29833
depth 8: 19666
depth 9: 6711
depth 10: 190
depth 11: 3
depth 12: 0
depth 13: 0
depth 14: 0
depth 15: 0
depth 16: 0
depth 17: 0
depth 18: 0
depth 19: 0
depth 20: 0
depth 21: 0
depth 22: 0
depth 23: 0
depth 24: 0
depth 25: 0
depth 26: 0
depth 27: 0
depth 28: 0
depth 29: 0
-----------------------------
-----------------------------
	Lost due to PQ Size
-----------------------------
1298782
-----------------------------
ST read accesses: 2323937
ST write accesses: 63693
PT read accesses: 43256956
PT write accesses: 3467978
FILTER read accesses: 10015237
FILTER write accesses: 3171139
GHR read accesses: 2263501
GHR write accesses: 329326
GHR counter read accesses: 34957784
GHR counter write accesses: 2964385
ST tag read accesses: 950291106
ST tag write accesses: 22683848

DRAM Statistics
 CHANNEL 0
 RQ ROW_BUFFER_HIT:    1463459  ROW_BUFFER_MISS:    1076832
 DBUS_CONGESTED:       6635
 WQ ROW_BUFFER_HIT:      54563  ROW_BUFFER_MISS:     154860  FULL:          0

 AVG_CONGESTED_CYCLE: 5
 All warmup complete: 2
Channel 0 Bank busy for read cycles: 0
Channel 0 Bank busy for write cycles: 0
Channel 0
Rank 0
0banks busy for read cycles: 38478834
0banks busy for write cycles: 38430
1banks busy for read cycles: 25292267
1banks busy for write cycles: 5297876
2banks busy for read cycles: 17452456
2banks busy for write cycles: 2775728
3banks busy for read cycles: 13390964
3banks busy for write cycles: 1717032
4banks busy for read cycles: 10274987
4banks busy for write cycles: 1223670
5banks busy for read cycles: 7463712
5banks busy for write cycles: 968039
6banks busy for read cycles: 4846982
6banks busy for write cycles: 951927
7banks busy for read cycles: 2627683
7banks busy for write cycles: 1283237
8banks busy for read cycles: 1065009
8banks busy for write cycles: 3086954

CPU 0 Branch Prediction Accuracy: 98.3118% MPKI: 1.9419 Average ROB Occupancy at Mispredict: 175.165
Branch types
NOT_BRANCH: 44248456 88.4969%
BRANCH_DIRECT_JUMP: 580686 1.16137%
BRANCH_INDIRECT: 0 0%
BRANCH_CONDITIONAL: 5170450 10.3409%
BRANCH_DIRECT_CALL: 68 0.000136%
BRANCH_INDIRECT_CALL: 0 0%
BRANCH_RETURN: 68 0.000136%
BRANCH_OTHER: 0 0%

@sumon_overall_L1D         0         0         0         0         0         0         0
@Sumon_Early_by_class_L1D         0         0         0         0
@Sumon_Late_by_class_L1D         0         0         0         0

@Sumon_Early_by_cycle_L1D         0         0         0         0         0         0         0         0         0         0         0         0
@Sumon_Late_by_cycle_L1D         0         0         0         0         0         0
@Sumon_Early_stream_L1D         0         0         0         0         0         0         0         0         0         0         0         0
@Sumon_Early_CS_L1D         0         0         0         0         0         0         0         0         0         0         0         0
@Sumon_Early_CPLX_L1D         0         0         0         0         0         0         0         0         0         0         0         0
@Sumon_Late_stream_L1D         0         0         0         0         0         0
@Sumon_Late_CS_L1D         0         0         0         0         0         0
@Sumon_Late_CPLX_L1D         0         0         0         0         0         0
@sumon_overall_L2C    267617      5662         0      7101    274720   5036683   5037397
@Sumon_Early_by_class_L2C         0         0         0         0
@Sumon_Late_by_class_L2C         0         0         0         0

@Sumon_Early_by_cycle_L2C    134117     43390     34228     12703      2280     28771     10525       860       459       220        47        17
@Sumon_Late_by_cycle_L2C       999       875       833      1102      1853         0
@Sumon_Early_stream_L2C         0         0         0         0         0         0         0         0         0         0         0         0
@Sumon_Early_CS_L2C         0         0         0         0         0         0         0         0         0         0         0         0
@Sumon_Early_CPLX_L2C         0         0         0         0         0         0         0         0         0         0         0         0
@Sumon_Late_stream_L2C         0         0         0         0         0         0
@Sumon_Late_CS_L2C         0         0         0         0         0         0
@Sumon_Late_CPLX_L2C         0         0         0         0         0         0
DRAM PAGES: 1048576
Allocated PAGES: 20016
