Initialize SIGNATURE TABLE
ST_SET: 1
ST_WAY: 256
ST_TAG_BIT: 16
ST_TAG_MASK: ffff

Initialize PATTERN TABLE
PT_SET: 512
PT_WAY: 4
SIG_DELTA_BIT: 7
C_SIG_BIT: 4
C_DELTA_BIT: 4

Initialize PREFETCH FILTER
FILTER_SET: 1024

*** ChampSim Multicore Out-of-Order Simulator ***

Warmup Instructions: 50000000
Simulation Instructions: 50000000
Number of CPUs: 1
LLC sets: 2048
LLC ways: 16
Off-chip DRAM Size: 4096 MB Channels: 1 Width: 64-bit Data Rate: 6400 MT/s
CPU 0 runs ../../biswa/SPEC2017Traces/620.omnetpp_s-874B.champsimtrace.xz
.xz
CPU 0 Bimodal branch predictor
BTB has LRU replacement policy
ITLB has LRU replacement policy
DTLB has LRU replacement policy
STLB has LRU replacement policy
L1I has LRU replacement policy
L1D has LRU replacement policy
ST_WAYS: 256
PT_SETS: 512
Initialize DRRIP state for L2C
Initialize Hawkeye state
epoch: 1000
next table: 3563
cur table: 11297
epoch: 1000
next table: 3374
cur table: 3563
epoch: 1000
next table: 2790
cur table: 3374
epoch: 1000
next table: 2719
cur table: 2790
epoch: 1000
next table: 2765
cur table: 2719
epoch: 1000
next table: 2621
cur table: 2765
epoch: 1000
next table: 2796
cur table: 2621
epoch: 1000
next table: 2772
cur table: 2796
epoch: 1000
next table: 2643
cur table: 2772
epoch: 1000
next table: 2716
cur table: 2643
epoch: 1000
next table: 2802
cur table: 2716
epoch: 1000
next table: 2630
cur table: 2802
epoch: 1000
next table: 2628
cur table: 2630
epoch: 1000
next table: 2686
cur table: 2628
epoch: 1000
next table: 2530
cur table: 2686
epoch: 1000
next table: 2564
cur table: 2530
epoch: 1000
next table: 2520
cur table: 2564
epoch: 1000
next table: 2624
cur table: 2520
epoch: 1000
next table: 2593
cur table: 2624
epoch: 1000
next table: 2615
cur table: 2593
epoch: 1000
next table: 4107
cur table: 27104
epoch: 1000
next table: 2584
cur table: 2615
epoch: 1000
next table: 2621
cur table: 2584
epoch: 1000
next table: 3836
cur table: 4107
epoch: 1000
next table: 2746
cur table: 2621
epoch: 1000
next table: 2515
cur table: 2746
epoch: 1000
next table: 2974
cur table: 3836
epoch: 1000
next table: 2736
cur table: 2515
epoch: 1000
next table: 2879
cur table: 2736
epoch: 1000
next table: 3000
cur table: 2974
epoch: 1000
next table: 2511
cur table: 2879
epoch: 1000
next table: 2589
cur table: 2511
epoch: 1000
next table: 2494
cur table: 3000
epoch: 1000
next table: 2709
cur table: 2589
epoch: 1000
next table: 2753
cur table: 2709
epoch: 1000
next table: 2720
cur table: 2494
epoch: 1000
next table: 2876
cur table: 2753
epoch: 1000
next table: 2484
cur table: 2720
epoch: 1000
next table: 2627
cur table: 2876
epoch: 1000
next table: 2314
cur table: 2484
epoch: 1000
next table: 2685
cur table: 2627
epoch: 1000
next table: 2517
cur table: 2685
epoch: 1000
next table: 2277
cur table: 2314
epoch: 1000
next table: 2516
cur table: 2517
epoch: 1000
next table: 2255
cur table: 2277
epoch: 1000
next table: 3043
cur table: 2516
epoch: 1000
next table: 2157
cur table: 2255
epoch: 1000
next table: 2617
cur table: 3043
epoch: 1000
next table: 2311
cur table: 2157
epoch: 1000
next table: 3036
cur table: 2617
epoch: 1000
next table: 2541
cur table: 3036
epoch: 1000
next table: 2231
cur table: 2311
epoch: 1000
next table: 2567
cur table: 2541
epoch: 1000
next table: 2192
cur table: 2231
epoch: 1000
next table: 2688
cur table: 2567
epoch: 1000
next table: 2128
cur table: 2192
epoch: 1000
next table: 2556
cur table: 2688
epoch: 1000
next table: 2355
cur table: 2128
epoch: 1000
next table: 2747
cur table: 2556
epoch: 1000
next table: 2162
cur table: 2355
epoch: 1000
next table: 2627
cur table: 2747
epoch: 1000
next table: 2709
cur table: 2627
epoch: 1000
next table: 2094
cur table: 2162
epoch: 1000
next table: 2790
cur table: 2709
epoch: 1000
next table: 2132
cur table: 2094
epoch: 1000
next table: 2516
cur table: 2790
epoch: 1000
next table: 2216
cur table: 2132
epoch: 1000
next table: 2652
cur table: 2516
epoch: 1000
next table: 2130
cur table: 2216
epoch: 1000
next table: 2588
cur table: 2652
epoch: 1000
next table: 2136
cur table: 2130
epoch: 1000
next table: 2515
cur table: 2588
epoch: 1000
next table: 2186
cur table: 2136
epoch: 1000
next table: 2448
cur table: 2515
epoch: 1000
next table: 2135
cur table: 2186
epoch: 1000
next table: 2995
cur table: 2448
epoch: 1000
next table: 2707
cur table: 2995
epoch: 1000
next table: 2372
cur table: 2135
epoch: 1000
next table: 2592
cur table: 2707
epoch: 1000
next table: 2242
cur table: 2372
epoch: 1000
next table: 2834
cur table: 2592
epoch: 1000
next table: 2209
cur table: 2242
epoch: 1000
next table: 3013
cur table: 2834
epoch: 1000
next table: 2660
cur table: 3013
epoch: 1000
next table: 2363
cur table: 2209
epoch: 1000
next table: 2624
cur table: 2660
epoch: 1000
next table: 2166
cur table: 2363
epoch: 1000
next table: 2582
cur table: 2624
epoch: 1000
next table: 2128
cur table: 2166
epoch: 1000
next table: 2620
cur table: 2582
epoch: 1000
next table: 2032
cur table: 2128
epoch: 1000
next table: 2561
cur table: 2620
epoch: 1000
next table: 2161
cur table: 2032
epoch: 1000
next table: 2871
cur table: 2561
epoch: 1000
next table: 2123
cur table: 2161
epoch: 1000
next table: 2641
cur table: 2871
epoch: 1000
next table: 2059
cur table: 2123
epoch: 1000
next table: 2521
cur table: 2641
epoch: 1000
next table: 2592
cur table: 2521
epoch: 1000
next table: 2365
cur table: 2059
epoch: 1000
next table: 2603
cur table: 2592
epoch: 1000
next table: 2447
cur table: 2365
epoch: 1000
next table: 3008
cur table: 2603
epoch: 1000
next table: 2320
cur table: 2447
epoch: 1000
next table: 2751
cur table: 3008
epoch: 1000
next table: 2790
cur table: 2751
epoch: 1000
next table: 2262
cur table: 2320
epoch: 1000
next table: 2587
cur table: 2790
epoch: 1000
next table: 2098
cur table: 2262
epoch: 1000
next table: 2706
cur table: 2587
epoch: 1000
next table: 2165
cur table: 2098
epoch: 1000
next table: 2574
cur table: 2706
epoch: 1000
next table: 1933
cur table: 2165
epoch: 1000
next table: 2476
cur table: 2574
epoch: 1000
next table: 1903
cur table: 1933
epoch: 1000
next table: 2552
cur table: 2476
epoch: 1000
next table: 1974
cur table: 1903
epoch: 1000
next table: 2745
cur table: 2552
epoch: 1000
next table: 1996
cur table: 1974
epoch: 1000
next table: 2813
cur table: 2745
epoch: 1000
next table: 2189
cur table: 1996
epoch: 1000
next table: 3072
cur table: 2813
epoch: 1000
next table: 2233
cur table: 2189
epoch: 1000
next table: 2964
cur table: 3072
epoch: 1000
next table: 2066
cur table: 2233
epoch: 1000
next table: 2525
cur table: 2964
epoch: 1000
next table: 1942
cur table: 2066
epoch: 1000
next table: 2660
cur table: 2525
epoch: 1000
next table: 1983
cur table: 1942
epoch: 1000
next table: 2610
cur table: 2660
epoch: 1000
next table: 2925
cur table: 2610
epoch: 1000
next table: 2430
cur table: 1983
epoch: 1000
next table: 2670
cur table: 2925
epoch: 1000
next table: 2016
cur table: 2430
epoch: 1000
next table: 2725
cur table: 2670
epoch: 1000
next table: 2055
cur table: 2016
epoch: 1000
next table: 2588
cur table: 2725
epoch: 1000
next table: 1965
cur table: 2055
epoch: 1000
next table: 2504
cur table: 2588
epoch: 1000
next table: 1992
cur table: 1965
epoch: 1000
next table: 2520
cur table: 2504
epoch: 1000
next table: 1903
cur table: 1992
epoch: 1000
next table: 2618
cur table: 2520
epoch: 1000
next table: 1996
cur table: 1903
epoch: 1000
next table: 2787
cur table: 2618
epoch: 1000
next table: 2004
cur table: 1996
epoch: 1000
next table: 2549
cur table: 2787
epoch: 1000
next table: 1990
cur table: 2004
epoch: 1000
next table: 2755
cur table: 2549
epoch: 1000
next table: 2216
cur table: 1990
epoch: 1000
next table: 2620
cur table: 2755
epoch: 1000
next table: 2188
cur table: 2216
epoch: 1000
next table: 2902
cur table: 2620
epoch: 1000
next table: 2096
cur table: 2188
epoch: 1000
next table: 2832
cur table: 2902
epoch: 1000
next table: 2009
cur table: 2096
epoch: 1000
next table: 2450
cur table: 2832
epoch: 1000
next table: 1954
cur table: 2009
epoch: 1000
next table: 2581
cur table: 2450
epoch: 1000
next table: 1974
cur table: 1954
epoch: 1000
next table: 2570
cur table: 2581
epoch: 1000
next table: 2159
cur table: 1974
epoch: 1000
next table: 2755
cur table: 2570
epoch: 1000
next table: 2187
cur table: 2159
epoch: 1000
next table: 2703
cur table: 2755
epoch: 1000
next table: 1970
cur table: 2187
epoch: 1000
next table: 2442
cur table: 2703
epoch: 1000
next table: 2089
cur table: 1970
epoch: 1000
next table: 2719
cur table: 2442
epoch: 1000
next table: 2589
cur table: 2719
epoch: 1000
next table: 2220
cur table: 2089
epoch: 1000
next table: 2586
cur table: 2589
epoch: 1000
next table: 1981
cur table: 2220
epoch: 1000
next table: 2596
cur table: 2586
epoch: 1000
next table: 2303
cur table: 1981
epoch: 1000
next table: 2621
cur table: 2596
epoch: 1000
next table: 2198
cur table: 2303
epoch: 1000
next table: 2559
cur table: 2621
epoch: 1000
next table: 2249
cur table: 2198
epoch: 1000
next table: 2582
cur table: 2559
epoch: 1000
next table: 2495
cur table: 2582
epoch: 1000
next table: 2233
cur table: 2249
epoch: 1000
next table: 2911
cur table: 2495
epoch: 1000
next table: 2304
cur table: 2233
epoch: 1000
next table: 2583
cur table: 2911
epoch: 1000
next table: 2151
cur table: 2304
epoch: 1000
next table: 2576
cur table: 2583
epoch: 1000
next table: 2279
cur table: 2151
epoch: 1000
next table: 3072
cur table: 2576
epoch: 1000
next table: 2505
cur table: 3072
epoch: 1000
next table: 2119
cur table: 2279
epoch: 1000
next table: 2937
cur table: 2505
epoch: 1000
next table: 2149
cur table: 2119
epoch: 1000
next table: 2902
cur table: 2937
epoch: 1000
next table: 2296
cur table: 2149
epoch: 1000
next table: 2565
cur table: 2902
epoch: 1000
next table: 2114
cur table: 2296
epoch: 1000
next table: 2726
cur table: 2565
epoch: 1000
next table: 2228
cur table: 2114
epoch: 1000
next table: 2888
cur table: 2726
epoch: 1000
next table: 2098
cur table: 2228
epoch: 1000
next table: 2471
cur table: 2888
epoch: 1000
next table: 2636
cur table: 2471
epoch: 1000
next table: 2117
cur table: 2098
epoch: 1000
next table: 2532
cur table: 2636
epoch: 1000
next table: 2147
cur table: 2117
epoch: 1000
next table: 2856
cur table: 2532
epoch: 1000
next table: 2524
cur table: 2147
epoch: 1000
next table: 2791
cur table: 2856
epoch: 1000
next table: 2091
cur table: 2524
epoch: 1000
next table: 2499
cur table: 2791
epoch: 1000
next table: 2199
cur table: 2091
epoch: 1000
next table: 2667
cur table: 2499
epoch: 1000
next table: 2628
cur table: 2667
epoch: 1000
next table: 2190
cur table: 2199
epoch: 1000
next table: 2503
cur table: 2628
epoch: 1000
next table: 2141
cur table: 2190
epoch: 1000
next table: 2656
cur table: 2503
epoch: 1000
next table: 2287
cur table: 2141
epoch: 1000
next table: 2624
cur table: 2656
epoch: 1000
next table: 2199
cur table: 2287
epoch: 1000
next table: 2704
cur table: 2624
epoch: 1000
next table: 2986
cur table: 2704
epoch: 1000
next table: 2411
cur table: 2199
epoch: 1000
next table: 2650
cur table: 2986
epoch: 1000
next table: 2101
cur table: 2411
epoch: 1000
next table: 2563
cur table: 2650
epoch: 1000
next table: 2091
cur table: 2101
epoch: 1000
next table: 2629
cur table: 2563
epoch: 1000
next table: 2155
cur table: 2091
epoch: 1000
next table: 2624
cur table: 2629
epoch: 1000
next table: 2210
cur table: 2155
epoch: 1000
next table: 2650
cur table: 2624
epoch: 1000
next table: 2160
cur table: 2210
epoch: 1000
next table: 2653
cur table: 2650
epoch: 1000
next table: 2079
cur table: 2160
epoch: 1000
next table: 2547
cur table: 2653
epoch: 1000
next table: 2681
cur table: 2547
epoch: 1000
next table: 2091
cur table: 2079
Heartbeat CPU 0 instructions: 10000001 cycles: 3903872 heartbeat IPC: 2.56156 cumulative IPC: 2.56156 (Simulation time: 0 hr 3 min 23 sec) 
epoch: 1000
next table: 2647
cur table: 2681
epoch: 1000
next table: 2287
cur table: 2091
epoch: 1000
next table: 2513
cur table: 2647
epoch: 1000
next table: 2261
cur table: 2287
epoch: 1000
next table: 2888
cur table: 2513
epoch: 1000
next table: 2879
cur table: 2888
epoch: 1000
next table: 2472
cur table: 2261
epoch: 1000
next table: 2794
cur table: 2879
epoch: 1000
next table: 2361
cur table: 2472
epoch: 1000
next table: 2897
cur table: 2794
epoch: 1000
next table: 2344
cur table: 2361
epoch: 1000
next table: 2529
cur table: 2897
epoch: 1000
next table: 2622
cur table: 2529
epoch: 1000
next table: 2192
cur table: 2344
epoch: 1000
next table: 2567
cur table: 2622
epoch: 1000
next table: 2124
cur table: 2192
epoch: 1000
next table: 2561
cur table: 2567
epoch: 1000
next table: 2191
cur table: 2124
epoch: 1000
next table: 2664
cur table: 2561
epoch: 1000
next table: 2224
cur table: 2191
epoch: 1000
next table: 2526
cur table: 2664
epoch: 1000
next table: 2130
cur table: 2224
epoch: 1000
next table: 2695
cur table: 2526
epoch: 1000
next table: 2907
cur table: 2695
epoch: 1000
next table: 2404
cur table: 2130
epoch: 1000
next table: 2525
cur table: 2907
epoch: 1000
next table: 2245
cur table: 2404
epoch: 1000
next table: 2712
cur table: 2525
epoch: 1000
next table: 2257
cur table: 2245
epoch: 1000
next table: 2675
cur table: 2712
epoch: 1000
next table: 2131
cur table: 2257
epoch: 1000
next table: 2998
cur table: 2675
epoch: 1000
next table: 2241
cur table: 2131
epoch: 1000
next table: 2516
cur table: 2998
epoch: 1000
next table: 2619
cur table: 2516
epoch: 1000
next table: 2171
cur table: 2241
epoch: 1000
next table: 2642
cur table: 2619
epoch: 1000
next table: 2222
cur table: 2171
epoch: 1000
next table: 2653
cur table: 2642
epoch: 1000
next table: 2159
cur table: 2222
epoch: 1000
next table: 2716
cur table: 2653
epoch: 1000
next table: 2100
cur table: 2159
epoch: 1000
next table: 2693
cur table: 2716
epoch: 1000
next table: 2187
cur table: 2100
epoch: 1000
next table: 2845
cur table: 2693
epoch: 1000
next table: 2681
cur table: 2845
epoch: 1000
next table: 2226
cur table: 2187
epoch: 1000
next table: 2807
cur table: 2681
epoch: 1000
next table: 2218
cur table: 2226
epoch: 1000
next table: 2645
cur table: 2807
epoch: 1000
next table: 2195
cur table: 2218
epoch: 1000
next table: 2595
cur table: 2645
epoch: 1000
next table: 2180
cur table: 2195
epoch: 1000
next table: 2664
cur table: 2595
epoch: 1000
next table: 2098
cur table: 2180
epoch: 1000
next table: 2514
cur table: 2664
epoch: 1000
next table: 2181
cur table: 2098
epoch: 1000
next table: 2628
cur table: 2514
epoch: 1000
next table: 2587
cur table: 2628
epoch: 1000
next table: 2336
cur table: 2181
epoch: 1000
next table: 2541
cur table: 2587
epoch: 1000
next table: 2118
cur table: 2336
epoch: 1000
next table: 2863
cur table: 2541
epoch: 1000
next table: 2301
cur table: 2118
epoch: 1000
next table: 2749
cur table: 2863
epoch: 1000
next table: 2678
cur table: 2749
epoch: 1000
next table: 2372
cur table: 2301
epoch: 1000
next table: 2595
cur table: 2678
epoch: 1000
next table: 2088
cur table: 2372
epoch: 1000
next table: 2781
cur table: 2595
epoch: 1000
next table: 2161
cur table: 2088
epoch: 1000
next table: 2710
cur table: 2781
epoch: 1000
next table: 2235
cur table: 2161
epoch: 1000
next table: 2743
cur table: 2710
epoch: 1000
next table: 2072
cur table: 2235
epoch: 1000
next table: 2498
cur table: 2743
epoch: 1000
next table: 2117
cur table: 2072
epoch: 1000
next table: 2572
cur table: 2498
epoch: 1000
next table: 2114
cur table: 2117
epoch: 1000
next table: 2803
cur table: 2572
epoch: 1000
next table: 2899
cur table: 2803
epoch: 1000
next table: 2210
cur table: 2114
epoch: 1000
next table: 2576
cur table: 2899
epoch: 1000
next table: 2191
cur table: 2210
epoch: 1000
next table: 2726
cur table: 2576
epoch: 1000
next table: 2259
cur table: 2191
epoch: 1000
next table: 2553
cur table: 2726
epoch: 1000
next table: 2058
cur table: 2259
epoch: 1000
next table: 2462
cur table: 2553
epoch: 1000
next table: 2090
cur table: 2058
epoch: 1000
next table: 2673
cur table: 2462
epoch: 1000
next table: 2147
cur table: 2090
epoch: 1000
next table: 2864
cur table: 2673
epoch: 1000
next table: 2104
cur table: 2147
epoch: 1000
next table: 2596
cur table: 2864
epoch: 1000
next table: 2907
cur table: 2596
epoch: 1000
next table: 2238
cur table: 2104
epoch: 1000
next table: 2498
cur table: 2907
epoch: 1000
next table: 2127
cur table: 2238
epoch: 1000
next table: 2597
cur table: 2498
epoch: 1000
next table: 2012
cur table: 2127
epoch: 1000
next table: 2484
cur table: 2597
epoch: 1000
next table: 2059
cur table: 2012
epoch: 1000
next table: 2464
cur table: 2484
epoch: 1000
next table: 2105
cur table: 2059
epoch: 1000
next table: 2513
cur table: 2464
epoch: 1000
next table: 2292
cur table: 2105
epoch: 1000
next table: 2518
cur table: 2513
epoch: 1000
next table: 2147
cur table: 2292
epoch: 1000
next table: 2579
cur table: 2518
epoch: 1000
next table: 2673
cur table: 2579
epoch: 1000
next table: 2370
cur table: 2147
epoch: 1000
next table: 2792
cur table: 2673
epoch: 1000
next table: 2480
cur table: 2370
epoch: 1000
next table: 2936
cur table: 2792
epoch: 1000
next table: 2205
cur table: 2480
epoch: 1000
next table: 2677
cur table: 2936
epoch: 1000
next table: 2730
cur table: 2677
epoch: 1000
next table: 2288
cur table: 2205
epoch: 1000
next table: 2796
cur table: 2730
epoch: 1000
next table: 2290
cur table: 2288
epoch: 1000
next table: 2469
cur table: 2796
epoch: 1000
next table: 2259
cur table: 2290
epoch: 1000
next table: 2801
cur table: 2469
epoch: 1000
next table: 2107
cur table: 2259
epoch: 1000
next table: 2581
cur table: 2801
epoch: 1000
next table: 2103
cur table: 2107
epoch: 1000
next table: 2544
cur table: 2581
epoch: 1000
next table: 2567
cur table: 2544
epoch: 1000
next table: 2257
cur table: 2103
epoch: 1000
next table: 2648
cur table: 2567
epoch: 1000
next table: 2196
cur table: 2257
epoch: 1000
next table: 2640
cur table: 2648
epoch: 1000
next table: 2239
cur table: 2196
epoch: 1000
next table: 2599
cur table: 2640
epoch: 1000
next table: 2154
cur table: 2239
epoch: 1000
next table: 2705
cur table: 2599
epoch: 1000
next table: 2828
cur table: 2705
epoch: 1000
next table: 2232
cur table: 2154
epoch: 1000
next table: 2645
cur table: 2828
epoch: 1000
next table: 2256
cur table: 2232
epoch: 1000
next table: 2626
cur table: 2645
epoch: 1000
next table: 2200
cur table: 2256
epoch: 1000
next table: 2589
cur table: 2626
epoch: 1000
next table: 2104
cur table: 2200
epoch: 1000
next table: 2552
cur table: 2589
epoch: 1000
next table: 2960
cur table: 2552
epoch: 1000
next table: 2380
cur table: 2104
epoch: 1000
next table: 2700
cur table: 2960
epoch: 1000
next table: 2454
cur table: 2380
epoch: 1000
next table: 2477
cur table: 2700
epoch: 1000
next table: 2163
cur table: 2454
epoch: 1000
next table: 2707
cur table: 2477
epoch: 1000
next table: 2342
cur table: 2163
epoch: 1000
next table: 2853
cur table: 2707
epoch: 1000
next table: 2513
cur table: 2853
epoch: 1000
next table: 2393
cur table: 2342
epoch: 1000
next table: 2783
cur table: 2513
epoch: 1000
next table: 2190
cur table: 2393
epoch: 1000
next table: 2557
cur table: 2783
epoch: 1000
next table: 2152
cur table: 2190
epoch: 1000
next table: 2708
cur table: 2557
epoch: 1000
next table: 2182
cur table: 2152
epoch: 1000
next table: 2603
cur table: 2708
epoch: 1000
next table: 2552
cur table: 2603
epoch: 1000
next table: 2198
cur table: 2182
epoch: 1000
next table: 3038
cur table: 2552
epoch: 1000
next table: 2412
cur table: 2198
epoch: 1000
next table: 2772
cur table: 3038
epoch: 1000
next table: 2252
cur table: 2412
epoch: 1000
next table: 2672
cur table: 2772
epoch: 1000
next table: 2623
cur table: 2672
epoch: 1000
next table: 2269
cur table: 2252
epoch: 1000
next table: 2771
cur table: 2623
epoch: 1000
next table: 2247
cur table: 2269
epoch: 1000
next table: 2589
cur table: 2771
epoch: 1000
next table: 2113
cur table: 2247
epoch: 1000
next table: 2831
cur table: 2589
epoch: 1000
next table: 2169
cur table: 2113
epoch: 1000
next table: 2856
cur table: 2831
epoch: 1000
next table: 2193
cur table: 2169
epoch: 1000
next table: 2577
cur table: 2856
epoch: 1000
next table: 2129
cur table: 2193
epoch: 1000
next table: 2593
cur table: 2577
epoch: 1000
next table: 2107
cur table: 2129
epoch: 1000
next table: 2582
cur table: 2593
epoch: 1000
next table: 2611
cur table: 2582
epoch: 1000
next table: 2253
cur table: 2107
epoch: 1000
next table: 2713
cur table: 2611
epoch: 1000
next table: 2182
cur table: 2253
epoch: 1000
next table: 2677
cur table: 2713
epoch: 1000
next table: 2124
cur table: 2182
epoch: 1000
next table: 2615
cur table: 2677
epoch: 1000
next table: 2163
cur table: 2124
epoch: 1000
next table: 2701
cur table: 2615
epoch: 1000
next table: 2251
cur table: 2163
epoch: 1000
next table: 2779
cur table: 2701
epoch: 1000
next table: 2604
cur table: 2779
epoch: 1000
next table: 2079
cur table: 2251
epoch: 1000
next table: 2614
cur table: 2604
epoch: 1000
next table: 2381
cur table: 2079
epoch: 1000
next table: 2820
cur table: 2614
epoch: 1000
next table: 2339
cur table: 2381
epoch: 1000
next table: 2868
cur table: 2820
epoch: 1000
next table: 2680
cur table: 2868
epoch: 1000
next table: 2229
cur table: 2339
epoch: 1000
next table: 2728
cur table: 2680
epoch: 1000
next table: 2251
cur table: 2229
epoch: 1000
next table: 2555
cur table: 2728
epoch: 1000
next table: 2191
cur table: 2251
epoch: 1000
next table: 2689
cur table: 2555
epoch: 1000
next table: 1997
cur table: 2191
epoch: 1000
next table: 2529
cur table: 2689
epoch: 1000
next table: 2143
cur table: 1997
epoch: 1000
next table: 2543
cur table: 2529
epoch: 1000
next table: 2050
cur table: 2143
epoch: 1000
next table: 2613
cur table: 2543
epoch: 1000
next table: 2194
cur table: 2050
epoch: 1000
next table: 2703
cur table: 2613
epoch: 1000
next table: 2786
cur table: 2703
epoch: 1000
next table: 2300
cur table: 2194
epoch: 1000
next table: 2624
cur table: 2786
epoch: 1000
next table: 2109
cur table: 2300
epoch: 1000
next table: 2814
cur table: 2624
epoch: 1000
next table: 2451
cur table: 2109
epoch: 1000
next table: 2767
cur table: 2814
epoch: 1000
next table: 2940
cur table: 2767
epoch: 1000
next table: 2471
cur table: 2451
epoch: 1000
next table: 2754
cur table: 2940
epoch: 1000
next table: 2258
cur table: 2471
epoch: 1000
next table: 2543
cur table: 2754
epoch: 1000
next table: 2345
cur table: 2258
epoch: 1000
next table: 3026
cur table: 2543
epoch: 1000
next table: 2123
cur table: 2345
epoch: 1000
next table: 2444
cur table: 3026
epoch: 1000
next table: 2709
cur table: 2444
epoch: 1000
next table: 2174
cur table: 2123
epoch: 1000
next table: 2721
cur table: 2709
epoch: 1000
next table: 2046
cur table: 2174
epoch: 1000
next table: 2855
cur table: 2721
epoch: 1000
next table: 2075
cur table: 2046
epoch: 1000
next table: 2796
cur table: 2855
epoch: 1000
next table: 1995
cur table: 2075
epoch: 1000
next table: 2791
cur table: 2796
epoch: 1000
next table: 2155
cur table: 1995
epoch: 1000
next table: 2662
cur table: 2791
epoch: 1000
next table: 2011
cur table: 2155
epoch: 1000
next table: 2557
cur table: 2662
epoch: 1000
next table: 1943
cur table: 2011
epoch: 1000
next table: 2521
cur table: 2557
epoch: 1000
next table: 1953
cur table: 1943
epoch: 1000
next table: 2524
cur table: 2521
epoch: 1000
next table: 1981
cur table: 1953
epoch: 1000
next table: 2771
cur table: 2524
epoch: 1000
next table: 2180
cur table: 1981
epoch: 1000
next table: 2695
cur table: 2771
epoch: 1000
next table: 2107
cur table: 2180
epoch: 1000
next table: 2607
cur table: 2695
epoch: 1000
next table: 1871
cur table: 2107
epoch: 1000
next table: 2532
cur table: 2607
epoch: 1000
next table: 2094
cur table: 1871
epoch: 1000
next table: 2643
cur table: 2532
epoch: 1000
next table: 2083
cur table: 2094
epoch: 1000
next table: 2592
cur table: 2643
epoch: 1000
next table: 2025
cur table: 2083
epoch: 1000
next table: 2514
cur table: 2592
epoch: 1000
next table: 2082
cur table: 2025
epoch: 1000
next table: 2797
cur table: 2514
Heartbeat CPU 0 instructions: 20000001 cycles: 7803320 heartbeat IPC: 2.56447 cumulative IPC: 2.56301 (Simulation time: 0 hr 6 min 40 sec) 
epoch: 1000
next table: 2775
cur table: 2797
epoch: 1000
next table: 2349
cur table: 2082
epoch: 1000
next table: 2668
cur table: 2775
epoch: 1000
next table: 2265
cur table: 2349
epoch: 1000
next table: 2746
cur table: 2668
epoch: 1000
next table: 2198
cur table: 2265
epoch: 1000
next table: 2581
cur table: 2746
epoch: 1000
next table: 2087
cur table: 2198
epoch: 1000
next table: 2835
cur table: 2581
epoch: 1000
next table: 2217
cur table: 2087
epoch: 1000
next table: 2701
cur table: 2835
epoch: 1000
next table: 2026
cur table: 2217
epoch: 1000
next table: 2747
cur table: 2701
epoch: 1000
next table: 1967
cur table: 2026
epoch: 1000
next table: 2570
cur table: 2747
epoch: 1000
next table: 2052
cur table: 1967
epoch: 1000
next table: 2889
cur table: 2570
epoch: 1000
next table: 2055
cur table: 2052
epoch: 1000
next table: 2730
cur table: 2889
epoch: 1000
next table: 1976
cur table: 2055
epoch: 1000
next table: 2602
cur table: 2730
epoch: 1000
next table: 1960
cur table: 1976
epoch: 1000
next table: 2787
cur table: 2602
epoch: 1000
next table: 2129
cur table: 1960
epoch: 1000
next table: 2870
cur table: 2787
epoch: 1000
next table: 1970
cur table: 2129
epoch: 1000
next table: 2639
cur table: 2870
epoch: 1000
next table: 1954
cur table: 1970
epoch: 1000
next table: 2636
cur table: 2639
epoch: 1000
next table: 1945
cur table: 1954
epoch: 1000
next table: 2600
cur table: 2636
epoch: 1000
next table: 1988
cur table: 1945
epoch: 1000
next table: 2546
cur table: 2600
epoch: 1000
next table: 2007
cur table: 1988
epoch: 1000
next table: 2667
cur table: 2546
epoch: 1000
next table: 2778
cur table: 2667
epoch: 1000
next table: 2211
cur table: 2007
epoch: 1000
next table: 2661
cur table: 2778
epoch: 1000
next table: 2039
cur table: 2211
epoch: 1000
next table: 2634
cur table: 2661
epoch: 1000
next table: 1951
cur table: 2039
epoch: 1000
next table: 2815
cur table: 2634
epoch: 1000
next table: 2269
cur table: 1951
epoch: 1000
next table: 2561
cur table: 2815
epoch: 1000
next table: 2242
cur table: 2269
epoch: 1000
next table: 2562
cur table: 2561
epoch: 1000
next table: 2151
cur table: 2242
epoch: 1000
next table: 2786
cur table: 2562
epoch: 1000
next table: 2643
cur table: 2786
epoch: 1000
next table: 2593
cur table: 2151
epoch: 1000
next table: 2854
cur table: 2643
epoch: 1000
next table: 2270
cur table: 2593
epoch: 1000
next table: 2992
cur table: 2854
epoch: 1000
next table: 2271
cur table: 2270
epoch: 1000
next table: 2527
cur table: 2992
epoch: 1000
next table: 2122
cur table: 2271
epoch: 1000
next table: 2628
cur table: 2527
epoch: 1000
next table: 2032
cur table: 2122
epoch: 1000
next table: 2508
cur table: 2628
epoch: 1000
next table: 2555
cur table: 2508
epoch: 1000
next table: 2111
cur table: 2032
epoch: 1000
next table: 2672
cur table: 2555
epoch: 1000
next table: 2163
cur table: 2111
epoch: 1000
next table: 2737
cur table: 2672
epoch: 1000
next table: 2304
cur table: 2163
epoch: 1000
next table: 2833
cur table: 2737
epoch: 1000
next table: 2254
cur table: 2304
epoch: 1000
next table: 2634
cur table: 2833
epoch: 1000
next table: 2067
cur table: 2254
epoch: 1000
next table: 2699
cur table: 2634
epoch: 1000
next table: 2516
cur table: 2699
epoch: 1000
next table: 2119
cur table: 2067
epoch: 1000
next table: 2524
cur table: 2516
epoch: 1000
next table: 2156
cur table: 2119
epoch: 1000
next table: 2787
cur table: 2524
epoch: 1000
next table: 2278
cur table: 2156
epoch: 1000
next table: 2581
cur table: 2787
epoch: 1000
next table: 2535
cur table: 2278
epoch: 1000
next table: 2545
cur table: 2581
epoch: 1000
next table: 2571
cur table: 2545
epoch: 1000
next table: 2168
cur table: 2535
epoch: 1000
next table: 2670
cur table: 2571
epoch: 1000
next table: 2207
cur table: 2168
epoch: 1000
next table: 2568
cur table: 2670
epoch: 1000
next table: 2089
cur table: 2207
epoch: 1000
next table: 2666
cur table: 2568
epoch: 1000
next table: 2461
cur table: 2089
epoch: 1000
next table: 2687
cur table: 2666
epoch: 1000
next table: 2793
cur table: 2687
epoch: 1000
next table: 2582
cur table: 2461
epoch: 1000
next table: 2572
cur table: 2793
epoch: 1000
next table: 2284
cur table: 2582
epoch: 1000
next table: 2773
cur table: 2572
epoch: 1000
next table: 2874
cur table: 2773
epoch: 1000
next table: 2525
cur table: 2284
epoch: 1000
next table: 2526
cur table: 2874
epoch: 1000
next table: 2333
cur table: 2525
epoch: 1000
next table: 2524
cur table: 2526
epoch: 1000
next table: 2141
cur table: 2333
epoch: 1000
next table: 2665
cur table: 2524
epoch: 1000
next table: 2592
cur table: 2665
epoch: 1000
next table: 2249
cur table: 2141
epoch: 1000
next table: 2655
cur table: 2592
epoch: 1000
next table: 2166
cur table: 2249
epoch: 1000
next table: 2715
cur table: 2655
epoch: 1000
next table: 2168
cur table: 2166
epoch: 1000
next table: 2575
cur table: 2715
epoch: 1000
next table: 2193
cur table: 2168
epoch: 1000
next table: 2623
cur table: 2575
epoch: 1000
next table: 2316
cur table: 2193
epoch: 1000
next table: 2889
cur table: 2623
epoch: 1000
next table: 2627
cur table: 2889
epoch: 1000
next table: 2195
cur table: 2316
epoch: 1000
next table: 2674
cur table: 2627
epoch: 1000
next table: 2292
cur table: 2195
epoch: 1000
next table: 2556
cur table: 2674
epoch: 1000
next table: 2189
cur table: 2292
epoch: 1000
next table: 2857
cur table: 2556
epoch: 1000
next table: 2289
cur table: 2189
epoch: 1000
next table: 2563
cur table: 2857
epoch: 1000
next table: 2645
cur table: 2563
epoch: 1000
next table: 2196
cur table: 2289
epoch: 1000
next table: 2626
cur table: 2645
epoch: 1000
next table: 2314
cur table: 2196
epoch: 1000
next table: 2393
cur table: 2626
epoch: 1000
next table: 2200
cur table: 2314
epoch: 1000
next table: 2813
cur table: 2393
epoch: 1000
next table: 2260
cur table: 2200
epoch: 1000
next table: 2575
cur table: 2813
epoch: 1000
next table: 2041
cur table: 2260
epoch: 1000
next table: 2674
cur table: 2575
epoch: 1000
next table: 2112
cur table: 2041
epoch: 1000
next table: 2807
cur table: 2674
epoch: 1000
next table: 1945
cur table: 2112
epoch: 1000
next table: 2580
cur table: 2807
epoch: 1000
next table: 1985
cur table: 1945
epoch: 1000
next table: 2720
cur table: 2580
epoch: 1000
next table: 1957
cur table: 1985
epoch: 1000
next table: 2625
cur table: 2720
epoch: 1000
next table: 1974
cur table: 1957
epoch: 1000
next table: 2656
cur table: 2625
epoch: 1000
next table: 2049
cur table: 1974
epoch: 1000
next table: 2786
cur table: 2656
epoch: 1000
next table: 2099
cur table: 2049
epoch: 1000
next table: 2710
cur table: 2786
epoch: 1000
next table: 2554
cur table: 2710
epoch: 1000
next table: 2117
cur table: 2099
epoch: 1000
next table: 2452
cur table: 2554
epoch: 1000
next table: 2232
cur table: 2117
epoch: 1000
next table: 2883
cur table: 2452
epoch: 1000
next table: 2441
cur table: 2232
epoch: 1000
next table: 2765
cur table: 2883
epoch: 1000
next table: 2159
cur table: 2441
epoch: 1000
next table: 2563
cur table: 2765
epoch: 1000
next table: 2706
cur table: 2563
epoch: 1000
next table: 2360
cur table: 2159
epoch: 1000
next table: 2592
cur table: 2706
epoch: 1000
next table: 2435
cur table: 2360
epoch: 1000
next table: 2689
cur table: 2592
epoch: 1000
next table: 2104
cur table: 2435
epoch: 1000
next table: 2586
cur table: 2689
epoch: 1000
next table: 2711
cur table: 2586
epoch: 1000
next table: 2275
cur table: 2104
epoch: 1000
next table: 2841
cur table: 2711
epoch: 1000
next table: 2656
cur table: 2275
epoch: 1000
next table: 2742
cur table: 2841
epoch: 1000
next table: 2172
cur table: 2656
epoch: 1000
next table: 2628
cur table: 2742
epoch: 1000
next table: 2657
cur table: 2628
epoch: 1000
next table: 2099
cur table: 2172
epoch: 1000
next table: 2613
cur table: 2657
epoch: 1000
next table: 2118
cur table: 2099
epoch: 1000
next table: 2591
cur table: 2613
epoch: 1000
next table: 2389
cur table: 2118
epoch: 1000
next table: 2683
cur table: 2591
epoch: 1000
next table: 2325
cur table: 2389
epoch: 1000
next table: 2868
cur table: 2683
epoch: 1000
next table: 2989
cur table: 2868
epoch: 1000
next table: 2296
cur table: 2325
epoch: 1000
next table: 2569
cur table: 2989
epoch: 1000
next table: 2388
cur table: 2296
epoch: 1000
next table: 2585
cur table: 2569
epoch: 1000
next table: 2264
cur table: 2388
epoch: 1000
next table: 2528
cur table: 2585
epoch: 1000
next table: 2639
cur table: 2528
epoch: 1000
next table: 2210
cur table: 2264
epoch: 1000
next table: 2735
cur table: 2639
epoch: 1000
next table: 2146
cur table: 2210
epoch: 1000
next table: 2714
cur table: 2735
epoch: 1000
next table: 2160
cur table: 2146
epoch: 1000
next table: 2690
cur table: 2714
epoch: 1000
next table: 2144
cur table: 2160
epoch: 1000
next table: 2483
cur table: 2690
epoch: 1000
next table: 2113
cur table: 2144
epoch: 1000
next table: 2517
cur table: 2483
epoch: 1000
next table: 2122
cur table: 2113
epoch: 1000
next table: 2647
cur table: 2517
epoch: 1000
next table: 2968
cur table: 2647
epoch: 1000
next table: 2388
cur table: 2122
epoch: 1000
next table: 2608
cur table: 2968
epoch: 1000
next table: 2107
cur table: 2388
epoch: 1000
next table: 2598
cur table: 2608
epoch: 1000
next table: 2191
cur table: 2107
epoch: 1000
next table: 2611
cur table: 2598
epoch: 1000
next table: 2152
cur table: 2191
epoch: 1000
next table: 2643
cur table: 2611
epoch: 1000
next table: 2787
cur table: 2643
epoch: 1000
next table: 2570
cur table: 2152
epoch: 1000
next table: 2596
cur table: 2787
epoch: 1000
next table: 1982
cur table: 2570
epoch: 1000
next table: 2584
cur table: 2596
epoch: 1000
next table: 2107
cur table: 1982
epoch: 1000
next table: 2748
cur table: 2584
epoch: 1000
next table: 2138
cur table: 2107
epoch: 1000
next table: 2626
cur table: 2748
epoch: 1000
next table: 1992
cur table: 2138
epoch: 1000
next table: 2855
cur table: 2626
epoch: 1000
next table: 2141
cur table: 1992
epoch: 1000
next table: 2780
cur table: 2855
epoch: 1000
next table: 2018
cur table: 2141
epoch: 1000
next table: 2548
cur table: 2780
epoch: 1000
next table: 2008
cur table: 2018
epoch: 1000
next table: 2766
cur table: 2548
epoch: 1000
next table: 1900
cur table: 2008
epoch: 1000
next table: 2635
cur table: 2766
epoch: 1000
next table: 2031
cur table: 1900
epoch: 1000
next table: 2538
cur table: 2635
epoch: 1000
next table: 2239
cur table: 2031
epoch: 1000
next table: 2889
cur table: 2538
epoch: 1000
next table: 2305
cur table: 2239
epoch: 1000
next table: 2763
cur table: 2889
epoch: 1000
next table: 2795
cur table: 2763
epoch: 1000
next table: 2466
cur table: 2305
epoch: 1000
next table: 2643
cur table: 2795
epoch: 1000
next table: 2232
cur table: 2466
epoch: 1000
next table: 2716
cur table: 2643
epoch: 1000
next table: 2128
cur table: 2232
epoch: 1000
next table: 2587
cur table: 2716
epoch: 1000
next table: 2109
cur table: 2128
epoch: 1000
next table: 2685
cur table: 2587
epoch: 1000
next table: 2741
cur table: 2685
epoch: 1000
next table: 2348
cur table: 2109
epoch: 1000
next table: 2545
cur table: 2741
epoch: 1000
next table: 1955
cur table: 2348
epoch: 1000
next table: 2540
cur table: 2545
epoch: 1000
next table: 1994
cur table: 1955
epoch: 1000
next table: 2782
cur table: 2540
epoch: 1000
next table: 1939
cur table: 1994
epoch: 1000
next table: 2616
cur table: 2782
epoch: 1000
next table: 1964
cur table: 1939
epoch: 1000
next table: 2740
cur table: 2616
epoch: 1000
next table: 2093
cur table: 1964
epoch: 1000
next table: 2779
cur table: 2740
epoch: 1000
next table: 2432
cur table: 2093
epoch: 1000
next table: 2604
cur table: 2779
epoch: 1000
next table: 2091
cur table: 2432
epoch: 1000
next table: 2542
cur table: 2604
epoch: 1000
next table: 2220
cur table: 2091
epoch: 1000
next table: 2557
cur table: 2542
epoch: 1000
next table: 2639
cur table: 2557
epoch: 1000
next table: 2227
cur table: 2220
epoch: 1000
next table: 2764
cur table: 2639
epoch: 1000
next table: 2120
cur table: 2227
epoch: 1000
next table: 2575
cur table: 2764
epoch: 1000
next table: 2261
cur table: 2120
epoch: 1000
next table: 2557
cur table: 2575
epoch: 1000
next table: 3002
cur table: 2557
epoch: 1000
next table: 2541
cur table: 2261
epoch: 1000
next table: 2513
cur table: 3002
epoch: 1000
next table: 2082
cur table: 2541
epoch: 1000
next table: 2642
cur table: 2513
epoch: 1000
next table: 2391
cur table: 2082
epoch: 1000
next table: 2528
cur table: 2642
epoch: 1000
next table: 2196
cur table: 2391
epoch: 1000
next table: 2587
cur table: 2528
epoch: 1000
next table: 2101
cur table: 2196
Heartbeat CPU 0 instructions: 30000003 cycles: 11699165 heartbeat IPC: 2.56684 cumulative IPC: 2.56429 (Simulation time: 0 hr 9 min 54 sec) 
epoch: 1000
next table: 2609
cur table: 2587
epoch: 1000
next table: 2676
cur table: 2609
epoch: 1000
next table: 2318
cur table: 2101
epoch: 1000
next table: 2649
cur table: 2676
epoch: 1000
next table: 2295
cur table: 2318
epoch: 1000
next table: 2591
cur table: 2649
epoch: 1000
next table: 2152
cur table: 2295
epoch: 1000
next table: 2770
cur table: 2591
epoch: 1000
next table: 2538
cur table: 2770
epoch: 1000
next table: 2525
cur table: 2152
epoch: 1000
next table: 2571
cur table: 2538
epoch: 1000
next table: 2582
cur table: 2525
epoch: 1000
next table: 2601
cur table: 2571
epoch: 1000
next table: 2196
cur table: 2582
epoch: 1000
next table: 2684
cur table: 2601
epoch: 1000
next table: 2652
cur table: 2684
epoch: 1000
next table: 2152
cur table: 2196
epoch: 1000
next table: 2530
cur table: 2652
epoch: 1000
next table: 2070
cur table: 2152
epoch: 1000
next table: 2551
cur table: 2530
epoch: 1000
next table: 2206
cur table: 2070
epoch: 1000
next table: 2626
cur table: 2551
epoch: 1000
next table: 2352
cur table: 2206
epoch: 1000
next table: 2538
cur table: 2626
epoch: 1000
next table: 2823
cur table: 2538
epoch: 1000
next table: 2382
cur table: 2352
epoch: 1000
next table: 2783
cur table: 2823
epoch: 1000
next table: 2250
cur table: 2382
epoch: 1000
next table: 2935
cur table: 2783
epoch: 1000
next table: 2190
cur table: 2250
epoch: 1000
next table: 2650
cur table: 2935
epoch: 1000
next table: 2245
cur table: 2190
epoch: 1000
next table: 2762
cur table: 2650
epoch: 1000
next table: 2097
cur table: 2245
epoch: 1000
next table: 2519
cur table: 2762
epoch: 1000
next table: 2046
cur table: 2097
epoch: 1000
next table: 2637
cur table: 2519
epoch: 1000
next table: 2564
cur table: 2637
epoch: 1000
next table: 2165
cur table: 2046
epoch: 1000
next table: 2611
cur table: 2564
epoch: 1000
next table: 2106
cur table: 2165
epoch: 1000
next table: 2511
cur table: 2611
epoch: 1000
next table: 2165
cur table: 2106
epoch: 1000
next table: 2778
cur table: 2511
epoch: 1000
next table: 2183
cur table: 2165
epoch: 1000
next table: 2759
cur table: 2778
epoch: 1000
next table: 2365
cur table: 2183
epoch: 1000
next table: 2763
cur table: 2759
epoch: 1000
next table: 2619
cur table: 2763
epoch: 1000
next table: 2155
cur table: 2365
epoch: 1000
next table: 2558
cur table: 2619
epoch: 1000
next table: 2356
cur table: 2155
epoch: 1000
next table: 2637
cur table: 2558
epoch: 1000
next table: 2537
cur table: 2356
epoch: 1000
next table: 2913
cur table: 2637
epoch: 1000
next table: 2558
cur table: 2913
epoch: 1000
next table: 2178
cur table: 2537
epoch: 1000
next table: 2749
cur table: 2558
epoch: 1000
next table: 2468
cur table: 2178
epoch: 1000
next table: 2833
cur table: 2749
epoch: 1000
next table: 2140
cur table: 2468
epoch: 1000
next table: 2544
cur table: 2833
epoch: 1000
next table: 2491
cur table: 2544
epoch: 1000
next table: 2251
cur table: 2140
epoch: 1000
next table: 2859
cur table: 2491
epoch: 1000
next table: 2368
cur table: 2251
epoch: 1000
next table: 2640
cur table: 2859
epoch: 1000
next table: 2331
cur table: 2368
epoch: 1000
next table: 2557
cur table: 2640
epoch: 1000
next table: 2037
cur table: 2331
epoch: 1000
next table: 2687
cur table: 2557
epoch: 1000
next table: 2665
cur table: 2687
epoch: 1000
next table: 2338
cur table: 2037
epoch: 1000
next table: 2762
cur table: 2665
epoch: 1000
next table: 2276
cur table: 2338
epoch: 1000
next table: 2527
cur table: 2762
epoch: 1000
next table: 2278
cur table: 2276
epoch: 1000
next table: 2780
cur table: 2527
epoch: 1000
next table: 2192
cur table: 2278
epoch: 1000
next table: 2636
cur table: 2780
epoch: 1000
next table: 2119
cur table: 2192
epoch: 1000
next table: 2556
cur table: 2636
epoch: 1000
next table: 2621
cur table: 2556
epoch: 1000
next table: 2142
cur table: 2119
epoch: 1000
next table: 2607
cur table: 2621
epoch: 1000
next table: 2153
cur table: 2142
epoch: 1000
next table: 2488
cur table: 2607
epoch: 1000
next table: 2271
cur table: 2153
epoch: 1000
next table: 2825
cur table: 2488
epoch: 1000
next table: 2147
cur table: 2271
epoch: 1000
next table: 2546
cur table: 2825
epoch: 1000
next table: 2285
cur table: 2147
epoch: 1000
next table: 3007
cur table: 2546
epoch: 1000
next table: 2010
cur table: 2285
epoch: 1000
next table: 2554
cur table: 3007
epoch: 1000
next table: 2727
cur table: 2554
epoch: 1000
next table: 2403
cur table: 2010
epoch: 1000
next table: 2838
cur table: 2727
epoch: 1000
next table: 2457
cur table: 2403
epoch: 1000
next table: 2502
cur table: 2838
epoch: 1000
next table: 2617
cur table: 2502
epoch: 1000
next table: 2294
cur table: 2457
epoch: 1000
next table: 2647
cur table: 2617
epoch: 1000
next table: 2204
cur table: 2294
epoch: 1000
next table: 2773
cur table: 2647
epoch: 1000
next table: 2455
cur table: 2204
epoch: 1000
next table: 2762
cur table: 2773
epoch: 1000
next table: 2163
cur table: 2455
epoch: 1000
next table: 2554
cur table: 2762
epoch: 1000
next table: 2716
cur table: 2554
epoch: 1000
next table: 2114
cur table: 2163
epoch: 1000
next table: 2848
cur table: 2716
epoch: 1000
next table: 2231
cur table: 2114
epoch: 1000
next table: 2571
cur table: 2848
epoch: 1000
next table: 2106
cur table: 2231
epoch: 1000
next table: 2866
cur table: 2571
epoch: 1000
next table: 2287
cur table: 2106
epoch: 1000
next table: 2765
cur table: 2866
epoch: 1000
next table: 2223
cur table: 2287
epoch: 1000
next table: 2686
cur table: 2765
epoch: 1000
next table: 2823
cur table: 2686
epoch: 1000
next table: 2109
cur table: 2223
epoch: 1000
next table: 2675
cur table: 2823
epoch: 1000
next table: 2166
cur table: 2109
epoch: 1000
next table: 2657
cur table: 2675
epoch: 1000
next table: 2340
cur table: 2166
epoch: 1000
next table: 2552
cur table: 2657
epoch: 1000
next table: 2250
cur table: 2340
epoch: 1000
next table: 2633
cur table: 2552
epoch: 1000
next table: 2222
cur table: 2250
epoch: 1000
next table: 2582
cur table: 2633
epoch: 1000
next table: 2522
cur table: 2582
epoch: 1000
next table: 2114
cur table: 2222
epoch: 1000
next table: 2858
cur table: 2522
epoch: 1000
next table: 2070
cur table: 2114
epoch: 1000
next table: 2545
cur table: 2858
epoch: 1000
next table: 2217
cur table: 2070
epoch: 1000
next table: 2639
cur table: 2545
epoch: 1000
next table: 2057
cur table: 2217
epoch: 1000
next table: 2630
cur table: 2639
epoch: 1000
next table: 2173
cur table: 2057
epoch: 1000
next table: 2644
cur table: 2630
epoch: 1000
next table: 2234
cur table: 2173
epoch: 1000
next table: 2609
cur table: 2644
epoch: 1000
next table: 2692
cur table: 2609
epoch: 1000
next table: 2324
cur table: 2234
epoch: 1000
next table: 2550
cur table: 2692
epoch: 1000
next table: 2199
cur table: 2324
epoch: 1000
next table: 2790
cur table: 2550
epoch: 1000
next table: 2306
cur table: 2199
epoch: 1000
next table: 2721
cur table: 2790
epoch: 1000
next table: 2794
cur table: 2721
epoch: 1000
next table: 2337
cur table: 2306
epoch: 1000
next table: 2500
cur table: 2794
epoch: 1000
next table: 2069
cur table: 2337
epoch: 1000
next table: 2740
cur table: 2500
epoch: 1000
next table: 2331
cur table: 2069
epoch: 1000
next table: 2822
cur table: 2740
epoch: 1000
next table: 2153
cur table: 2331
epoch: 1000
next table: 2641
cur table: 2822
epoch: 1000
next table: 2245
cur table: 2153
epoch: 1000
next table: 2704
cur table: 2641
epoch: 1000
next table: 2947
cur table: 2704
epoch: 1000
next table: 2401
cur table: 2245
epoch: 1000
next table: 2563
cur table: 2947
epoch: 1000
next table: 2129
cur table: 2401
epoch: 1000
next table: 2490
cur table: 2563
epoch: 1000
next table: 2307
cur table: 2129
epoch: 1000
next table: 2919
cur table: 2490
epoch: 1000
next table: 2032
cur table: 2307
epoch: 1000
next table: 2559
cur table: 2919
epoch: 1000
next table: 2239
cur table: 2032
epoch: 1000
next table: 2804
cur table: 2559
epoch: 1000
next table: 2583
cur table: 2804
epoch: 1000
next table: 2155
cur table: 2239
epoch: 1000
next table: 2903
cur table: 2583
epoch: 1000
next table: 2422
cur table: 2155
epoch: 1000
next table: 3019
cur table: 2903
epoch: 1000
next table: 2143
cur table: 2422
epoch: 1000
next table: 2396
cur table: 3019
epoch: 1000
next table: 2123
cur table: 2143
epoch: 1000
next table: 2530
cur table: 2396
epoch: 1000
next table: 2122
cur table: 2123
epoch: 1000
next table: 2656
cur table: 2530
epoch: 1000
next table: 2664
cur table: 2656
epoch: 1000
next table: 2233
cur table: 2122
epoch: 1000
next table: 2848
cur table: 2664
epoch: 1000
next table: 2376
cur table: 2233
epoch: 1000
next table: 2877
cur table: 2848
epoch: 1000
next table: 2230
cur table: 2376
epoch: 1000
next table: 2541
cur table: 2877
epoch: 1000
next table: 2076
cur table: 2230
epoch: 1000
next table: 2643
cur table: 2541
epoch: 1000
next table: 2620
cur table: 2643
epoch: 1000
next table: 2236
cur table: 2076
epoch: 1000
next table: 2947
cur table: 2620
epoch: 1000
next table: 2133
cur table: 2236
epoch: 1000
next table: 2617
cur table: 2947
epoch: 1000
next table: 2158
cur table: 2133
epoch: 1000
next table: 2619
cur table: 2617
epoch: 1000
next table: 1988
cur table: 2158
epoch: 1000
next table: 2535
cur table: 2619
epoch: 1000
next table: 2259
cur table: 1988
epoch: 1000
next table: 2977
cur table: 2535
epoch: 1000
next table: 2208
cur table: 2259
epoch: 1000
next table: 2443
cur table: 2977
epoch: 1000
next table: 1895
cur table: 2208
epoch: 1000
next table: 2171
cur table: 2443
epoch: 1000
next table: 1871
cur table: 1895
epoch: 1000
next table: 2232
cur table: 2171
epoch: 1000
next table: 1862
cur table: 1871
epoch: 1000
next table: 2191
cur table: 2232
epoch: 1000
next table: 1901
cur table: 1862
epoch: 1000
next table: 2363
cur table: 2191
epoch: 1000
next table: 1872
cur table: 1901
epoch: 1000
next table: 2253
cur table: 2363
epoch: 1000
next table: 1910
cur table: 1872
epoch: 1000
next table: 2339
cur table: 2253
epoch: 1000
next table: 2057
cur table: 1910
epoch: 1000
next table: 2454
cur table: 2339
epoch: 1000
next table: 2195
cur table: 2057
epoch: 1000
next table: 2499
cur table: 2454
epoch: 1000
next table: 2170
cur table: 2195
epoch: 1000
next table: 2447
cur table: 2499
epoch: 1000
next table: 2115
cur table: 2170
epoch: 1000
next table: 2546
cur table: 2447
epoch: 1000
next table: 2058
cur table: 2115
epoch: 1000
next table: 2631
cur table: 2546
epoch: 1000
next table: 2085
cur table: 2058
epoch: 1000
next table: 2508
cur table: 2631
epoch: 1000
next table: 2554
cur table: 2508
epoch: 1000
next table: 2033
cur table: 2085
epoch: 1000
next table: 2553
cur table: 2554
epoch: 1000
next table: 1990
cur table: 2033
epoch: 1000
next table: 2478
cur table: 2553
epoch: 1000
next table: 2154
cur table: 1990
epoch: 1000
next table: 2554
cur table: 2478
epoch: 1000
next table: 2120
cur table: 2154
epoch: 1000
next table: 2596
cur table: 2554
epoch: 1000
next table: 2200
cur table: 2120
epoch: 1000
next table: 2462
cur table: 2596
epoch: 1000
next table: 2337
cur table: 2200
epoch: 1000
next table: 2418
cur table: 2462
epoch: 1000
next table: 2385
cur table: 2418
epoch: 1000
next table: 2183
cur table: 2337
epoch: 1000
next table: 2233
cur table: 2385
epoch: 1000
next table: 2250
cur table: 2183
epoch: 1000
next table: 2320
cur table: 2233
epoch: 1000
next table: 2290
cur table: 2250
epoch: 1000
next table: 2232
cur table: 2320
epoch: 1000
next table: 2273
cur table: 2290
epoch: 1000
next table: 2272
cur table: 2232
epoch: 1000
next table: 2338
cur table: 2272
epoch: 1000
next table: 2304
cur table: 2273
epoch: 1000
next table: 2386
cur table: 2338
epoch: 1000
next table: 2414
cur table: 2304
epoch: 1000
next table: 2379
cur table: 2386
epoch: 1000
next table: 2453
cur table: 2379
epoch: 1000
next table: 2513
cur table: 2414
epoch: 1000
next table: 2588
cur table: 2453
epoch: 1000
next table: 2442
cur table: 2513
epoch: 1000
next table: 2627
cur table: 2588
epoch: 1000
next table: 2744
cur table: 2627
epoch: 1000
next table: 2638
cur table: 2442
epoch: 1000
next table: 2610
cur table: 2744
epoch: 1000
next table: 2341
cur table: 2638
epoch: 1000
next table: 2452
cur table: 2610
epoch: 1000
next table: 2230
cur table: 2341
epoch: 1000
next table: 2503
cur table: 2452
epoch: 1000
next table: 2076
cur table: 2230
epoch: 1000
next table: 2555
cur table: 2503
epoch: 1000
next table: 2522
cur table: 2555
epoch: 1000
next table: 2449
cur table: 2076
epoch: 1000
next table: 2567
cur table: 2522
epoch: 1000
next table: 2121
cur table: 2449
epoch: 1000
next table: 2460
cur table: 2567
epoch: 1000
next table: 2240
cur table: 2121
epoch: 1000
next table: 2427
cur table: 2460
epoch: 1000
next table: 2097
cur table: 2240
epoch: 1000
next table: 3068
cur table: 2427
epoch: 1000
next table: 2148
cur table: 2097
Heartbeat CPU 0 instructions: 40000001 cycles: 15603304 heartbeat IPC: 2.56138 cumulative IPC: 2.56356 (Simulation time: 0 hr 12 min 53 sec) 
epoch: 1000
next table: 2497
cur table: 3068
epoch: 1000
next table: 2070
cur table: 2148
epoch: 1000
next table: 2745
cur table: 2497
epoch: 1000
next table: 2592
cur table: 2745
epoch: 1000
next table: 2117
cur table: 2070
epoch: 1000
next table: 2716
cur table: 2592
epoch: 1000
next table: 2072
cur table: 2117
epoch: 1000
next table: 2561
cur table: 2716
epoch: 1000
next table: 2076
cur table: 2072
epoch: 1000
next table: 2533
cur table: 2561
epoch: 1000
next table: 2100
cur table: 2076
epoch: 1000
next table: 2731
cur table: 2533
epoch: 1000
next table: 2567
cur table: 2731
epoch: 1000
next table: 2858
cur table: 2100
epoch: 1000
next table: 3256
cur table: 2567
epoch: 1000
next table: 2422
cur table: 2858
epoch: 1000
next table: 2726
cur table: 3256
epoch: 1000
next table: 2816
cur table: 2726
epoch: 1000
next table: 2488
cur table: 2422
epoch: 1000
next table: 2606
cur table: 2816
epoch: 1000
next table: 2380
cur table: 2488
epoch: 1000
next table: 2550
cur table: 2606
epoch: 1000
next table: 2500
cur table: 2380
epoch: 1000
next table: 2676
cur table: 2550
epoch: 1000
next table: 2607
cur table: 2676
epoch: 1000
next table: 2481
cur table: 2500
epoch: 1000
next table: 2796
cur table: 2607
epoch: 1000
next table: 2303
cur table: 2481
epoch: 1000
next table: 2424
cur table: 2796
epoch: 1000
next table: 2659
cur table: 2424
epoch: 1000
next table: 2329
cur table: 2303
epoch: 1000
next table: 2482
cur table: 2659
epoch: 1000
next table: 2181
cur table: 2329
epoch: 1000
next table: 2660
cur table: 2482
epoch: 1000
next table: 2105
cur table: 2181
epoch: 1000
next table: 2575
cur table: 2660
epoch: 1000
next table: 2157
cur table: 2105
epoch: 1000
next table: 2530
cur table: 2575
epoch: 1000
next table: 2171
cur table: 2157
epoch: 1000
next table: 3077
cur table: 2530
epoch: 1000
next table: 2041
cur table: 2171
epoch: 1000
next table: 2506
cur table: 3077
epoch: 1000
next table: 2039
cur table: 2041
epoch: 1000
next table: 2536
cur table: 2506
epoch: 1000
next table: 2158
cur table: 2039
epoch: 1000
next table: 2571
cur table: 2536
epoch: 1000
next table: 2678
cur table: 2571
epoch: 1000
next table: 2096
cur table: 2158
epoch: 1000
next table: 2569
cur table: 2678
epoch: 1000
next table: 2129
cur table: 2096
epoch: 1000
next table: 2577
cur table: 2569
epoch: 1000
next table: 2124
cur table: 2129
epoch: 1000
next table: 2759
cur table: 2577
epoch: 1000
next table: 2369
cur table: 2124
epoch: 1000
next table: 2705
cur table: 2759
epoch: 1000
next table: 2059
cur table: 2369
epoch: 1000
next table: 2523
cur table: 2705
epoch: 1000
next table: 2636
cur table: 2523
epoch: 1000
next table: 2329
cur table: 2059
epoch: 1000
next table: 2740
cur table: 2636
epoch: 1000
next table: 2277
cur table: 2329
epoch: 1000
next table: 2767
cur table: 2740
epoch: 1000
next table: 2260
cur table: 2277
epoch: 1000
next table: 2566
cur table: 2767
epoch: 1000
next table: 2127
cur table: 2260
epoch: 1000
next table: 2631
cur table: 2566
epoch: 1000
next table: 2151
cur table: 2127
epoch: 1000
next table: 2562
cur table: 2631
epoch: 1000
next table: 2146
cur table: 2151
epoch: 1000
next table: 2632
cur table: 2562
epoch: 1000
next table: 2992
cur table: 2632
epoch: 1000
next table: 2218
cur table: 2146
epoch: 1000
next table: 2576
cur table: 2992
epoch: 1000
next table: 1998
cur table: 2218
epoch: 1000
next table: 2788
cur table: 2576
epoch: 1000
next table: 2143
cur table: 1998
epoch: 1000
next table: 2661
cur table: 2788
epoch: 1000
next table: 2183
cur table: 2143
epoch: 1000
next table: 2639
cur table: 2661
epoch: 1000
next table: 1847
cur table: 2183
epoch: 1000
next table: 2653
cur table: 2639
epoch: 1000
next table: 1807
cur table: 1847
epoch: 1000
next table: 2715
cur table: 2653
epoch: 1000
next table: 2071
cur table: 1807
epoch: 1000
next table: 2717
cur table: 2715
epoch: 1000
next table: 1894
cur table: 2071
epoch: 1000
next table: 2697
cur table: 2717
epoch: 1000
next table: 1894
cur table: 1894
epoch: 1000
next table: 1851
cur table: 1894
epoch: 1000
next table: 2553
cur table: 2697
epoch: 1000
next table: 1959
cur table: 1851
epoch: 1000
next table: 3037
cur table: 2553
epoch: 1000
next table: 1889
cur table: 1959
epoch: 1000
next table: 2541
cur table: 3037
epoch: 1000
next table: 1845
cur table: 1889
epoch: 1000
next table: 2850
cur table: 2541
epoch: 1000
next table: 2056
cur table: 1845
epoch: 1000
next table: 2749
cur table: 2850
epoch: 1000
next table: 1874
cur table: 2056
epoch: 1000
next table: 2535
cur table: 2749
epoch: 1000
next table: 1946
cur table: 1874
epoch: 1000
next table: 2660
cur table: 2535
epoch: 1000
next table: 1834
cur table: 1946
epoch: 1000
next table: 2679
cur table: 2660
epoch: 1000
next table: 1919
cur table: 1834
epoch: 1000
next table: 2655
cur table: 2679
epoch: 1000
next table: 1995
cur table: 1919
epoch: 1000
next table: 2776
cur table: 2655
epoch: 1000
next table: 2178
cur table: 1995
epoch: 1000
next table: 2622
cur table: 2776
epoch: 1000
next table: 1929
cur table: 2178
epoch: 1000
next table: 2737
cur table: 2622
epoch: 1000
next table: 1843
cur table: 1929
epoch: 1000
next table: 2528
cur table: 2737
epoch: 1000
next table: 2101
cur table: 1843
epoch: 1000
next table: 2668
cur table: 2528
epoch: 1000
next table: 2423
cur table: 2101
epoch: 1000
next table: 2648
cur table: 2668
epoch: 1000
next table: 2058
cur table: 2423
epoch: 1000
next table: 2614
cur table: 2648
epoch: 1000
next table: 2595
cur table: 2614
epoch: 1000
next table: 2425
cur table: 2058
epoch: 1000
next table: 2649
cur table: 2595
epoch: 1000
next table: 2101
cur table: 2425
epoch: 1000
next table: 2642
cur table: 2649
epoch: 1000
next table: 2273
cur table: 2101
epoch: 1000
next table: 2786
cur table: 2642
epoch: 1000
next table: 2379
cur table: 2273
epoch: 1000
next table: 2624
cur table: 2786
epoch: 1000
next table: 2022
cur table: 2379
epoch: 1000
next table: 2482
cur table: 2624
epoch: 1000
next table: 2787
cur table: 2482
epoch: 1000
next table: 2315
cur table: 2022
epoch: 1000
next table: 2612
cur table: 2787
epoch: 1000
next table: 2215
cur table: 2315
epoch: 1000
next table: 2608
cur table: 2612
epoch: 1000
next table: 2193
cur table: 2215
epoch: 1000
next table: 2665
cur table: 2608
epoch: 1000
next table: 2124
cur table: 2193
epoch: 1000
next table: 2498
cur table: 2665
epoch: 1000
next table: 2111
cur table: 2124
epoch: 1000
next table: 2832
cur table: 2498
epoch: 1000
next table: 2745
cur table: 2832
epoch: 1000
next table: 2373
cur table: 2111
epoch: 1000
next table: 2585
cur table: 2745
epoch: 1000
next table: 1962
cur table: 2373
epoch: 1000
next table: 2636
cur table: 2585
epoch: 1000
next table: 2203
cur table: 1962
epoch: 1000
next table: 2534
cur table: 2636
epoch: 1000
next table: 2173
cur table: 2203
epoch: 1000
next table: 2519
cur table: 2534
epoch: 1000
next table: 2176
cur table: 2173
epoch: 1000
next table: 2991
cur table: 2519
epoch: 1000
next table: 2888
cur table: 2991
epoch: 1000
next table: 2489
cur table: 2176
epoch: 1000
next table: 2493
cur table: 2888
epoch: 1000
next table: 2145
cur table: 2489
epoch: 1000
next table: 2576
cur table: 2493
epoch: 1000
next table: 2171
cur table: 2145
epoch: 1000
next table: 2587
cur table: 2576
epoch: 1000
next table: 2238
cur table: 2171
epoch: 1000
next table: 2694
cur table: 2587
epoch: 1000
next table: 1999
cur table: 2238
epoch: 1000
next table: 2573
cur table: 2694
epoch: 1000
next table: 2106
cur table: 1999
epoch: 1000
next table: 2673
cur table: 2573
epoch: 1000
next table: 2689
cur table: 2673
epoch: 1000
next table: 2346
cur table: 2106
epoch: 1000
next table: 2652
cur table: 2689
epoch: 1000
next table: 2155
cur table: 2346
epoch: 1000
next table: 2596
cur table: 2652
epoch: 1000
next table: 1946
cur table: 2155
epoch: 1000
next table: 2377
cur table: 2596
epoch: 1000
next table: 2631
cur table: 2377
epoch: 1000
next table: 2720
cur table: 1946
epoch: 1000
next table: 2716
cur table: 2631
epoch: 1000
next table: 2194
cur table: 2720
epoch: 1000
next table: 2829
cur table: 2716
epoch: 1000
next table: 2018
cur table: 2194
epoch: 1000
next table: 2599
cur table: 2829
epoch: 1000
next table: 2157
cur table: 2018
epoch: 1000
next table: 2745
cur table: 2599
epoch: 1000
next table: 2180
cur table: 2157
epoch: 1000
next table: 2591
cur table: 2745
epoch: 1000
next table: 1946
cur table: 2180
epoch: 1000
next table: 2690
cur table: 2591
epoch: 1000
next table: 2174
cur table: 1946
epoch: 1000
next table: 2970
cur table: 2690
epoch: 1000
next table: 2004
cur table: 2174
epoch: 1000
next table: 2731
cur table: 2970
epoch: 1000
next table: 2075
cur table: 2004
epoch: 1000
next table: 2828
cur table: 2731
epoch: 1000
next table: 1961
cur table: 2075
epoch: 1000
next table: 2460
cur table: 2828
epoch: 1000
next table: 2042
cur table: 1961
epoch: 1000
next table: 2691
cur table: 2460
epoch: 1000
next table: 1961
cur table: 2042
epoch: 1000
next table: 2608
cur table: 2691
epoch: 1000
next table: 1978
cur table: 1961
epoch: 1000
next table: 2676
cur table: 2608
epoch: 1000
next table: 1982
cur table: 1978
epoch: 1000
next table: 2723
cur table: 2676
epoch: 1000
next table: 2150
cur table: 1982
epoch: 1000
next table: 2942
cur table: 2723
epoch: 1000
next table: 2537
cur table: 2942
epoch: 1000
next table: 2076
cur table: 2150
epoch: 1000
next table: 2646
cur table: 2537
epoch: 1000
next table: 2032
cur table: 2076
epoch: 1000
next table: 2553
cur table: 2646
epoch: 1000
next table: 1973
cur table: 2032
epoch: 1000
next table: 1953
cur table: 1973
epoch: 1000
next table: 2853
cur table: 2553
epoch: 1000
next table: 1927
cur table: 1953
epoch: 1000
next table: 2604
cur table: 2853
epoch: 1000
next table: 2767
cur table: 2604
epoch: 1000
next table: 2190
cur table: 1927
epoch: 1000
next table: 2512
cur table: 2767
epoch: 1000
next table: 1987
cur table: 2190
epoch: 1000
next table: 2625
cur table: 2512
epoch: 1000
next table: 1944
cur table: 1987
epoch: 1000
next table: 2598
cur table: 2625
epoch: 1000
next table: 2062
cur table: 1944
epoch: 1000
next table: 2718
cur table: 2598
epoch: 1000
next table: 2129
cur table: 2062
epoch: 1000
next table: 2672
cur table: 2718
epoch: 1000
next table: 2148
cur table: 2129
epoch: 1000
next table: 2406
cur table: 2672
epoch: 1000
next table: 1898
cur table: 2148
epoch: 1000
next table: 2558
cur table: 2406
epoch: 1000
next table: 1934
cur table: 1898
epoch: 1000
next table: 2904
cur table: 2558
epoch: 1000
next table: 2185
cur table: 1934
epoch: 1000
next table: 2724
cur table: 2904
epoch: 1000
next table: 2266
cur table: 2185
epoch: 1000
next table: 2622
cur table: 2724
epoch: 1000
next table: 2705
cur table: 2622
epoch: 1000
next table: 2447
cur table: 2266
epoch: 1000
next table: 2753
cur table: 2705
epoch: 1000
next table: 2466
cur table: 2447
epoch: 1000
next table: 2519
cur table: 2753
epoch: 1000
next table: 2230
cur table: 2466
epoch: 1000
next table: 2842
cur table: 2519
epoch: 1000
next table: 2435
cur table: 2842
epoch: 1000
next table: 2216
cur table: 2230
epoch: 1000
next table: 2488
cur table: 2435
epoch: 1000
next table: 2093
cur table: 2216
epoch: 1000
next table: 1905
cur table: 2093
epoch: 1000
next table: 2470
cur table: 2488
epoch: 1000
next table: 2842
cur table: 2470
epoch: 1000
next table: 2087
cur table: 1905
epoch: 1000
next table: 2904
cur table: 2842
epoch: 1000
next table: 2151
cur table: 2087
epoch: 1000
next table: 2466
cur table: 2904
epoch: 1000
next table: 1966
cur table: 2151
epoch: 1000
next table: 2439
cur table: 2466
epoch: 1000
next table: 1967
cur table: 1966
epoch: 1000
next table: 2626
cur table: 2439
epoch: 1000
next table: 2131
cur table: 1967
epoch: 1000
next table: 2690
cur table: 2626
epoch: 1000
next table: 2062
cur table: 2131
epoch: 1000
next table: 2513
cur table: 2690
epoch: 1000
next table: 2076
cur table: 2062
epoch: 1000
next table: 2715
cur table: 2513
epoch: 1000
next table: 2061
cur table: 2076
epoch: 1000
next table: 2563
cur table: 2715
epoch: 1000
next table: 2178
cur table: 2061
epoch: 1000
next table: 2660
cur table: 2563
epoch: 1000
next table: 1970
cur table: 2178
epoch: 1000
next table: 2631
cur table: 2660
epoch: 1000
next table: 2001
cur table: 1970
epoch: 1000
next table: 2478
cur table: 2631
epoch: 1000
next table: 2013
cur table: 2001
epoch: 1000
next table: 2579
cur table: 2478
epoch: 1000
next table: 1915
cur table: 2013
epoch: 1000
next table: 2405
cur table: 2579
epoch: 1000
next table: 2894
cur table: 2405
epoch: 1000
next table: 2687
cur table: 1915
epoch: 1000
next table: 2772
cur table: 2894
epoch: 1000
next table: 2362
cur table: 2687
epoch: 1000
next table: 2648
cur table: 2772
epoch: 1000
next table: 2672
cur table: 2648
epoch: 1000
next table: 2419
cur table: 2362
epoch: 1000
next table: 2547
cur table: 2672
Heartbeat CPU 0 instructions: 50000000 cycles: 19509742 heartbeat IPC: 2.55988 cumulative IPC: 2.56282 (Simulation time: 0 hr 15 min 48 sec) 

Warmup complete CPU 0 instructions: 50000004 cycles: 19509743 (Simulation time: 0 hr 15 min 48 sec) 

epoch: 1000
next table: 2852
cur table: 2781
epoch: 1000
next table: 2368
cur table: 2332
epoch: 1000
next table: 2592
cur table: 2852
epoch: 1000
next table: 2067
cur table: 2368
epoch: 1000
next table: 2660
cur table: 2592
epoch: 1000
next table: 2219
cur table: 2067
epoch: 1000
next table: 2563
cur table: 2660
epoch: 1000
next table: 2761
cur table: 2563
epoch: 1000
next table: 2348
cur table: 2219
epoch: 1000
next table: 2682
cur table: 2761
epoch: 1000
next table: 2212
cur table: 2348
epoch: 1000
next table: 2600
cur table: 2682
epoch: 1000
next table: 2352
cur table: 2212
epoch: 1000
next table: 2860
cur table: 2600
epoch: 1000
next table: 2716
cur table: 2860
epoch: 1000
next table: 2269
cur table: 2352
epoch: 1000
next table: 2727
cur table: 2716
epoch: 1000
next table: 2389
cur table: 2269
epoch: 1000
next table: 2717
cur table: 2727
epoch: 1000
next table: 2298
cur table: 2389
epoch: 1000
next table: 2703
cur table: 2717
epoch: 1000
next table: 3081
cur table: 2703
epoch: 1000
next table: 2233
cur table: 2298
epoch: 1000
next table: 2606
cur table: 3081
epoch: 1000
next table: 2249
cur table: 2233
epoch: 1000
next table: 2530
cur table: 2606
epoch: 1000
next table: 2223
cur table: 2249
epoch: 1000
next table: 2777
cur table: 2530
epoch: 1000
next table: 2213
cur table: 2223
epoch: 1000
next table: 2513
cur table: 2777
epoch: 1000
next table: 2750
cur table: 2513
epoch: 1000
next table: 2242
cur table: 2213
epoch: 1000
next table: 2581
cur table: 2750
epoch: 1000
next table: 2106
cur table: 2242
epoch: 1000
next table: 2624
cur table: 2581
epoch: 1000
next table: 2212
cur table: 2106
epoch: 1000
next table: 2580
cur table: 2624
epoch: 1000
next table: 2121
cur table: 2212
epoch: 1000
next table: 2535
cur table: 2580
epoch: 1000
next table: 2154
cur table: 2121
epoch: 1000
next table: 2514
cur table: 2535
epoch: 1000
next table: 1962
cur table: 2154
epoch: 1000
next table: 2354
cur table: 2514
epoch: 1000
next table: 1925
cur table: 1962
epoch: 1000
next table: 2277
cur table: 2354
epoch: 1000
next table: 1889
cur table: 1925
epoch: 1000
next table: 2627
cur table: 2277
epoch: 1000
next table: 2016
cur table: 1889
epoch: 1000
next table: 2514
cur table: 2627
epoch: 1000
next table: 1811
cur table: 2016
epoch: 1000
next table: 2374
cur table: 2514
epoch: 1000
next table: 1804
cur table: 1811
epoch: 1000
next table: 1765
cur table: 1804
epoch: 1000
next table: 2267
cur table: 2374
epoch: 1000
next table: 1761
cur table: 1765
epoch: 1000
next table: 2527
cur table: 2267
epoch: 1000
next table: 1853
cur table: 1761
epoch: 1000
next table: 2563
cur table: 2527
epoch: 1000
next table: 1876
cur table: 1853
epoch: 1000
next table: 2589
cur table: 2563
epoch: 1000
next table: 1809
cur table: 1876
epoch: 1000
next table: 2542
cur table: 2589
epoch: 1000
next table: 1847
cur table: 1809
epoch: 1000
next table: 2540
cur table: 2542
epoch: 1000
next table: 1844
cur table: 1847
epoch: 1000
next table: 1891
cur table: 1844
epoch: 1000
next table: 2537
cur table: 2540
epoch: 1000
next table: 1870
cur table: 1891
epoch: 1000
next table: 2503
cur table: 2537
epoch: 1000
next table: 1956
cur table: 1870
epoch: 1000
next table: 2318
cur table: 2503
epoch: 1000
next table: 1902
cur table: 1956
epoch: 1000
next table: 2389
cur table: 2318
epoch: 1000
next table: 1933
cur table: 1902
epoch: 1000
next table: 2434
cur table: 2389
epoch: 1000
next table: 1903
cur table: 1933
epoch: 1000
next table: 2392
cur table: 2434
epoch: 1000
next table: 1896
cur table: 1903
epoch: 1000
next table: 2617
cur table: 2392
epoch: 1000
next table: 2324
cur table: 1896
epoch: 1000
next table: 2854
cur table: 2617
epoch: 1000
next table: 2845
cur table: 2854
epoch: 1000
next table: 2420
cur table: 2324
epoch: 1000
next table: 2453
cur table: 2845
epoch: 1000
next table: 2312
cur table: 2420
epoch: 1000
next table: 2458
cur table: 2453
epoch: 1000
next table: 2241
cur table: 2312
epoch: 1000
next table: 2562
cur table: 2458
epoch: 1000
next table: 2263
cur table: 2241
epoch: 1000
next table: 2552
cur table: 2562
epoch: 1000
next table: 2590
cur table: 2552
epoch: 1000
next table: 2285
cur table: 2263
epoch: 1000
next table: 2480
cur table: 2590
epoch: 1000
next table: 2109
cur table: 2285
epoch: 1000
next table: 2552
cur table: 2480
epoch: 1000
next table: 2266
cur table: 2109
epoch: 1000
next table: 2574
cur table: 2552
epoch: 1000
next table: 2172
cur table: 2266
epoch: 1000
next table: 2623
cur table: 2574
epoch: 1000
next table: 2477
cur table: 2623
epoch: 1000
next table: 2227
cur table: 2172
epoch: 1000
next table: 2456
cur table: 2477
epoch: 1000
next table: 2373
cur table: 2227
epoch: 1000
next table: 2885
cur table: 2456
epoch: 1000
next table: 2401
cur table: 2373
epoch: 1000
next table: 2322
cur table: 2885
epoch: 1000
next table: 2395
cur table: 2322
epoch: 1000
next table: 2487
cur table: 2401
epoch: 1000
next table: 2293
cur table: 2395
epoch: 1000
next table: 2470
cur table: 2487
epoch: 1000
next table: 2340
cur table: 2293
epoch: 1000
next table: 2417
cur table: 2340
epoch: 1000
next table: 2438
cur table: 2470
epoch: 1000
next table: 2437
cur table: 2417
epoch: 1000
next table: 2454
cur table: 2438
epoch: 1000
next table: 2463
cur table: 2437
epoch: 1000
next table: 2495
cur table: 2463
epoch: 1000
next table: 2549
cur table: 2454
epoch: 1000
next table: 2505
cur table: 2495
epoch: 1000
next table: 2521
cur table: 2549
epoch: 1000
next table: 2540
cur table: 2505
epoch: 1000
next table: 2741
cur table: 2540
epoch: 1000
next table: 2479
cur table: 2521
epoch: 1000
next table: 2443
cur table: 2741
epoch: 1000
next table: 2488
cur table: 2479
epoch: 1000
next table: 2414
cur table: 2443
epoch: 1000
next table: 2234
cur table: 2488
epoch: 1000
next table: 2455
cur table: 2414
epoch: 1000
next table: 2474
cur table: 2455
epoch: 1000
next table: 2398
cur table: 2234
epoch: 1000
next table: 2604
cur table: 2474
epoch: 1000
next table: 2327
cur table: 2398
epoch: 1000
next table: 2577
cur table: 2604
epoch: 1000
next table: 2121
cur table: 2327
epoch: 1000
next table: 2395
cur table: 2577
epoch: 1000
next table: 2590
cur table: 2395
epoch: 1000
next table: 2287
cur table: 2121
epoch: 1000
next table: 2804
cur table: 2590
epoch: 1000
next table: 2406
cur table: 2287
epoch: 1000
next table: 2438
cur table: 2804
epoch: 1000
next table: 2502
cur table: 2438
epoch: 1000
next table: 2591
cur table: 2406
epoch: 1000
next table: 2483
cur table: 2502
epoch: 1000
next table: 2107
cur table: 2591
epoch: 1000
next table: 2476
cur table: 2483
epoch: 1000
next table: 2313
cur table: 2107
epoch: 1000
next table: 2651
cur table: 2476
epoch: 1000
next table: 2977
cur table: 2651
epoch: 1000
next table: 2580
cur table: 2313
epoch: 1000
next table: 2525
cur table: 2977
epoch: 1000
next table: 2149
cur table: 2580
epoch: 1000
next table: 2389
cur table: 2525
epoch: 1000
next table: 2225
cur table: 2149
epoch: 1000
next table: 2840
cur table: 2389
epoch: 1000
next table: 2183
cur table: 2225
epoch: 1000
next table: 2720
cur table: 2840
epoch: 1000
next table: 2660
cur table: 2720
epoch: 1000
next table: 2334
cur table: 2183
epoch: 1000
next table: 2580
cur table: 2660
epoch: 1000
next table: 2182
cur table: 2334
epoch: 1000
next table: 2611
cur table: 2580
epoch: 1000
next table: 2045
cur table: 2182
epoch: 1000
next table: 2518
cur table: 2611
epoch: 1000
next table: 2220
cur table: 2045
epoch: 1000
next table: 2655
cur table: 2518
epoch: 1000
next table: 2240
cur table: 2220
epoch: 1000
next table: 2728
cur table: 2655
epoch: 1000
next table: 2239
cur table: 2240
epoch: 1000
next table: 2891
cur table: 2728
epoch: 1000
next table: 2571
cur table: 2891
epoch: 1000
next table: 2116
cur table: 2239
epoch: 1000
next table: 2675
cur table: 2571
epoch: 1000
next table: 2394
cur table: 2116
epoch: 1000
next table: 2766
cur table: 2675
epoch: 1000
next table: 2180
cur table: 2394
epoch: 1000
next table: 2430
cur table: 2766
epoch: 1000
next table: 2169
cur table: 2180
epoch: 1000
next table: 2713
cur table: 2430
epoch: 1000
next table: 2170
cur table: 2169
epoch: 1000
next table: 2693
cur table: 2713
epoch: 1000
next table: 2618
cur table: 2693
epoch: 1000
next table: 2222
cur table: 2170
epoch: 1000
next table: 2678
cur table: 2618
epoch: 1000
next table: 2324
cur table: 2222
epoch: 1000
next table: 2762
cur table: 2678
epoch: 1000
next table: 2356
cur table: 2324
epoch: 1000
next table: 2939
cur table: 2762
epoch: 1000
next table: 2533
cur table: 2939
epoch: 1000
next table: 2197
cur table: 2356
epoch: 1000
next table: 2738
cur table: 2533
epoch: 1000
next table: 2117
cur table: 2197
epoch: 1000
next table: 2788
cur table: 2738
epoch: 1000
next table: 2265
cur table: 2117
epoch: 1000
next table: 2664
cur table: 2788
epoch: 1000
next table: 2075
cur table: 2265
epoch: 1000
next table: 2487
cur table: 2664
epoch: 1000
next table: 2254
cur table: 2075
epoch: 1000
next table: 2832
cur table: 2487
epoch: 1000
next table: 2210
cur table: 2254
epoch: 1000
next table: 2691
cur table: 2832
epoch: 1000
next table: 2570
cur table: 2691
epoch: 1000
next table: 2169
cur table: 2210
epoch: 1000
next table: 2705
cur table: 2570
epoch: 1000
next table: 2273
cur table: 2169
epoch: 1000
next table: 2899
cur table: 2705
epoch: 1000
next table: 2226
cur table: 2273
epoch: 1000
next table: 2595
cur table: 2899
epoch: 1000
next table: 2151
cur table: 2226
epoch: 1000
next table: 2816
cur table: 2595
epoch: 1000
next table: 2131
cur table: 2151
epoch: 1000
next table: 2600
cur table: 2816
epoch: 1000
next table: 2499
cur table: 2600
epoch: 1000
next table: 2107
cur table: 2131
epoch: 1000
next table: 3029
cur table: 2499
epoch: 1000
next table: 2356
cur table: 2107
epoch: 1000
next table: 2773
cur table: 3029
epoch: 1000
next table: 2106
cur table: 2356
epoch: 1000
next table: 2694
cur table: 2773
epoch: 1000
next table: 2348
cur table: 2106
epoch: 1000
next table: 2906
cur table: 2694
epoch: 1000
next table: 2576
cur table: 2906
epoch: 1000
next table: 2179
cur table: 2348
epoch: 1000
next table: 2673
cur table: 2576
epoch: 1000
next table: 2080
cur table: 2179
epoch: 1000
next table: 2597
cur table: 2673
epoch: 1000
next table: 2210
cur table: 2080
epoch: 1000
next table: 2715
cur table: 2597
epoch: 1000
next table: 2009
cur table: 2210
epoch: 1000
next table: 2600
cur table: 2715
epoch: 1000
next table: 2179
cur table: 2009
epoch: 1000
next table: 2657
cur table: 2600
epoch: 1000
next table: 2059
cur table: 2179
epoch: 1000
next table: 2463
cur table: 2657
epoch: 1000
next table: 2293
cur table: 2059
epoch: 1000
next table: 2829
cur table: 2463
epoch: 1000
next table: 2718
cur table: 2829
epoch: 1000
next table: 2396
cur table: 2293
epoch: 1000
next table: 2588
cur table: 2718
epoch: 1000
next table: 2211
cur table: 2396
epoch: 1000
next table: 2689
cur table: 2588
epoch: 1000
next table: 2343
cur table: 2211
epoch: 1000
next table: 2668
cur table: 2689
epoch: 1000
next table: 2773
cur table: 2668
epoch: 1000
next table: 2527
cur table: 2343
epoch: 1000
next table: 2601
cur table: 2773
epoch: 1000
next table: 2188
cur table: 2527
epoch: 1000
next table: 2512
cur table: 2601
epoch: 1000
next table: 2232
cur table: 2188
epoch: 1000
next table: 2562
cur table: 2512
epoch: 1000
next table: 2652
cur table: 2562
epoch: 1000
next table: 2286
cur table: 2232
epoch: 1000
next table: 2648
cur table: 2652
epoch: 1000
next table: 2197
cur table: 2286
epoch: 1000
next table: 2639
cur table: 2648
epoch: 1000
next table: 2393
cur table: 2197
epoch: 1000
next table: 2590
cur table: 2639
epoch: 1000
next table: 2212
cur table: 2393
epoch: 1000
next table: 2750
cur table: 2590
epoch: 1000
next table: 2941
cur table: 2750
epoch: 1000
next table: 2514
cur table: 2212
epoch: 1000
next table: 2601
cur table: 2941
epoch: 1000
next table: 2124
cur table: 2514
epoch: 1000
next table: 2671
cur table: 2601
epoch: 1000
next table: 2119
cur table: 2124
epoch: 1000
next table: 2594
cur table: 2671
epoch: 1000
next table: 2112
cur table: 2119
epoch: 1000
next table: 2612
cur table: 2594
epoch: 1000
next table: 2183
cur table: 2112
epoch: 1000
next table: 2478
cur table: 2612
epoch: 1000
next table: 2884
cur table: 2478
epoch: 1000
next table: 2317
cur table: 2183
epoch: 1000
next table: 2716
cur table: 2884
epoch: 1000
next table: 2268
cur table: 2317
epoch: 1000
next table: 2623
cur table: 2716
epoch: 1000
next table: 2228
cur table: 2268
epoch: 1000
next table: 2681
cur table: 2623
epoch: 1000
next table: 2636
cur table: 2681
epoch: 1000
next table: 2439
cur table: 2228
Heartbeat CPU 0 instructions: 60000001 cycles: 64696566 heartbeat IPC: 0.221303 cumulative IPC: 0.221303 (Simulation time: 0 hr 19 min 18 sec) 
epoch: 1000
next table: 2962
cur table: 2636
epoch: 1000
next table: 2424
cur table: 2439
epoch: 1000
next table: 2969
cur table: 2962
epoch: 1000
next table: 2300
cur table: 2424
epoch: 1000
next table: 2628
cur table: 2969
epoch: 1000
next table: 2592
cur table: 2628
epoch: 1000
next table: 2214
cur table: 2300
epoch: 1000
next table: 2749
cur table: 2592
epoch: 1000
next table: 2114
cur table: 2214
epoch: 1000
next table: 2559
cur table: 2749
epoch: 1000
next table: 2191
cur table: 2114
epoch: 1000
next table: 2529
cur table: 2559
epoch: 1000
next table: 2195
cur table: 2191
epoch: 1000
next table: 2761
cur table: 2529
epoch: 1000
next table: 2111
cur table: 2195
epoch: 1000
next table: 2575
cur table: 2761
epoch: 1000
next table: 2217
cur table: 2111
epoch: 1000
next table: 2739
cur table: 2575
epoch: 1000
next table: 2833
cur table: 2739
epoch: 1000
next table: 2370
cur table: 2217
epoch: 1000
next table: 3045
cur table: 2833
epoch: 1000
next table: 2345
cur table: 2370
epoch: 1000
next table: 2939
cur table: 3045
epoch: 1000
next table: 2219
cur table: 2345
epoch: 1000
next table: 2566
cur table: 2939
epoch: 1000
next table: 2655
cur table: 2566
epoch: 1000
next table: 2141
cur table: 2219
epoch: 1000
next table: 2557
cur table: 2655
epoch: 1000
next table: 2098
cur table: 2141
epoch: 1000
next table: 2995
cur table: 2557
epoch: 1000
next table: 2171
cur table: 2098
epoch: 1000
next table: 2592
cur table: 2995
epoch: 1000
next table: 2150
cur table: 2171
epoch: 1000
next table: 2691
cur table: 2592
epoch: 1000
next table: 2179
cur table: 2150
epoch: 1000
next table: 2630
cur table: 2691
epoch: 1000
next table: 2317
cur table: 2179
epoch: 1000
next table: 2995
cur table: 2630
epoch: 1000
next table: 2562
cur table: 2995
epoch: 1000
next table: 2188
cur table: 2317
epoch: 1000
next table: 2800
cur table: 2562
epoch: 1000
next table: 2257
cur table: 2188
epoch: 1000
next table: 2646
cur table: 2800
epoch: 1000
next table: 2245
cur table: 2257
epoch: 1000
next table: 2514
cur table: 2646
epoch: 1000
next table: 2286
cur table: 2245
epoch: 1000
next table: 2766
cur table: 2514
epoch: 1000
next table: 2871
cur table: 2766
epoch: 1000
next table: 2278
cur table: 2286
epoch: 1000
next table: 2837
cur table: 2871
epoch: 1000
next table: 2244
cur table: 2278
epoch: 1000
next table: 2549
cur table: 2837
epoch: 1000
next table: 2324
cur table: 2244
epoch: 1000
next table: 2559
cur table: 2549
epoch: 1000
next table: 2517
cur table: 2559
epoch: 1000
next table: 2399
cur table: 2324
epoch: 1000
next table: 2859
cur table: 2517
epoch: 1000
next table: 2134
cur table: 2399
epoch: 1000
next table: 2723
cur table: 2859
epoch: 1000
next table: 2408
cur table: 2134
epoch: 1000
next table: 2678
cur table: 2723
epoch: 1000
next table: 2221
cur table: 2408
epoch: 1000
next table: 2726
cur table: 2678
epoch: 1000
next table: 2594
cur table: 2726
epoch: 1000
next table: 2103
cur table: 2221
epoch: 1000
next table: 2623
cur table: 2594
epoch: 1000
next table: 2161
cur table: 2103
epoch: 1000
next table: 2625
cur table: 2623
epoch: 1000
next table: 2376
cur table: 2161
epoch: 1000
next table: 2747
cur table: 2625
epoch: 1000
next table: 2395
cur table: 2376
epoch: 1000
next table: 2723
cur table: 2747
epoch: 1000
next table: 2652
cur table: 2723
epoch: 1000
next table: 2513
cur table: 2395
epoch: 1000
next table: 2770
cur table: 2652
epoch: 1000
next table: 2322
cur table: 2513
epoch: 1000
next table: 2599
cur table: 2770
epoch: 1000
next table: 2153
cur table: 2322
epoch: 1000
next table: 2506
cur table: 2599
epoch: 1000
next table: 2521
cur table: 2506
epoch: 1000
next table: 2321
cur table: 2153
epoch: 1000
next table: 3201
cur table: 2521
epoch: 1000
next table: 2249
cur table: 2321
epoch: 1000
next table: 2614
cur table: 3201
epoch: 1000
next table: 2217
cur table: 2249
epoch: 1000
next table: 2554
cur table: 2614
epoch: 1000
next table: 2185
cur table: 2217
epoch: 1000
next table: 2929
cur table: 2554
epoch: 1000
next table: 2933
cur table: 2929
epoch: 1000
next table: 2397
cur table: 2185
epoch: 1000
next table: 2524
cur table: 2933
epoch: 1000
next table: 2147
cur table: 2397
epoch: 1000
next table: 2817
cur table: 2524
epoch: 1000
next table: 2325
cur table: 2147
epoch: 1000
next table: 2711
cur table: 2817
epoch: 1000
next table: 2143
cur table: 2325
epoch: 1000
next table: 2597
cur table: 2711
epoch: 1000
next table: 2734
cur table: 2597
epoch: 1000
next table: 2222
cur table: 2143
epoch: 1000
next table: 2833
cur table: 2734
epoch: 1000
next table: 2304
cur table: 2222
epoch: 1000
next table: 2542
cur table: 2833
epoch: 1000
next table: 2214
cur table: 2304
epoch: 1000
next table: 2636
cur table: 2542
epoch: 1000
next table: 2101
cur table: 2214
epoch: 1000
next table: 2700
cur table: 2636
epoch: 1000
next table: 2656
cur table: 2700
epoch: 1000
next table: 2322
cur table: 2101
epoch: 1000
next table: 3220
cur table: 2656
epoch: 1000
next table: 2194
cur table: 2322
epoch: 1000
next table: 2635
cur table: 3220
epoch: 1000
next table: 2203
cur table: 2194
epoch: 1000
next table: 2490
[...]
cur table: 2414
epoch: 1000
next table: 2661
cur table: 2670
epoch: 1000
next table: 2702
cur table: 2661
epoch: 1000
next table: 2446
cur table: 2107
epoch: 1000
next table: 2700
cur table: 2702
epoch: 1000
next table: 2371
cur table: 2446
epoch: 1000
next table: 2548
cur table: 2700
epoch: 1000
next table: 2190
cur table: 2371
epoch: 1000
next table: 2529
cur table: 2548
epoch: 1000
next table: 2880
cur table: 2529
epoch: 1000
next table: 2418
cur table: 2190
epoch: 1000
next table: 2599
cur table: 2880
epoch: 1000
next table: 2349
cur table: 2418
epoch: 1000
next table: 2567
cur table: 2599
epoch: 1000
next table: 2254
cur table: 2349
epoch: 1000
next table: 2549
cur table: 2567
epoch: 1000
next table: 2561
cur table: 2549
epoch: 1000
next table: 2167
cur table: 2254
epoch: 1000
next table: 2858
cur table: 2561
epoch: 1000
next table: 2243
cur table: 2167
epoch: 1000
next table: 2570
cur table: 2858
epoch: 1000
next table: 2505
cur table: 2243
epoch: 1000
next table: 2616
cur table: 2570
epoch: 1000
next table: 2678
cur table: 2616
epoch: 1000
next table: 2374
cur table: 2505
epoch: 1000
next table: 2551
cur table: 2678
epoch: 1000
next table: 2269
cur table: 2374
epoch: 1000
next table: 2562
cur table: 2551
epoch: 1000
next table: 2192
cur table: 2269
epoch: 1000
next table: 2824
cur table: 2562
epoch: 1000
next table: 2074
cur table: 2192
epoch: 1000
next table: 2761
cur table: 2824
epoch: 1000
next table: 2873
cur table: 2761
epoch: 1000
next table: 2488
cur table: 2074
epoch: 1000
next table: 2503
cur table: 2873
epoch: 1000
next table: 2219
cur table: 2488
epoch: 1000
next table: 2759
cur table: 2503
epoch: 1000
next table: 2223
cur table: 2219
epoch: 1000
next table: 2564
cur table: 2759
epoch: 1000
next table: 2077
cur table: 2223
epoch: 1000
next table: 2655
cur table: 2564
epoch: 1000
next table: 2636
cur table: 2655
epoch: 1000
next table: 2256
cur table: 2077
epoch: 1000
next table: 2685
cur table: 2636
epoch: 1000
next table: 2136
cur table: 2256
epoch: 1000
next table: 2644
cur table: 2685
epoch: 1000
next table: 2265
cur table: 2136
epoch: 1000
next table: 2578
cur table: 2644
epoch: 1000
next table: 2478
cur table: 2265
epoch: 1000
next table: 2731
cur table: 2578
epoch: 1000
next table: 2093
cur table: 2478
epoch: 1000
next table: 2450
cur table: 2731
Heartbeat CPU 0 instructions: 100000000 cycles: 243777196 heartbeat IPC: 0.220187 cumulative IPC: 0.222948 (Simulation time: 0 hr 28 min 39 sec) 
Finished CPU 0 instructions: 50000002 cycles: 224267610 cumulative IPC: 0.222948 (Simulation time: 0 hr 28 min 39 sec) 

ChampSim completed all CPUs

Region of Interest Statistics

CPU 0 cumulative IPC: 0.222948 instructions: 50000002 cycles: 224267610
ITLB TOTAL     ACCESS:    8266681  HIT:    8187557  MISS:      79124  HIT %:    99.0429  MISS %:   0.957144   MPKI: 1.58248
ITLB LOAD TRANSLATION ACCESS:    8266681  HIT:    8187557  MISS:      79124  HIT %:    99.0429  MISS %:   0.957144   MPKI: 1.58248
ITLB PREFETCH  REQUESTED:          0  ISSUED:          0  USEFUL:          0  USELESS:          0
ITLB USEFUL LOAD PREFETCHES:          0 PREFETCH ISSUED TO LOWER LEVEL:          0  ACCURACY: -nan
ITLB TIMELY PREFETCHES:          0 LATE PREFETCHES: 0 DROPPED PREFETCHES: 0
ITLB PREFETCHES SAME FILL-ORIGIN LEVEL: 0 DIFFERENT FILL-ORIGIN LEVEL: 0
ITLB AVERAGE MISS LATENCY: 9.80476 cycles
ITLB RQ	ACCESS:    9321865	FORWARD:          0	MERGED:    1031097	TO_CACHE:    8290768

Revised Interactions: positive negative neutral
ITLB_interactions 0 0 0 -nan -nan -nan
DTLB TOTAL     ACCESS:   19526030  HIT:   18571131  MISS:     954899  HIT %:    95.1096  MISS %:    4.89039   MPKI: 19.098
DTLB LOAD TRANSLATION ACCESS:   19526030  HIT:   18571131  MISS:     954899  HIT %:    95.1096  MISS %:    4.89039   MPKI: 19.098
DTLB PREFETCH  REQUESTED:          0  ISSUED:          0  USEFUL:          0  USELESS:          0
DTLB USEFUL LOAD PREFETCHES:          0 PREFETCH ISSUED TO LOWER LEVEL:          0  ACCURACY: -nan
DTLB TIMELY PREFETCHES:          0 LATE PREFETCHES: 0 DROPPED PREFETCHES: 0
DTLB PREFETCHES SAME FILL-ORIGIN LEVEL: 0 DIFFERENT FILL-ORIGIN LEVEL: 0
DTLB AVERAGE MISS LATENCY: 24.1514 cycles
DTLB RQ	ACCESS:   22000583	FORWARD:          0	MERGED:    2459184	TO_CACHE:   19541399

Revised Interactions: positive negative neutral
DTLB_interactions 0 0 0 -nan -nan -nan
STLB TOTAL     ACCESS:    1034023  HIT:     820501  MISS:     213522  HIT %:    79.3504  MISS %:    20.6496   MPKI: 4.27044
STLB LOAD TRANSLATION ACCESS:    1034023  HIT:     820501  MISS:     213522  HIT %:    79.3504  MISS %:    20.6496   MPKI: 4.27044
STLB PREFETCH  REQUESTED:          0  ISSUED:          0  USEFUL:          0  USELESS:          0
STLB USEFUL LOAD PREFETCHES:          0 PREFETCH ISSUED TO LOWER LEVEL:          0  ACCURACY: -nan
STLB TIMELY PREFETCHES:          0 LATE PREFETCHES: 0 DROPPED PREFETCHES: 0
STLB PREFETCHES SAME FILL-ORIGIN LEVEL: 0 DIFFERENT FILL-ORIGIN LEVEL: 0
STLB AVERAGE MISS LATENCY: 67.9483 cycles
STLB RQ	ACCESS:    1034023	FORWARD:          0	MERGED:          0	TO_CACHE:    1034023

Revised Interactions: positive negative neutral
STLB_interactions 0 0 0 -nan -nan -nan
STLB Hit, L1D data hit: 0
STLB Hit, L2C data hit: 0
STLB Hit, LLC data hit: 0
STLB Hit, LLC data miss: 0
STLB STLB hints to L2: 0
L1D TOTAL     ACCESS:   21749079  HIT:   20840885  MISS:     908194  HIT %:    95.8242  MISS %:    4.17578   MPKI: 18.1639
L1D LOAD      ACCESS:   12707165  HIT:   11920816  MISS:     786349  HIT %:    93.8118  MISS %:    6.18823   MPKI: 15.727
L1D RFO       ACCESS:    9041914  HIT:    8920069  MISS:     121845  HIT %:    98.6524  MISS %:    1.34756   MPKI: 2.4369
L1D PREFETCH  REQUESTED:          0  ISSUED:          0  USEFUL:          0  USELESS:          0
L1D USEFUL LOAD PREFETCHES:          0 PREFETCH ISSUED TO LOWER LEVEL:          0  ACCURACY: -nan
L1D TIMELY PREFETCHES:          0 LATE PREFETCHES: 0 DROPPED PREFETCHES: 0
L1D PREFETCHES SAME FILL-ORIGIN LEVEL: 0 DIFFERENT FILL-ORIGIN LEVEL: 0
L1D AVERAGE MISS LATENCY: 105.612 cycles
L1D RQ	ACCESS:   16214756	FORWARD:          0	MERGED:    2794828	TO_CACHE:   12797836
L1D WQ	ACCESS:    9275633	FORWARD:     622092	MERGED:      72886	TO_CACHE:    9202747

Revised Interactions: positive negative neutral
L1D_interactions 0 0 0 -nan -nan -nan
L1D UNIQUE REGIONS ACCESSED: 0
L1D REGIONS CONFLICTS: 0
L1D Cross Page Prefetch Requests: 0
L1D Same Page Prefetch Requests: 0
L1D ROI Sum of L1D PQ occupancy: 0
L1D PREFETCHES PUSHED FROM L2C: 0
L1I TOTAL     ACCESS:    9315082  HIT:    9296090  MISS:      18992  HIT %:    99.7961  MISS %:   0.203884   MPKI: 0.37984
L1I LOAD      ACCESS:    9315082  HIT:    9296090  MISS:      18992  HIT %:    99.7961  MISS %:   0.203884   MPKI: 0.37984
L1I PREFETCH  REQUESTED:          0  ISSUED:          0  USEFUL:          0  USELESS:          0
L1I USEFUL LOAD PREFETCHES:          0 PREFETCH ISSUED TO LOWER LEVEL:          0  ACCURACY: -nan
L1I TIMELY PREFETCHES:          0 LATE PREFETCHES: 0 DROPPED PREFETCHES: 0
L1I PREFETCHES SAME FILL-ORIGIN LEVEL: 0 DIFFERENT FILL-ORIGIN LEVEL: 0
L1I AVERAGE MISS LATENCY: 23.1848 cycles
L1I RQ	ACCESS:   14346661	FORWARD:          0	MERGED:    5024796	TO_CACHE:    9321865

Revised Interactions: positive negative neutral
L1I_interactions 0 0 0 -nan -nan -nan
BTB TOTAL     ACCESS:    7957708  HIT:    7483992  MISS:     473716  HIT %:    94.0471  MISS %:    5.95292   MPKI: 9.47432
BTB BRANCH_DIRECT_JUMP	ACCESS:     567490  HIT:     567393  MISS:         97
BTB BRANCH_INDIRECT	ACCESS:     167849  HIT:     146264  MISS:      21585
BTB BRANCH_CONDITIONAL	ACCESS:    4253075  HIT:    4252666  MISS:        409
BTB BRANCH_DIRECT_CALL	ACCESS:     888050  HIT:     887842  MISS:        208
BTB BRANCH_INDIRECT_CALL	ACCESS:     596599  HIT:     594525  MISS:       2074
BTB BRANCH_RETURN	ACCESS:    1484645  HIT:    1035302  MISS:     449343
BTB BRANCH_OTHER ACCESS:          0  HIT:          0  MISS:          0

L2C TOTAL     ACCESS:    1749631  HIT:    1005468  MISS:     744163  HIT %:    57.4674  MISS %:    42.5326   MPKI: 14.8833
L2C LOAD      ACCESS:     805336  HIT:     256192  MISS:     549144  HIT %:    31.8118  MISS %:    68.1882   MPKI: 10.9829
L2C DATA LOAD MPKI: 10.9486
L2C INSTRUCTION LOAD MPKI: 0.03426
L2C RFO       ACCESS:     121843  HIT:      32868  MISS:      88975  HIT %:    26.9757  MISS %:    73.0243   MPKI: 1.7795
L2C PREFETCH  ACCESS:      69099  HIT:      68300  MISS:        799  HIT %:    98.8437  MISS %:    1.15631   MPKI: 0.01598
L2C DATA PREFETCH MPKI: 0.01598
L2C INSTRUCTION PREFETCH MPKI: 0
L2C WRITEBACK ACCESS:     451128  HIT:     445810  MISS:       5318  HIT %:    98.8212  MISS %:    1.17882   MPKI: 0.10636
L2C LOAD TRANSLATION ACCESS:     302225  HIT:     202298  MISS:      99927  HIT %:    66.9362  MISS %:    33.0638   MPKI: 1.99854
L2C PREFETCH  REQUESTED:     364983  ISSUED:     364983  USEFUL:        474  USELESS:        322
L2C USEFUL LOAD PREFETCHES:        474 PREFETCH ISSUED TO LOWER LEVEL:     243706  ACCURACY: 0.194497
L2C TIMELY PREFETCHES:        474 LATE PREFETCHES: 276 DROPPED PREFETCHES: 0
L2C PREFETCHES SAME FILL-ORIGIN LEVEL: 1075 DIFFERENT FILL-ORIGIN LEVEL: 242631
L2C AVERAGE MISS LATENCY: 121.982 cycles
L2C RQ	ACCESS:    1229411	FORWARD:          0	MERGED:          0	TO_CACHE:    1229404
L2C WQ	ACCESS:     451128	FORWARD:          7	MERGED:          0	TO_CACHE:     451128
L2C PQ	ACCESS:     364983	FORWARD:          0	MERGED:      11759	TO_CACHE:     353224

Revised Interactions: positive negative neutral
L2C_interactions 466 339 315 41.6071 30.2679 28.125
L2C Instructions Evicting Data 1481
L2C Translations Evicting Data 85646
L2C Data Evicting Data 550511
L2C Instructions Evicting Instructions 69
L2C Translations Evicting Instructions 166
L2C Data Evicting Instructions 1477
L2C Instructions Evicting Translations 163
L2C Translations Evicting Translations 14115
L2C Data Evicting Translations 85217
L2C Dense regions hint from L2: 0
PSCL5 TOTAL     ACCESS:     213522  HIT:     213522  MISS:          0  HIT %:        100  MISS %:          0   MPKI: 0
PSCL5 LOAD TRANSLATION ACCESS:     213522  HIT:     213522  MISS:          0  HIT %:        100  MISS %:          0   MPKI: 0
PSCL5 PREFETCH  REQUESTED:          0  ISSUED:          0  USEFUL:          0  USELESS:          0
PSCL5 USEFUL LOAD PREFETCHES:          0 PREFETCH ISSUED TO LOWER LEVEL:          0  ACCURACY: -nan
PSCL5 TIMELY PREFETCHES:          0 LATE PREFETCHES: 0 DROPPED PREFETCHES: 0
PSCL5 PREFETCHES SAME FILL-ORIGIN LEVEL: 0 DIFFERENT FILL-ORIGIN LEVEL: 0

Revised Interactions: positive negative neutral
PSCL5_interactions 0 0 0 -nan -nan -nan
PSCL4 TOTAL     ACCESS:     213522  HIT:     213522  MISS:          0  HIT %:        100  MISS %:          0   MPKI: 0
PSCL4 LOAD TRANSLATION ACCESS:     213522  HIT:     213522  MISS:          0  HIT %:        100  MISS %:          0   MPKI: 0
PSCL4 PREFETCH  REQUESTED:          0  ISSUED:          0  USEFUL:          0  USELESS:          0
PSCL4 USEFUL LOAD PREFETCHES:          0 PREFETCH ISSUED TO LOWER LEVEL:          0  ACCURACY: -nan
PSCL4 TIMELY PREFETCHES:          0 LATE PREFETCHES: 0 DROPPED PREFETCHES: 0
PSCL4 PREFETCHES SAME FILL-ORIGIN LEVEL: 0 DIFFERENT FILL-ORIGIN LEVEL: 0

Revised Interactions: positive negative neutral
PSCL4_interactions 0 0 0 -nan -nan -nan
PSCL3 TOTAL     ACCESS:     213522  HIT:     213522  MISS:          0  HIT %:        100  MISS %:          0   MPKI: 0
PSCL3 LOAD TRANSLATION ACCESS:     213522  HIT:     213522  MISS:          0  HIT %:        100  MISS %:          0   MPKI: 0
PSCL3 PREFETCH  REQUESTED:          0  ISSUED:          0  USEFUL:          0  USELESS:          0
PSCL3 USEFUL LOAD PREFETCHES:          0 PREFETCH ISSUED TO LOWER LEVEL:          0  ACCURACY: -nan
PSCL3 TIMELY PREFETCHES:          0 LATE PREFETCHES: 0 DROPPED PREFETCHES: 0
PSCL3 PREFETCHES SAME FILL-ORIGIN LEVEL: 0 DIFFERENT FILL-ORIGIN LEVEL: 0

Revised Interactions: positive negative neutral
PSCL3_interactions 0 0 0 -nan -nan -nan
PSCL2 TOTAL     ACCESS:     213522  HIT:     124819  MISS:      88703  HIT %:    58.4572  MISS %:    41.5428   MPKI: 1.77406
PSCL2 LOAD TRANSLATION ACCESS:     213522  HIT:     124819  MISS:      88703  HIT %:    58.4572  MISS %:    41.5428   MPKI: 1.77406
PSCL2 PREFETCH  REQUESTED:          0  ISSUED:          0  USEFUL:          0  USELESS:          0
PSCL2 USEFUL LOAD PREFETCHES:          0 PREFETCH ISSUED TO LOWER LEVEL:          0  ACCURACY: -nan
PSCL2 TIMELY PREFETCHES:          0 LATE PREFETCHES: 0 DROPPED PREFETCHES: 0
PSCL2 PREFETCHES SAME FILL-ORIGIN LEVEL: 0 DIFFERENT FILL-ORIGIN LEVEL: 0

Revised Interactions: positive negative neutral
PSCL2_interactions 0 0 0 -nan -nan -nan
LLC TOTAL     ACCESS:    1283936  HIT:     580057  MISS:     703879  HIT %:     45.178  MISS %:     54.822   MPKI: 14.0776
LLC LOAD      ACCESS:     548870  HIT:     199122  MISS:     349748  HIT %:    36.2785  MISS %:    63.7215   MPKI: 6.99496
LLC RFO       ACCESS:      88973  HIT:      49743  MISS:      39230  HIT %:     55.908  MISS %:     44.092   MPKI: 0.7846
LLC PREFETCH  ACCESS:     223424  HIT:      50123  MISS:     173301  HIT %:     22.434  MISS %:     77.566   MPKI: 3.46602
LLC WRITEBACK ACCESS:     322742  HIT:     211431  MISS:     111311  HIT %:    65.5108  MISS %:    34.4892   MPKI: 2.22622
LLC LOAD TRANSLATION ACCESS:      99927  HIT:      69638  MISS:      30289  HIT %:    69.6889  MISS %:    30.3111   MPKI: 0.60578
LLC PREFETCH  REQUESTED:          0  ISSUED:          0  USEFUL:      68867  USELESS:     108455
LLC USEFUL LOAD PREFETCHES:      68867 PREFETCH ISSUED TO LOWER LEVEL:     190638  ACCURACY: 36.1245
LLC TIMELY PREFETCHES:      68867 LATE PREFETCHES: 17337 DROPPED PREFETCHES: 0
LLC PREFETCHES SAME FILL-ORIGIN LEVEL: 189874 DIFFERENT FILL-ORIGIN LEVEL: 0
LLC AVERAGE MISS LATENCY: 138.285 cycles
LLC RQ	ACCESS:     737770	FORWARD:          0	MERGED:          0	TO_CACHE:     737770
LLC WQ	ACCESS:     322742	FORWARD:          0	MERGED:          0	TO_CACHE:     322742
LLC PQ	ACCESS:     243706	FORWARD:          0	MERGED:       2235	TO_CACHE:     241471

Revised Interactions: positive negative neutral
LLC_interactions 58357 114105 65296 24.5447 47.9921 27.4632
LLC Dense regions hint to LLC: 0

RAW hits: 655547
Loads Generated: 16870303
Loads sent to L1D: 16214756
Stores Generated: 9275634
Stores sent to L1D: 9275633
Major fault: 0 Minor fault: 46286
Allocated PAGES: 46286
 All Calls: 1578095
 Critical Calls: 1578095
------------------
Depth Distribution
------------------
depth 0: 0
depth 1: 777856
depth 2: 33798
depth 3: 446
depth 4: 0
depth 5: 0
depth 6: 0
depth 7: 0
depth 8: 0
depth 9: 0
depth 10: 0
depth 11: 0
depth 12: 0
depth 13: 0
depth 14: 0
depth 15: 0
depth 16: 0
depth 17: 0
depth 18: 0
depth 19: 0
depth 20: 0
depth 21: 0
depth 22: 0
depth 23: 0
depth 24: 0
depth 25: 0
depth 26: 0
depth 27: 0
depth 28: 0
depth 29: 0
Total: 812100
-----------------------------
-----------------------------
	Captured at Filter
-----------------------------
depth 0: 0
depth 1: 1548
depth 2: 50
depth 3: 4
depth 4: 0
depth 5: 0
depth 6: 0
depth 7: 0
depth 8: 0
depth 9: 0
depth 10: 0
depth 11: 0
depth 12: 0
depth 13: 0
depth 14: 0
depth 15: 0
depth 16: 0
depth 17: 0
depth 18: 0
depth 19: 0
depth 20: 0
depth 21: 0
depth 22: 0
depth 23: 0
depth 24: 0
depth 25: 0
depth 26: 0
depth 27: 0
depth 28: 0
depth 29: 0
-----------------------------
-----------------------------
		Lost at Page
-----------------------------
depth 0: 0
depth 1: 40454
depth 2: 3028
depth 3: 30
depth 4: 0
depth 5: 0
depth 6: 0
depth 7: 0
depth 8: 0
depth 9: 0
depth 10: 0
depth 11: 0
depth 12: 0
depth 13: 0
depth 14: 0
depth 15: 0
depth 16: 0
depth 17: 0
depth 18: 0
depth 19: 0
depth 20: 0
depth 21: 0
depth 22: 0
depth 23: 0
depth 24: 0
depth 25: 0
depth 26: 0
depth 27: 0
depth 28: 0
depth 29: 0
-----------------------------
-----------------------------
	Lost due to PQ Size
-----------------------------
2
-----------------------------
ST read accesses: 478369
ST write accesses: 307975
PT read accesses: 6651658
PT write accesses: 556173
FILTER read accesses: 1896310
FILTER write accesses: 759893
GHR read accesses: 2623325
GHR write accesses: 18048
GHR counter read accesses: 6137040
GHR counter write accesses: 791378
ST tag read accesses: 460076259
ST tag write accesses: 88864743

DRAM Statistics
 CHANNEL 0
 RQ ROW_BUFFER_HIT:      57152  ROW_BUFFER_MISS:     535415
 DBUS_CONGESTED:        119
 WQ ROW_BUFFER_HIT:      42497  ROW_BUFFER_MISS:     193627  FULL:          0

 AVG_CONGESTED_CYCLE: 4
 All warmup complete: 2
Channel 0 Bank busy for read cycles: 0
Channel 0 Bank busy for write cycles: 0
Channel 0
Rank 0
0banks busy for read cycles: 139591393
0banks busy for write cycles: 130574
1banks busy for read cycles: 36926259
1banks busy for write cycles: 19181702
2banks busy for read cycles: 11878214
2banks busy for write cycles: 6716613
3banks busy for read cycles: 4223477
3banks busy for write cycles: 2383740
4banks busy for read cycles: 1495297
4banks busy for write cycles: 764249
5banks busy for read cycles: 468915
5banks busy for write cycles: 217918
6banks busy for read cycles: 162331
6banks busy for write cycles: 45358
7banks busy for read cycles: 72650
7banks busy for write cycles: 7065
8banks busy for read cycles: 1128
8banks busy for write cycles: 728

CPU 0 Branch Prediction Accuracy: 95.7672% MPKI: 8.80588 Average ROB Occupancy at Mispredict: 29.2126
Branch types
NOT_BRANCH: 39597806 79.1956%
BRANCH_DIRECT_JUMP: 567490 1.13498%
BRANCH_INDIRECT: 167849 0.335698%
BRANCH_CONDITIONAL: 6697234 13.3945%
BRANCH_DIRECT_CALL: 888050 1.7761%
BRANCH_INDIRECT_CALL: 596599 1.1932%
BRANCH_RETURN: 1484645 2.96929%
BRANCH_OTHER: 0 0%

@sumon_overall_L1D         0         0         0         0         0         0         0
@Sumon_Early_by_class_L1D         0         0         0         0
@Sumon_Late_by_class_L1D         0         0         0         0

@Sumon_Early_by_cycle_L1D         0         0         0         0         0         0         0         0         0         0         0         0
@Sumon_Late_by_cycle_L1D         0         0         0         0         0         0
@Sumon_Early_stream_L1D         0         0         0         0         0         0         0         0         0         0         0         0
@Sumon_Early_CS_L1D         0         0         0         0         0         0         0         0         0         0         0         0
@Sumon_Early_CPLX_L1D         0         0         0         0         0         0         0         0         0         0         0         0
@Sumon_Late_stream_L1D         0         0         0         0         0         0
@Sumon_Late_CS_L1D         0         0         0         0         0         0
@Sumon_Late_CPLX_L1D         0         0         0         0         0         0
@sumon_overall_L2C       474       276         0       322       799    364983    364983
@Sumon_Early_by_class_L2C         0         0         0         0
@Sumon_Late_by_class_L2C         0         0         0         0

@Sumon_Early_by_cycle_L2C        48        33       131        48        12        30       132        12         3         3         5        17
@Sumon_Late_by_cycle_L2C         3       110        29        28       106         0
@Sumon_Early_stream_L2C         0         0         0         0         0         0         0         0         0         0         0         0
@Sumon_Early_CS_L2C         0         0         0         0         0         0         0         0         0         0         0         0
@Sumon_Early_CPLX_L2C         0         0         0         0         0         0         0         0         0         0         0         0
@Sumon_Late_stream_L2C         0         0         0         0         0         0
@Sumon_Late_CS_L2C         0         0         0         0         0         0
@Sumon_Late_CPLX_L2C         0         0         0         0         0         0
DRAM PAGES: 1048576
Allocated PAGES: 46286
