Initialize SIGNATURE TABLE
ST_SET: 1
ST_WAY: 256
ST_TAG_BIT: 16
ST_TAG_MASK: ffff

Initialize PATTERN TABLE
PT_SET: 512
PT_WAY: 4
SIG_DELTA_BIT: 7
C_SIG_BIT: 4
C_DELTA_BIT: 4

Initialize PREFETCH FILTER
FILTER_SET: 1024

*** ChampSim Multicore Out-of-Order Simulator ***

Warmup Instructions: 50000000
Simulation Instructions: 50000000
Number of CPUs: 1
LLC sets: 2048
LLC ways: 16
Off-chip DRAM Size: 4096 MB Channels: 1 Width: 64-bit Data Rate: 6400 MT/s
CPU 0 runs ../../biswa/SPEC2017Traces/623.xalancbmk_s-202B.champsimtrace.xz
.xz
CPU 0 Bimodal branch predictor
BTB has LRU replacement policy
ITLB has LRU replacement policy
DTLB has LRU replacement policy
STLB has LRU replacement policy
L1I has LRU replacement policy
L1D has LRU replacement policy
ST_WAYS: 256
PT_SETS: 512
Initialize DRRIP state for L2C
Initialize Hawkeye state
epoch: 1000
next table: 2189
cur table: 10101
epoch: 1000
next table: 2045
cur table: 2189
epoch: 1000
next table: 2019
cur table: 2045
epoch: 1000
next table: 2015
cur table: 2019
epoch: 1000
next table: 2015
cur table: 2015
epoch: 1000
next table: 2014
cur table: 2015
epoch: 1000
next table: 2014
cur table: 2014
epoch: 1000
next table: 2014
cur table: 2014
epoch: 1000
next table: 2014
cur table: 2014
epoch: 1000
next table: 2013
cur table: 2014
epoch: 1000
next table: 2015
cur table: 2013
epoch: 1000
next table: 2014
cur table: 2015
epoch: 1000
next table: 2012
cur table: 2014
epoch: 1000
next table: 2015
cur table: 2012
epoch: 1000
next table: 2014
cur table: 2015
epoch: 1000
next table: 2013
cur table: 2014
epoch: 1000
next table: 2014
cur table: 2013
epoch: 1000
next table: 2014
cur table: 2014
epoch: 1000
next table: 2016
cur table: 2014
epoch: 1000
next table: 2012
cur table: 2016
epoch: 1000
next table: 2014
cur table: 2012
epoch: 1000
next table: 2007
cur table: 2014
epoch: 1000
next table: 2017
cur table: 2007
epoch: 1000
next table: 2016
cur table: 2017
epoch: 1000
next table: 2102
cur table: 23465
epoch: 1000
next table: 2014
cur table: 2016
epoch: 1000
next table: 1861
cur table: 2102
epoch: 1000
next table: 2014
cur table: 2014
epoch: 1000
next table: 1912
cur table: 1861
epoch: 1000
next table: 2018
cur table: 2014
epoch: 1000
next table: 2014
cur table: 2018
epoch: 1000
next table: 2008
cur table: 1912
epoch: 1000
next table: 2013
cur table: 2014
epoch: 1000
next table: 1844
cur table: 2008
epoch: 1000
next table: 2014
cur table: 2013
epoch: 1000
next table: 1752
cur table: 1844
epoch: 1000
next table: 2010
cur table: 2014
epoch: 1000
next table: 1764
cur table: 1752
epoch: 1000
next table: 2015
cur table: 2010
epoch: 1000
next table: 1728
cur table: 1764
epoch: 1000
next table: 2012
cur table: 2015
epoch: 1000
next table: 1786
cur table: 1728
epoch: 1000
next table: 2016
cur table: 2012
epoch: 1000
next table: 1747
cur table: 1786
epoch: 1000
next table: 2011
cur table: 2016
epoch: 1000
next table: 1735
cur table: 1747
epoch: 1000
next table: 2016
cur table: 2011
epoch: 1000
next table: 1713
cur table: 1735
epoch: 1000
next table: 2013
cur table: 2016
epoch: 1000
next table: 1584
cur table: 1713
epoch: 1000
next table: 2016
cur table: 2013
epoch: 1000
next table: 1573
cur table: 1584
epoch: 1000
next table: 2017
cur table: 2016
epoch: 1000
next table: 1589
cur table: 1573
epoch: 1000
next table: 2015
cur table: 2017
epoch: 1000
next table: 1576
cur table: 1589
epoch: 1000
next table: 2017
cur table: 2015
epoch: 1000
next table: 1583
cur table: 1576
epoch: 1000
next table: 2016
cur table: 2017
epoch: 1000
next table: 1627
cur table: 1583
epoch: 1000
next table: 2013
cur table: 2016
epoch: 1000
next table: 1648
cur table: 1627
epoch: 1000
next table: 2015
cur table: 2013
epoch: 1000
next table: 1612
cur table: 1648
epoch: 1000
next table: 2016
cur table: 2015
epoch: 1000
next table: 1603
cur table: 1612
epoch: 1000
next table: 2017
cur table: 2016
epoch: 1000
next table: 1607
cur table: 1603
epoch: 1000
next table: 2016
cur table: 2017
epoch: 1000
next table: 1622
cur table: 1607
epoch: 1000
next table: 2007
cur table: 2016
epoch: 1000
next table: 1592
cur table: 1622
epoch: 1000
next table: 1999
cur table: 2007
epoch: 1000
next table: 1590
cur table: 1592
epoch: 1000
next table: 2000
cur table: 1999
epoch: 1000
next table: 1609
cur table: 1590
epoch: 1000
next table: 2000
cur table: 2000
epoch: 1000
next table: 1589
cur table: 1609
epoch: 1000
next table: 2000
cur table: 2000
epoch: 1000
next table: 1641
cur table: 1589
epoch: 1000
next table: 1999
cur table: 2000
epoch: 1000
next table: 1727
cur table: 1641
epoch: 1000
next table: 2001
cur table: 1999
epoch: 1000
next table: 1764
cur table: 1727
epoch: 1000
next table: 2000
cur table: 2001
epoch: 1000
next table: 1752
cur table: 1764
epoch: 1000
next table: 1999
cur table: 2000
epoch: 1000
next table: 1780
cur table: 1752
epoch: 1000
next table: 2002
cur table: 1999
epoch: 1000
next table: 2006
cur table: 1780
epoch: 1000
next table: 1999
cur table: 2002
epoch: 1000
next table: 2000
cur table: 1999
epoch: 1000
next table: 2000
cur table: 2000
epoch: 1000
next table: 2710
cur table: 2006
epoch: 1000
next table: 2000
cur table: 2000
epoch: 1000
next table: 2001
cur table: 2000
epoch: 1000
next table: 1998
cur table: 2001
epoch: 1000
next table: 2001
cur table: 1998
epoch: 1000
next table: 2000
cur table: 2001
epoch: 1000
next table: 1999
cur table: 2000
epoch: 1000
next table: 2001
cur table: 1999
epoch: 1000
next table: 6386
cur table: 2710
epoch: 1000
next table: 1998
cur table: 2001
epoch: 1000
next table: 1999
cur table: 1998
epoch: 1000
next table: 1998
cur table: 1999
epoch: 1000
next table: 2001
cur table: 1998
epoch: 1000
next table: 3930
cur table: 6386
epoch: 1000
next table: 2001
cur table: 2001
epoch: 1000
next table: 1999
cur table: 2001
epoch: 1000
next table: 2001
cur table: 1999
epoch: 1000
next table: 2814
cur table: 3930
epoch: 1000
next table: 1998
cur table: 2001
epoch: 1000
next table: 2002
cur table: 1998
epoch: 1000
next table: 2532
cur table: 2814
epoch: 1000
next table: 2000
cur table: 2002
epoch: 1000
next table: 2050
cur table: 2532
epoch: 1000
next table: 2000
cur table: 2000
epoch: 1000
next table: 2006
cur table: 2000
epoch: 1000
next table: 1885
cur table: 2050
epoch: 1000
next table: 2015
cur table: 2006
epoch: 1000
next table: 1741
cur table: 1885
epoch: 1000
next table: 2013
cur table: 2015
epoch: 1000
next table: 1723
cur table: 1741
epoch: 1000
next table: 2013
cur table: 2013
epoch: 1000
next table: 1732
cur table: 1723
epoch: 1000
next table: 2011
cur table: 2013
epoch: 1000
next table: 1833
cur table: 1732
epoch: 1000
next table: 2001
cur table: 2011
epoch: 1000
next table: 2336
cur table: 1833
epoch: 1000
next table: 1998
cur table: 2001
epoch: 1000
next table: 2000
cur table: 1998
epoch: 1000
next table: 2235
cur table: 2336
epoch: 1000
next table: 2001
cur table: 2000
epoch: 1000
next table: 1999
cur table: 2001
epoch: 1000
next table: 2266
cur table: 2235
epoch: 1000
next table: 2001
cur table: 1999
epoch: 1000
next table: 2000
cur table: 2001
epoch: 1000
next table: 1999
cur table: 2000
epoch: 1000
next table: 2758
cur table: 2266
epoch: 1000
next table: 2000
cur table: 1999
epoch: 1000
next table: 2001
cur table: 2000
epoch: 1000
next table: 3022
cur table: 2758
epoch: 1000
next table: 1999
cur table: 2001
epoch: 1000
next table: 1999
cur table: 1999
epoch: 1000
next table: 2411
cur table: 3022
epoch: 1000
next table: 2000
cur table: 1999
epoch: 1000
next table: 2001
cur table: 2000
epoch: 1000
next table: 2061
cur table: 2411
epoch: 1000
next table: 1997
cur table: 2001
epoch: 1000
next table: 1966
cur table: 2061
epoch: 1000
next table: 2001
cur table: 1997
epoch: 1000
next table: 1999
cur table: 2001
epoch: 1000
next table: 1969
cur table: 1966
epoch: 1000
next table: 2001
cur table: 1999
epoch: 1000
next table: 1999
cur table: 2001
epoch: 1000
next table: 1971
cur table: 1969
epoch: 1000
next table: 2001
cur table: 1999
epoch: 1000
next table: 2031
cur table: 1971
epoch: 1000
next table: 1997
cur table: 2001
epoch: 1000
next table: 2001
cur table: 1997
epoch: 1000
next table: 1914
cur table: 2031
epoch: 1000
next table: 2000
cur table: 2001
epoch: 1000
next table: 2000
cur table: 2000
epoch: 1000
next table: 1944
cur table: 1914
epoch: 1000
next table: 2000
cur table: 2000
epoch: 1000
next table: 1942
cur table: 1944
epoch: 1000
next table: 2000
cur table: 2000
epoch: 1000
next table: 1999
cur table: 2000
epoch: 1000
next table: 1965
cur table: 1942
epoch: 1000
next table: 1996
cur table: 1999
epoch: 1000
next table: 2000
cur table: 1996
epoch: 1000
next table: 2430
cur table: 1965
epoch: 1000
next table: 1998
cur table: 2000
epoch: 1000
next table: 2000
cur table: 1998
epoch: 1000
next table: 2542
cur table: 2430
epoch: 1000
next table: 1999
cur table: 2000
epoch: 1000
next table: 2000
cur table: 1999
epoch: 1000
next table: 2645
cur table: 2542
epoch: 1000
next table: 2001
cur table: 2000
epoch: 1000
next table: 2000
cur table: 2001
epoch: 1000
next table: 2264
cur table: 2645
epoch: 1000
next table: 1998
cur table: 2000
epoch: 1000
next table: 2002
cur table: 1998
epoch: 1000
next table: 2276
cur table: 2264
epoch: 1000
next table: 2000
cur table: 2002
epoch: 1000
next table: 1999
cur table: 2000
epoch: 1000
next table: 2413
cur table: 2276
epoch: 1000
next table: 2001
cur table: 1999
epoch: 1000
next table: 2203
cur table: 2413
epoch: 1000
next table: 1999
cur table: 2001
epoch: 1000
next table: 1997
cur table: 1999
epoch: 1000
next table: 2096
cur table: 2203
epoch: 1000
next table: 2001
cur table: 1997
epoch: 1000
next table: 1999
cur table: 2001
epoch: 1000
next table: 2142
cur table: 2096
epoch: 1000
next table: 2001
cur table: 1999
epoch: 1000
next table: 2000
cur table: 2001
epoch: 1000
next table: 2175
cur table: 2142
epoch: 1000
next table: 2000
cur table: 2000
epoch: 1000
next table: 2000
cur table: 2000
epoch: 1000
next table: 2157
cur table: 2175
epoch: 1000
next table: 2001
cur table: 2000
epoch: 1000
next table: 1999
cur table: 2001
epoch: 1000
next table: 2109
cur table: 2157
epoch: 1000
next table: 2001
cur table: 1999
epoch: 1000
next table: 2000
cur table: 2001
epoch: 1000
next table: 2101
cur table: 2109
epoch: 1000
next table: 2000
cur table: 2000
epoch: 1000
next table: 1999
cur table: 2000
epoch: 1000
next table: 2205
cur table: 2101
epoch: 1000
next table: 2002
cur table: 1999
epoch: 1000
next table: 1999
cur table: 2002
epoch: 1000
next table: 1912
cur table: 2205
epoch: 1000
next table: 2000
cur table: 1999
epoch: 1000
next table: 2000
cur table: 2000
epoch: 1000
next table: 1929
cur table: 1912
epoch: 1000
next table: 1998
cur table: 2000
epoch: 1000
next table: 1979
cur table: 1929
epoch: 1000
next table: 2001
cur table: 1998
epoch: 1000
next table: 1986
cur table: 1979
epoch: 1000
next table: 2000
cur table: 2001
epoch: 1000
next table: 2000
cur table: 2000
epoch: 1000
next table: 2185
cur table: 1986
epoch: 1000
next table: 2001
cur table: 2000
epoch: 1000
next table: 1999
cur table: 2001
epoch: 1000
next table: 2226
cur table: 2185
epoch: 1000
next table: 2000
cur table: 1999
epoch: 1000
next table: 2000
cur table: 2000
epoch: 1000
next table: 2257
cur table: 2226
epoch: 1000
next table: 1999
cur table: 2000
epoch: 1000
next table: 2242
cur table: 2257
epoch: 1000
next table: 2002
cur table: 1999
epoch: 1000
next table: 1998
cur table: 2002
epoch: 1000
next table: 2338
cur table: 2242
epoch: 1000
next table: 2000
cur table: 1998
epoch: 1000
next table: 2001
cur table: 2000
epoch: 1000
next table: 2273
cur table: 2338
epoch: 1000
next table: 2000
cur table: 2001
epoch: 1000
next table: 2000
cur table: 2000
epoch: 1000
next table: 2572
cur table: 2273
epoch: 1000
next table: 1998
cur table: 2000
epoch: 1000
next table: 2000
cur table: 1998
epoch: 1000
next table: 2001
cur table: 2000
epoch: 1000
next table: 2640
cur table: 2572
epoch: 1000
next table: 1998
cur table: 2001
epoch: 1000
next table: 2002
cur table: 1998
epoch: 1000
next table: 2862
cur table: 2640
epoch: 1000
next table: 2000
cur table: 2002
epoch: 1000
next table: 1997
cur table: 2000
epoch: 1000
next table: 2538
cur table: 2862
epoch: 1000
next table: 2000
cur table: 1997
epoch: 1000
next table: 1995
cur table: 2000
epoch: 1000
next table: 2513
cur table: 2538
epoch: 1000
next table: 2000
cur table: 1995
epoch: 1000
next table: 2001
cur table: 2000
epoch: 1000
next table: 2000
cur table: 2001
epoch: 1000
next table: 2515
cur table: 2513
epoch: 1000
next table: 2000
cur table: 2000
epoch: 1000
next table: 2210
cur table: 2515
epoch: 1000
next table: 1999
cur table: 2000
epoch: 1000
next table: 2001
cur table: 1999
epoch: 1000
next table: 2181
cur table: 2210
epoch: 1000
next table: 1999
cur table: 2001
epoch: 1000
next table: 2169
cur table: 2181
epoch: 1000
next table: 2000
cur table: 1999
epoch: 1000
next table: 2000
cur table: 2000
epoch: 1000
next table: 2176
cur table: 2169
epoch: 1000
next table: 2000
cur table: 2000
epoch: 1000
next table: 2180
cur table: 2176
epoch: 1000
next table: 1999
cur table: 2000
epoch: 1000
next table: 1998
cur table: 1999
epoch: 1000
next table: 2122
cur table: 2180
epoch: 1000
next table: 1999
cur table: 1998
epoch: 1000
next table: 2001
cur table: 1999
epoch: 1000
next table: 2099
cur table: 2122
epoch: 1000
next table: 1999
cur table: 2001
epoch: 1000
next table: 2000
cur table: 1999
epoch: 1000
next table: 2089
cur table: 2099
epoch: 1000
next table: 2001
cur table: 2000
epoch: 1000
next table: 2000
cur table: 2001
epoch: 1000
next table: 2098
cur table: 2089
epoch: 1000
next table: 1999
cur table: 2000
epoch: 1000
next table: 2142
cur table: 2098
epoch: 1000
next table: 2001
cur table: 1999
epoch: 1000
next table: 2000
cur table: 2001
epoch: 1000
next table: 2121
cur table: 2142
epoch: 1000
next table: 1999
cur table: 2000
epoch: 1000
next table: 2000
cur table: 1999
epoch: 1000
next table: 2108
cur table: 2121
epoch: 1000
next table: 2000
cur table: 2000
epoch: 1000
next table: 2000
cur table: 2000
epoch: 1000
next table: 2087
cur table: 2108
epoch: 1000
next table: 2001
cur table: 2000
epoch: 1000
next table: 1998
cur table: 2001
epoch: 1000
next table: 2308
cur table: 2087
epoch: 1000
next table: 1999
cur table: 1998
epoch: 1000
next table: 2000
cur table: 1999
epoch: 1000
next table: 2055
cur table: 2308
epoch: 1000
next table: 2001
cur table: 2000
epoch: 1000
next table: 2032
cur table: 2055
epoch: 1000
next table: 2000
cur table: 2001
epoch: 1000
next table: 2000
cur table: 2000
epoch: 1000
next table: 2091
cur table: 2032
epoch: 1000
next table: 1999
cur table: 2000
epoch: 1000
next table: 2099
cur table: 2091
epoch: 1000
next table: 2001
cur table: 1999
epoch: 1000
next table: 2000
cur table: 2001
epoch: 1000
next table: 2050
cur table: 2099
epoch: 1000
next table: 2000
cur table: 2000
epoch: 1000
next table: 2106
cur table: 2050
epoch: 1000
next table: 2001
cur table: 2000
epoch: 1000
next table: 1996
cur table: 2001
epoch: 1000
next table: 2219
cur table: 2106
epoch: 1000
next table: 1998
cur table: 1996
epoch: 1000
next table: 1999
cur table: 1998
epoch: 1000
next table: 2701
cur table: 2219
epoch: 1000
next table: 1999
cur table: 1999
epoch: 1000
next table: 2003
cur table: 1999
epoch: 1000
next table: 1999
cur table: 2003
epoch: 1000
next table: 3049
cur table: 2701
epoch: 1000
next table: 1999
cur table: 1999
epoch: 1000
next table: 1999
cur table: 1999
epoch: 1000
next table: 2382
cur table: 3049
epoch: 1000
next table: 2001
cur table: 1999
epoch: 1000
next table: 1999
cur table: 2001
epoch: 1000
next table: 2410
cur table: 2382
epoch: 1000
next table: 2000
cur table: 1999
epoch: 1000
next table: 1998
cur table: 2000
epoch: 1000
next table: 2344
cur table: 2410
epoch: 1000
next table: 2000
cur table: 1998
epoch: 1000
next table: 2002
cur table: 2000
epoch: 1000
next table: 2352
cur table: 2344
epoch: 1000
next table: 1999
cur table: 2002
epoch: 1000
next table: 2001
cur table: 1999
epoch: 1000
next table: 2456
cur table: 2352
epoch: 1000
next table: 1998
cur table: 2001
epoch: 1000
next table: 2001
cur table: 1998
epoch: 1000
next table: 2001
cur table: 2001
epoch: 1000
next table: 2540
cur table: 2456
epoch: 1000
next table: 2000
cur table: 2001
epoch: 1000
next table: 1999
cur table: 2000
epoch: 1000
next table: 2418
cur table: 2540
epoch: 1000
next table: 2002
cur table: 1999
epoch: 1000
next table: 1999
cur table: 2002
epoch: 1000
next table: 1999
cur table: 1999
epoch: 1000
next table: 2508
cur table: 2418
epoch: 1000
next table: 2000
cur table: 1999
epoch: 1000
next table: 1999
cur table: 2000
epoch: 1000
next table: 2002
cur table: 1999
epoch: 1000
next table: 2588
cur table: 2508
epoch: 1000
next table: 1999
cur table: 2002
epoch: 1000
next table: 2000
cur table: 1999
epoch: 1000
next table: 1999
cur table: 2000
epoch: 1000
next table: 2613
cur table: 2588
epoch: 1000
next table: 1999
cur table: 1999
epoch: 1000
next table: 2000
cur table: 1999
epoch: 1000
next table: 2430
cur table: 2613
epoch: 1000
next table: 2000
cur table: 2000
epoch: 1000
next table: 2000
cur table: 2000
epoch: 1000
next table: 2277
cur table: 2430
epoch: 1000
next table: 2000
cur table: 2000
epoch: 1000
next table: 1999
cur table: 2000
epoch: 1000
next table: 2319
cur table: 2277
epoch: 1000
next table: 2002
cur table: 1999
epoch: 1000
next table: 2345
cur table: 2319
epoch: 1000
next table: 1997
cur table: 2002
epoch: 1000
next table: 2001
cur table: 1997
epoch: 1000
next table: 2298
cur table: 2345
epoch: 1000
next table: 2000
cur table: 2001
epoch: 1000
next table: 1999
cur table: 2000
Heartbeat CPU 0 instructions: 10000001 cycles: 2847963 heartbeat IPC: 3.51128 cumulative IPC: 3.51128 (Simulation time: 0 hr 2 min 39 sec) 
epoch: 1000
next table: 2239
cur table: 2298
epoch: 1000
next table: 2002
cur table: 1999
epoch: 1000
next table: 1935
cur table: 2239
epoch: 1000
next table: 1999
cur table: 2002
epoch: 1000
next table: 1999
cur table: 1999
epoch: 1000
next table: 1912
cur table: 1935
epoch: 1000
next table: 2000
cur table: 1999
epoch: 1000
next table: 1865
cur table: 1912
epoch: 1000
next table: 2001
cur table: 2000
epoch: 1000
next table: 1882
cur table: 1865
epoch: 1000
next table: 1999
cur table: 2001
epoch: 1000
next table: 2001
cur table: 1999
epoch: 1000
next table: 1839
cur table: 1882
epoch: 1000
next table: 2000
cur table: 2001
epoch: 1000
next table: 1888
cur table: 1839
epoch: 1000
next table: 2000
cur table: 2000
epoch: 1000
next table: 1935
cur table: 1888
epoch: 1000
next table: 1999
cur table: 2000
epoch: 1000
next table: 1943
cur table: 1935
epoch: 1000
next table: 2002
cur table: 1999
epoch: 1000
next table: 2000
cur table: 2002
epoch: 1000
next table: 1922
cur table: 1943
epoch: 1000
next table: 1999
cur table: 2000
epoch: 1000
next table: 1816
cur table: 1922
epoch: 1000
next table: 2001
cur table: 1999
epoch: 1000
next table: 1805
cur table: 1816
epoch: 1000
next table: 1997
cur table: 2001
epoch: 1000
next table: 2000
cur table: 1997
epoch: 1000
next table: 2301
cur table: 1805
epoch: 1000
next table: 1999
cur table: 2000
epoch: 1000
next table: 2211
cur table: 2301
epoch: 1000
next table: 2000
cur table: 1999
epoch: 1000
next table: 2000
cur table: 2000
epoch: 1000
next table: 2312
cur table: 2211
epoch: 1000
next table: 2000
cur table: 2000
epoch: 1000
next table: 1999
cur table: 2000
epoch: 1000
next table: 2326
cur table: 2312
epoch: 1000
next table: 2001
cur table: 1999
epoch: 1000
next table: 1999
cur table: 2001
epoch: 1000
next table: 2544
cur table: 2326
epoch: 1000
next table: 2000
cur table: 1999
epoch: 1000
next table: 2001
cur table: 2000
epoch: 1000
next table: 2475
cur table: 2544
epoch: 1000
next table: 1999
cur table: 2001
epoch: 1000
next table: 2000
cur table: 1999
epoch: 1000
next table: 2554
cur table: 2475
epoch: 1000
next table: 2001
cur table: 2000
epoch: 1000
next table: 1997
cur table: 2001
epoch: 1000
next table: 2241
cur table: 2554
epoch: 1000
next table: 1999
cur table: 1997
epoch: 1000
next table: 2000
cur table: 1999
epoch: 1000
next table: 2122
cur table: 2241
epoch: 1000
next table: 2000
cur table: 2000
epoch: 1000
next table: 2001
cur table: 2000
epoch: 1000
next table: 2078
cur table: 2122
epoch: 1000
next table: 2000
cur table: 2001
epoch: 1000
next table: 1999
cur table: 2000
epoch: 1000
next table: 2247
cur table: 2078
epoch: 1000
next table: 1999
cur table: 1999
epoch: 1000
next table: 2002
cur table: 1999
epoch: 1000
next table: 2151
cur table: 2247
epoch: 1000
next table: 2000
cur table: 2002
epoch: 1000
next table: 1998
cur table: 2000
epoch: 1000
next table: 2193
cur table: 2151
epoch: 1000
next table: 2000
cur table: 1998
epoch: 1000
next table: 2000
cur table: 2000
epoch: 1000
next table: 2078
cur table: 2193
epoch: 1000
next table: 2002
cur table: 2000
epoch: 1000
next table: 2000
cur table: 2002
epoch: 1000
next table: 2079
cur table: 2078
epoch: 1000
next table: 1998
cur table: 2000
epoch: 1000
next table: 2000
cur table: 1998
epoch: 1000
next table: 2163
cur table: 2079
epoch: 1000
next table: 1999
cur table: 2000
epoch: 1000
next table: 2184
cur table: 2163
epoch: 1000
next table: 2002
cur table: 1999
epoch: 1000
next table: 1994
cur table: 2002
epoch: 1000
next table: 2363
cur table: 2184
epoch: 1000
next table: 2003
cur table: 1994
epoch: 1000
next table: 1996
cur table: 2003
epoch: 1000
next table: 2620
cur table: 2363
epoch: 1000
next table: 2001
cur table: 1996
epoch: 1000
next table: 2000
cur table: 2001
epoch: 1000
next table: 2000
cur table: 2000
epoch: 1000
next table: 3013
cur table: 2620
epoch: 1000
next table: 1996
cur table: 2000
epoch: 1000
next table: 1999
cur table: 1996
epoch: 1000
next table: 2001
cur table: 1999
epoch: 1000
next table: 2478
cur table: 3013
epoch: 1000
next table: 2001
cur table: 2001
epoch: 1000
next table: 2000
cur table: 2001
epoch: 1000
next table: 2487
cur table: 2478
epoch: 1000
next table: 1999
cur table: 2000
epoch: 1000
next table: 2001
cur table: 1999
epoch: 1000
next table: 2511
cur table: 2487
epoch: 1000
next table: 1999
cur table: 2001
epoch: 1000
next table: 2014
cur table: 1999
epoch: 1000
next table: 2477
cur table: 2511
epoch: 1000
next table: 2016
cur table: 2014
epoch: 1000
next table: 2035
cur table: 2016
epoch: 1000
next table: 2953
cur table: 2477
epoch: 1000
next table: 2016
cur table: 2035
epoch: 1000
next table: 2012
cur table: 2016
epoch: 1000
next table: 2017
cur table: 2012
epoch: 1000
next table: 3180
cur table: 2953
epoch: 1000
next table: 2020
cur table: 2017
epoch: 1000
next table: 2014
cur table: 2020
epoch: 1000
next table: 2016
cur table: 2014
epoch: 1000
next table: 3456
cur table: 3180
epoch: 1000
next table: 2018
cur table: 2016
epoch: 1000
next table: 2027
cur table: 2018
epoch: 1000
next table: 2042
cur table: 2027
epoch: 1000
next table: 2052
cur table: 2042
epoch: 1000
next table: 3759
cur table: 3456
epoch: 1000
next table: 1998
cur table: 2052
epoch: 1000
next table: 1999
cur table: 1998
epoch: 1000
next table: 2551
cur table: 3759
epoch: 1000
next table: 2000
cur table: 1999
epoch: 1000
next table: 2000
cur table: 2000
epoch: 1000
next table: 2000
cur table: 2000
epoch: 1000
next table: 2479
cur table: 2551
epoch: 1000
next table: 2000
cur table: 2000
epoch: 1000
next table: 2001
cur table: 2000
epoch: 1000
next table: 2514
cur table: 2479
epoch: 1000
next table: 1998
cur table: 2001
epoch: 1000
next table: 2001
cur table: 1998
epoch: 1000
next table: 2000
cur table: 2001
epoch: 1000
next table: 2547
cur table: 2514
epoch: 1000
next table: 1999
cur table: 2000
epoch: 1000
next table: 2001
cur table: 1999
epoch: 1000
next table: 2539
cur table: 2547
epoch: 1000
next table: 2000
cur table: 2001
epoch: 1000
next table: 1999
cur table: 2000
epoch: 1000
next table: 2000
cur table: 1999
epoch: 1000
next table: 2556
cur table: 2539
epoch: 1000
next table: 2001
cur table: 2000
epoch: 1000
next table: 1998
cur table: 2001
epoch: 1000
next table: 2474
cur table: 2556
epoch: 1000
next table: 2001
cur table: 1998
epoch: 1000
next table: 2001
cur table: 2001
epoch: 1000
next table: 2358
cur table: 2474
epoch: 1000
next table: 1998
cur table: 2001
epoch: 1000
next table: 2001
cur table: 1998
epoch: 1000
next table: 2016
cur table: 2358
epoch: 1000
next table: 2000
cur table: 2001
epoch: 1000
next table: 1954
cur table: 2016
epoch: 1000
next table: 2000
cur table: 2000
epoch: 1000
next table: 1995
cur table: 2000
epoch: 1000
next table: 2273
cur table: 1954
epoch: 1000
next table: 2001
cur table: 1995
epoch: 1000
next table: 1998
cur table: 2001
epoch: 1000
next table: 2825
cur table: 2273
epoch: 1000
next table: 1999
cur table: 1998
epoch: 1000
next table: 2000
cur table: 1999
epoch: 1000
next table: 1999
cur table: 2000
epoch: 1000
next table: 2902
cur table: 2825
epoch: 1000
next table: 2002
cur table: 1999
epoch: 1000
next table: 2157
cur table: 2002
epoch: 1000
next table: 8055
cur table: 2157
epoch: 1000
next table: 2778
cur table: 2902
epoch: 1000
next table: 2000
cur table: 8055
epoch: 1000
next table: 2000
cur table: 2000
epoch: 1000
next table: 3000
cur table: 2778
epoch: 1000
next table: 1999
cur table: 2000
epoch: 1000
next table: 2001
cur table: 1999
epoch: 1000
next table: 2000
cur table: 2001
epoch: 1000
next table: 3028
cur table: 3000
epoch: 1000
next table: 2000
cur table: 2000
epoch: 1000
next table: 1998
cur table: 2000
epoch: 1000
next table: 1999
cur table: 1998
epoch: 1000
next table: 2792
cur table: 3028
epoch: 1000
next table: 2000
cur table: 1999
epoch: 1000
next table: 2000
cur table: 2000
epoch: 1000
next table: 2590
cur table: 2792
epoch: 1000
next table: 2001
cur table: 2000
epoch: 1000
next table: 1999
cur table: 2001
epoch: 1000
next table: 2002
cur table: 1999
epoch: 1000
next table: 2538
cur table: 2590
epoch: 1000
next table: 1999
cur table: 2002
epoch: 1000
next table: 2000
cur table: 1999
epoch: 1000
next table: 1999
cur table: 2000
epoch: 1000
next table: 2449
cur table: 2538
epoch: 1000
next table: 1999
cur table: 1999
epoch: 1000
next table: 2002
cur table: 1999
epoch: 1000
next table: 2430
cur table: 2449
epoch: 1000
next table: 2000
cur table: 2002
epoch: 1000
next table: 2000
cur table: 2000
epoch: 1000
next table: 1999
cur table: 2000
epoch: 1000
next table: 2492
cur table: 2430
epoch: 1000
next table: 2001
cur table: 1999
epoch: 1000
next table: 1997
cur table: 2001
epoch: 1000
next table: 2494
cur table: 2492
epoch: 1000
next table: 2000
cur table: 1997
epoch: 1000
next table: 2001
cur table: 2000
epoch: 1000
next table: 2594
cur table: 2494
epoch: 1000
next table: 1998
cur table: 2001
epoch: 1000
next table: 2001
cur table: 1998
epoch: 1000
next table: 2000
cur table: 2001
epoch: 1000
next table: 2625
cur table: 2594
epoch: 1000
next table: 2000
cur table: 2000
epoch: 1000
next table: 1999
cur table: 2000
epoch: 1000
next table: 2364
cur table: 2625
epoch: 1000
next table: 1998
cur table: 1999
epoch: 1000
next table: 1878
cur table: 2364
epoch: 1000
next table: 2001
cur table: 1998
epoch: 1000
next table: 1897
cur table: 1878
epoch: 1000
next table: 2000
cur table: 2001
epoch: 1000
next table: 1840
cur table: 1897
epoch: 1000
next table: 2000
cur table: 2000
epoch: 1000
next table: 2001
cur table: 2000
epoch: 1000
next table: 1854
cur table: 1840
epoch: 1000
next table: 1999
cur table: 2001
epoch: 1000
next table: 1987
cur table: 1854
epoch: 1000
next table: 1999
cur table: 1999
epoch: 1000
next table: 1781
cur table: 1987
epoch: 1000
next table: 2001
cur table: 1999
epoch: 1000
next table: 1794
cur table: 1781
epoch: 1000
next table: 1997
cur table: 2001
epoch: 1000
next table: 1756
cur table: 1794
epoch: 1000
next table: 2001
cur table: 1997
epoch: 1000
next table: 1835
cur table: 1756
epoch: 1000
next table: 1999
cur table: 2001
epoch: 1000
next table: 2000
cur table: 1999
epoch: 1000
next table: 1822
cur table: 1835
epoch: 1000
next table: 2001
cur table: 2000
epoch: 1000
next table: 1790
cur table: 1822
epoch: 1000
next table: 1999
cur table: 2001
epoch: 1000
next table: 1881
cur table: 1790
epoch: 1000
next table: 2001
cur table: 1999
epoch: 1000
next table: 1775
cur table: 1881
epoch: 1000
next table: 2000
cur table: 2001
epoch: 1000
next table: 1810
cur table: 1775
epoch: 1000
next table: 1998
cur table: 2000
epoch: 1000
next table: 2055
cur table: 1810
epoch: 1000
next table: 2002
cur table: 1998
epoch: 1000
next table: 1997
cur table: 2002
epoch: 1000
next table: 2293
cur table: 2055
epoch: 1000
next table: 1999
cur table: 1997
epoch: 1000
next table: 5274
cur table: 1999
epoch: 1000
next table: 2164
cur table: 2293
epoch: 1000
next table: 2000
cur table: 5274
epoch: 1000
next table: 1999
cur table: 2000
epoch: 1000
next table: 2277
cur table: 2164
epoch: 1000
next table: 2001
cur table: 1999
epoch: 1000
next table: 2339
cur table: 2277
epoch: 1000
next table: 2000
cur table: 2001
epoch: 1000
next table: 1999
cur table: 2000
epoch: 1000
next table: 2297
cur table: 2339
epoch: 1000
next table: 2001
cur table: 1999
epoch: 1000
next table: 2000
cur table: 2001
epoch: 1000
next table: 2350
cur table: 2297
epoch: 1000
next table: 1999
cur table: 2000
epoch: 1000
next table: 2001
cur table: 1999
epoch: 1000
next table: 2347
cur table: 2350
epoch: 1000
next table: 2085
cur table: 2001
epoch: 1000
next table: 2342
cur table: 2347
epoch: 1000
next table: 2127
cur table: 2085
epoch: 1000
next table: 2068
cur table: 2127
epoch: 1000
next table: 2392
cur table: 2342
epoch: 1000
next table: 2028
cur table: 2068
epoch: 1000
next table: 2015
cur table: 2028
epoch: 1000
next table: 2015
cur table: 2015
epoch: 1000
next table: 2869
cur table: 2392
epoch: 1000
next table: 2029
cur table: 2015
epoch: 1000
next table: 2229
cur table: 2869
epoch: 1000
next table: 2016
cur table: 2029
epoch: 1000
next table: 2024
cur table: 2016
epoch: 1000
next table: 2235
cur table: 2229
epoch: 1000
next table: 2021
cur table: 2024
epoch: 1000
next table: 2015
cur table: 2021
epoch: 1000
next table: 2645
cur table: 2235
epoch: 1000
next table: 2019
cur table: 2015
epoch: 1000
next table: 2036
cur table: 2019
epoch: 1000
next table: 2461
cur table: 2645
epoch: 1000
next table: 2015
cur table: 2036
epoch: 1000
next table: 2000
cur table: 2015
epoch: 1000
next table: 2046
cur table: 2461
epoch: 1000
next table: 1999
cur table: 2000
epoch: 1000
next table: 2000
cur table: 1999
epoch: 1000
next table: 1991
cur table: 2046
epoch: 1000
next table: 2000
cur table: 2000
epoch: 1000
next table: 1969
cur table: 1991
epoch: 1000
next table: 2002
cur table: 2000
epoch: 1000
next table: 1999
cur table: 2002
epoch: 1000
next table: 2058
cur table: 1969
epoch: 1000
next table: 1999
cur table: 1999
epoch: 1000
next table: 2001
cur table: 1999
epoch: 1000
next table: 2048
cur table: 2058
epoch: 1000
next table: 1999
cur table: 2001
epoch: 1000
next table: 2000
cur table: 1999
epoch: 1000
next table: 2160
cur table: 2048
epoch: 1000
next table: 2002
cur table: 2000
epoch: 1000
next table: 1998
cur table: 2002
epoch: 1000
next table: 2186
cur table: 2160
epoch: 1000
next table: 2001
cur table: 1998
epoch: 1000
next table: 1999
cur table: 2001
epoch: 1000
next table: 2150
cur table: 2186
epoch: 1000
next table: 2001
cur table: 1999
epoch: 1000
next table: 1998
cur table: 2001
epoch: 1000
next table: 2214
cur table: 2150
epoch: 1000
next table: 2000
cur table: 1998
epoch: 1000
next table: 2280
cur table: 2214
epoch: 1000
next table: 2001
cur table: 2000
epoch: 1000
next table: 1999
cur table: 2001
epoch: 1000
next table: 2290
cur table: 2280
epoch: 1000
next table: 1998
cur table: 1999
epoch: 1000
next table: 1999
cur table: 1998
epoch: 1000
next table: 2303
cur table: 2290
epoch: 1000
next table: 1999
cur table: 1999
epoch: 1000
next table: 2000
cur table: 1999
epoch: 1000
next table: 2075
cur table: 2303
epoch: 1000
next table: 2001
cur table: 2000
epoch: 1000
next table: 2000
cur table: 2001
epoch: 1000
next table: 2505
cur table: 2075
epoch: 1000
next table: 1998
cur table: 2000
epoch: 1000
next table: 2001
cur table: 1998
epoch: 1000
next table: 2739
cur table: 2505
epoch: 1000
next table: 1999
cur table: 2001
epoch: 1000
next table: 2000
cur table: 1999
epoch: 1000
next table: 2001
cur table: 2000
epoch: 1000
next table: 2861
cur table: 2739
epoch: 1000
next table: 2000
cur table: 2001
epoch: 1000
next table: 2000
cur table: 2000
epoch: 1000
next table: 2848
cur table: 2861
epoch: 1000
next table: 1999
cur table: 2000
epoch: 1000
next table: 1998
cur table: 1999
epoch: 1000
next table: 2000
cur table: 1998
epoch: 1000
next table: 2699
cur table: 2848
epoch: 1000
next table: 2000
cur table: 2000
epoch: 1000
next table: 1999
cur table: 2000
epoch: 1000
next table: 2120
cur table: 2699
epoch: 1000
next table: 2001
cur table: 1999
epoch: 1000
next table: 2000
cur table: 2001
epoch: 1000
next table: 2052
cur table: 2120
epoch: 1000
next table: 1998
cur table: 2000
epoch: 1000
next table: 2000
cur table: 1998
epoch: 1000
next table: 2346
cur table: 2052
epoch: 1000
next table: 2001
cur table: 2000
epoch: 1000
next table: 2000
cur table: 2001
epoch: 1000
next table: 2516
cur table: 2346
epoch: 1000
next table: 2000
cur table: 2000
epoch: 1000
next table: 2000
cur table: 2000
epoch: 1000
next table: 2000
cur table: 2000
epoch: 1000
next table: 2578
cur table: 2516
epoch: 1000
next table: 1999
cur table: 2000
epoch: 1000
next table: 2001
cur table: 1999
epoch: 1000
next table: 1999
cur table: 2001
epoch: 1000
next table: 2574
cur table: 2578
epoch: 1000
next table: 2000
cur table: 1999
epoch: 1000
next table: 2000
cur table: 2000
epoch: 1000
next table: 2678
cur table: 2574
epoch: 1000
next table: 2001
cur table: 2000
epoch: 1000
next table: 1999
cur table: 2001
epoch: 1000
next table: 2257
cur table: 2678
epoch: 1000
next table: 2000
cur table: 1999
epoch: 1000
next table: 2020
cur table: 2257
epoch: 1000
next table: 2000
cur table: 2000
epoch: 1000
next table: 2000
cur table: 2000
epoch: 1000
next table: 2019
cur table: 2020
epoch: 1000
next table: 2001
cur table: 2000
epoch: 1000
next table: 2004
cur table: 2019
epoch: 1000
next table: 1999
cur table: 2001
epoch: 1000
next table: 2005
cur table: 2004
epoch: 1000
next table: 2000
cur table: 1999
epoch: 1000
next table: 2000
cur table: 2000
epoch: 1000
next table: 2032
cur table: 2005
epoch: 1000
next table: 2001
cur table: 2000
Heartbeat CPU 0 instructions: 20000002 cycles: 5694984 heartbeat IPC: 3.51244 cumulative IPC: 3.51186 (Simulation time: 0 hr 5 min 27 sec) 
epoch: 1000
next table: 2121
cur table: 2032
epoch: 1000
next table: 1999
cur table: 2001
epoch: 1000
next table: 1999
cur table: 1999
epoch: 1000
next table: 2185
cur table: 2121
epoch: 1000
next table: 2001
cur table: 1999
epoch: 1000
next table: 2000
cur table: 2001
epoch: 1000
next table: 2028
cur table: 2185
epoch: 1000
next table: 1999
cur table: 2000
epoch: 1000
next table: 1918
cur table: 2028
epoch: 1000
next table: 2000
cur table: 1999
epoch: 1000
next table: 2110
cur table: 1918
epoch: 1000
next table: 2000
cur table: 2000
epoch: 1000
next table: 1999
cur table: 2000
epoch: 1000
next table: 2021
cur table: 2110
epoch: 1000
next table: 1999
cur table: 1999
epoch: 1000
next table: 2040
cur table: 2021
epoch: 1000
next table: 2002
cur table: 1999
epoch: 1000
next table: 2000
cur table: 2002
epoch: 1000
next table: 1971
cur table: 2040
epoch: 1000
next table: 1999
cur table: 2000
epoch: 1000
next table: 2005
cur table: 1971
epoch: 1000
next table: 2000
cur table: 1999
epoch: 1000
next table: 1748
cur table: 2005
epoch: 1000
next table: 2001
cur table: 2000
epoch: 1000
next table: 1751
cur table: 1748
epoch: 1000
next table: 2000
cur table: 2001
epoch: 1000
next table: 1732
cur table: 1751
epoch: 1000
next table: 1999
cur table: 2000
epoch: 1000
next table: 1732
cur table: 1732
epoch: 1000
next table: 2000
cur table: 1999
epoch: 1000
next table: 1724
cur table: 1732
epoch: 1000
next table: 2001
cur table: 2000
epoch: 1000
next table: 1738
cur table: 1724
epoch: 1000
next table: 2000
cur table: 2001
epoch: 1000
next table: 1743
cur table: 1738
epoch: 1000
next table: 2009
cur table: 2000
epoch: 1000
next table: 1737
cur table: 1743
epoch: 1000
next table: 2014
cur table: 2009
epoch: 1000
next table: 1724
cur table: 1737
epoch: 1000
next table: 2014
cur table: 2014
epoch: 1000
next table: 1744
cur table: 1724
epoch: 1000
next table: 2013
cur table: 2014
epoch: 1000
next table: 1733
cur table: 1744
epoch: 1000
next table: 2012
cur table: 2013
epoch: 1000
next table: 1734
cur table: 1733
epoch: 1000
next table: 2013
cur table: 2012
epoch: 1000
next table: 1748
cur table: 1734
epoch: 1000
next table: 2014
cur table: 2013
epoch: 1000
next table: 1741
cur table: 1748
epoch: 1000
next table: 2002
cur table: 2014
epoch: 1000
next table: 1937
cur table: 1741
epoch: 1000
next table: 2001
cur table: 2002
epoch: 1000
next table: 1999
cur table: 2001
epoch: 1000
next table: 2104
cur table: 1937
epoch: 1000
next table: 2001
cur table: 1999
epoch: 1000
next table: 1973
cur table: 2104
epoch: 1000
next table: 2000
cur table: 2001
epoch: 1000
next table: 2000
cur table: 2000
epoch: 1000
next table: 2093
cur table: 1973
epoch: 1000
next table: 1999
cur table: 2000
epoch: 1000
next table: 2108
cur table: 2093
epoch: 1000
next table: 2000
cur table: 1999
epoch: 1000
next table: 1998
cur table: 2000
epoch: 1000
next table: 2172
cur table: 2108
epoch: 1000
next table: 2002
cur table: 1998
epoch: 1000
next table: 2210
cur table: 2172
epoch: 1000
next table: 1999
cur table: 2002
epoch: 1000
next table: 2001
cur table: 1999
epoch: 1000
next table: 2089
cur table: 2210
epoch: 1000
next table: 1999
cur table: 2001
epoch: 1000
next table: 2000
cur table: 1999
epoch: 1000
next table: 2221
cur table: 2089
epoch: 1000
next table: 2001
cur table: 2000
epoch: 1000
next table: 2090
cur table: 2221
epoch: 1000
next table: 1997
cur table: 2001
epoch: 1000
next table: 2001
cur table: 1997
epoch: 1000
next table: 1881
cur table: 2090
epoch: 1000
next table: 1999
cur table: 2001
epoch: 1000
next table: 1960
cur table: 1881
epoch: 1000
next table: 2001
cur table: 1999
epoch: 1000
next table: 2000
cur table: 2001
epoch: 1000
next table: 1937
cur table: 1960
epoch: 1000
next table: 2001
cur table: 2000
epoch: 1000
next table: 1998
cur table: 2001
epoch: 1000
next table: 2081
cur table: 1937
epoch: 1000
next table: 2000
cur table: 1998
epoch: 1000
next table: 1987
cur table: 2081
epoch: 1000
next table: 1999
cur table: 2000
epoch: 1000
next table: 2001
cur table: 1999
epoch: 1000
next table: 2041
cur table: 1987
epoch: 1000
next table: 2000
cur table: 2001
epoch: 1000
next table: 2000
cur table: 2000
epoch: 1000
next table: 2019
cur table: 2041
epoch: 1000
next table: 2000
cur table: 2000
epoch: 1000
next table: 1999
cur table: 2000
epoch: 1000
next table: 1940
cur table: 2019
epoch: 1000
next table: 2001
cur table: 1999
epoch: 1000
next table: 2035
cur table: 1940
epoch: 1000
next table: 1998
cur table: 2001
epoch: 1000
next table: 2001
cur table: 1998
epoch: 1000
next table: 2177
cur table: 2035
epoch: 1000
next table: 1999
cur table: 2001
epoch: 1000
next table: 2001
cur table: 1999
epoch: 1000
next table: 2169
cur table: 2177
epoch: 1000
next table: 1999
cur table: 2001
epoch: 1000
next table: 2109
cur table: 2169
epoch: 1000
next table: 2000
cur table: 1999
epoch: 1000
next table: 2000
cur table: 2000
epoch: 1000
next table: 2183
cur table: 2109
epoch: 1000
next table: 2000
cur table: 2000
epoch: 1000
next table: 2000
cur table: 2000
epoch: 1000
next table: 2200
cur table: 2183
epoch: 1000
next table: 2000
cur table: 2000
epoch: 1000
next table: 2264
cur table: 2200
epoch: 1000
next table: 1999
cur table: 2000
epoch: 1000
next table: 2002
cur table: 1999
epoch: 1000
next table: 2130
cur table: 2264
epoch: 1000
next table: 1999
cur table: 2002
epoch: 1000
next table: 2001
cur table: 1999
epoch: 1000
next table: 2331
cur table: 2130
epoch: 1000
next table: 1999
cur table: 2001
epoch: 1000
next table: 2247
cur table: 2331
epoch: 1000
next table: 2000
cur table: 1999
epoch: 1000
next table: 1999
cur table: 2000
epoch: 1000
next table: 2151
cur table: 2247
epoch: 1000
next table: 1998
cur table: 1999
epoch: 1000
next table: 2001
cur table: 1998
epoch: 1000
next table: 2251
cur table: 2151
epoch: 1000
next table: 2000
cur table: 2001
epoch: 1000
next table: 2195
cur table: 2251
epoch: 1000
next table: 1999
cur table: 2000
epoch: 1000
next table: 1999
cur table: 1999
epoch: 1000
next table: 2237
cur table: 2195
epoch: 1000
next table: 2003
cur table: 1999
epoch: 1000
next table: 1999
cur table: 2003
epoch: 1000
next table: 2178
cur table: 2237
epoch: 1000
next table: 2000
cur table: 1999
epoch: 1000
next table: 2197
cur table: 2178
epoch: 1000
next table: 1999
cur table: 2000
epoch: 1000
next table: 2001
cur table: 1999
epoch: 1000
next table: 2194
cur table: 2197
epoch: 1000
next table: 1999
cur table: 2001
epoch: 1000
next table: 2001
cur table: 1999
epoch: 1000
next table: 2225
cur table: 2194
epoch: 1000
next table: 2000
cur table: 2001
epoch: 1000
next table: 2181
cur table: 2225
epoch: 1000
next table: 2000
cur table: 2000
epoch: 1000
next table: 1999
cur table: 2000
epoch: 1000
next table: 2225
cur table: 2181
epoch: 1000
next table: 2000
cur table: 1999
epoch: 1000
next table: 2001
cur table: 2000
epoch: 1000
next table: 2224
cur table: 2225
epoch: 1000
next table: 1999
cur table: 2001
epoch: 1000
next table: 1977
cur table: 2224
epoch: 1000
next table: 2001
cur table: 1999
epoch: 1000
next table: 1979
cur table: 1977
epoch: 1000
next table: 1997
cur table: 2001
epoch: 1000
next table: 1998
cur table: 1997
epoch: 1000
next table: 2201
cur table: 1979
epoch: 1000
next table: 1998
cur table: 1998
epoch: 1000
next table: 2078
cur table: 2201
epoch: 1000
next table: 1999
cur table: 1998
epoch: 1000
next table: 2001
cur table: 1999
epoch: 1000
next table: 1999
cur table: 2001
epoch: 1000
next table: 2490
cur table: 2078
epoch: 1000
next table: 2000
cur table: 1999
epoch: 1000
next table: 2162
cur table: 2490
epoch: 1000
next table: 1999
cur table: 2000
epoch: 1000
next table: 2001
cur table: 1999
epoch: 1000
next table: 2086
cur table: 2162
epoch: 1000
next table: 1999
cur table: 2001
epoch: 1000
next table: 2159
cur table: 2086
epoch: 1000
next table: 2001
cur table: 1999
epoch: 1000
next table: 2000
cur table: 2001
epoch: 1000
next table: 2121
cur table: 2159
epoch: 1000
next table: 1999
cur table: 2000
epoch: 1000
next table: 2116
cur table: 2121
epoch: 1000
next table: 2001
cur table: 1999
epoch: 1000
next table: 1998
cur table: 2001
epoch: 1000
next table: 2144
cur table: 2116
epoch: 1000
next table: 2000
cur table: 1998
epoch: 1000
next table: 2000
cur table: 2000
epoch: 1000
next table: 1995
cur table: 2144
epoch: 1000
next table: 1999
cur table: 2000
epoch: 1000
next table: 2000
cur table: 1999
epoch: 1000
next table: 2021
cur table: 1995
epoch: 1000
next table: 2001
cur table: 2000
epoch: 1000
next table: 2034
cur table: 2021
epoch: 1000
next table: 2000
cur table: 2001
epoch: 1000
next table: 1999
cur table: 2000
epoch: 1000
next table: 2071
cur table: 2034
epoch: 1000
next table: 2000
cur table: 1999
epoch: 1000
next table: 2000
cur table: 2000
epoch: 1000
next table: 2022
cur table: 2071
epoch: 1000
next table: 2000
cur table: 2000
epoch: 1000
next table: 1999
cur table: 2000
epoch: 1000
next table: 2041
cur table: 2022
epoch: 1000
next table: 2000
cur table: 1999
epoch: 1000
next table: 2045
cur table: 2041
epoch: 1000
next table: 2000
cur table: 2000
epoch: 1000
next table: 2001
cur table: 2000
epoch: 1000
next table: 2255
cur table: 2045
epoch: 1000
next table: 1998
cur table: 2001
epoch: 1000
next table: 1999
cur table: 1998
epoch: 1000
next table: 2219
cur table: 2255
epoch: 1000
next table: 2000
cur table: 1999
epoch: 1000
next table: 2001
cur table: 2000
epoch: 1000
next table: 2519
cur table: 2219
epoch: 1000
next table: 4366
cur table: 2001
epoch: 1000
next table: 5161
cur table: 4366
epoch: 1000
next table: 2223
cur table: 2519
epoch: 1000
next table: 1999
cur table: 5161
epoch: 1000
next table: 2003
cur table: 1999
epoch: 1000
next table: 2368
cur table: 2223
epoch: 1000
next table: 1999
cur table: 2003
epoch: 1000
next table: 1999
cur table: 1999
epoch: 1000
next table: 2446
cur table: 2368
epoch: 1000
next table: 1999
cur table: 1999
epoch: 1000
next table: 2001
cur table: 1999
epoch: 1000
next table: 2412
cur table: 2446
epoch: 1000
next table: 2001
cur table: 2001
epoch: 1000
next table: 2000
cur table: 2001
epoch: 1000
next table: 2304
cur table: 2412
epoch: 1000
next table: 2000
cur table: 2000
epoch: 1000
next table: 1999
cur table: 2000
epoch: 1000
next table: 2170
cur table: 2304
epoch: 1000
next table: 2001
cur table: 1999
epoch: 1000
next table: 2000
cur table: 2001
epoch: 1000
next table: 2191
cur table: 2170
epoch: 1000
next table: 1999
cur table: 2000
epoch: 1000
next table: 1999
cur table: 1999
epoch: 1000
next table: 2178
cur table: 2191
epoch: 1000
next table: 1999
cur table: 1999
epoch: 1000
next table: 2002
cur table: 1999
epoch: 1000
next table: 2053
cur table: 2178
epoch: 1000
next table: 1998
cur table: 2002
epoch: 1000
next table: 2001
cur table: 1998
epoch: 1000
next table: 2226
cur table: 2053
epoch: 1000
next table: 2000
cur table: 2001
epoch: 1000
next table: 1999
cur table: 2000
epoch: 1000
next table: 2095
cur table: 2226
epoch: 1000
next table: 1999
cur table: 1999
epoch: 1000
next table: 1805
cur table: 2095
epoch: 1000
next table: 2000
cur table: 1999
epoch: 1000
next table: 1999
cur table: 2000
epoch: 1000
next table: 1795
cur table: 1805
epoch: 1000
next table: 2000
cur table: 1999
epoch: 1000
next table: 1820
cur table: 1795
epoch: 1000
next table: 2001
cur table: 2000
epoch: 1000
next table: 1832
cur table: 1820
epoch: 1000
next table: 1998
cur table: 2001
epoch: 1000
next table: 1806
cur table: 1832
epoch: 1000
next table: 2002
cur table: 1998
epoch: 1000
next table: 1790
cur table: 1806
epoch: 1000
next table: 1999
cur table: 2002
epoch: 1000
next table: 1997
cur table: 1999
epoch: 1000
next table: 1999
cur table: 1997
epoch: 1000
next table: 2843
cur table: 1790
epoch: 1000
next table: 1999
cur table: 1999
epoch: 1000
next table: 2000
cur table: 1999
epoch: 1000
next table: 2000
cur table: 2000
epoch: 1000
next table: 2842
cur table: 2843
epoch: 1000
next table: 2000
cur table: 2000
epoch: 1000
next table: 2000
cur table: 2000
epoch: 1000
next table: 2918
cur table: 2842
epoch: 1000
next table: 1999
cur table: 2000
epoch: 1000
next table: 2000
cur table: 1999
epoch: 1000
next table: 1999
cur table: 2000
epoch: 1000
next table: 2769
cur table: 2918
epoch: 1000
next table: 2000
cur table: 1999
epoch: 1000
next table: 2000
cur table: 2000
epoch: 1000
next table: 2000
cur table: 2000
epoch: 1000
next table: 3146
cur table: 2769
epoch: 1000
next table: 1999
cur table: 2000
epoch: 1000
next table: 1998
cur table: 1999
epoch: 1000
next table: 2000
cur table: 1998
epoch: 1000
next table: 3175
cur table: 3146
epoch: 1000
next table: 2000
cur table: 2000
epoch: 1000
next table: 1999
cur table: 2000
epoch: 1000
next table: 2001
cur table: 1999
epoch: 1000
next table: 1999
cur table: 2001
epoch: 1000
next table: 2976
cur table: 3175
epoch: 1000
next table: 1999
cur table: 1999
epoch: 1000
next table: 2000
cur table: 1999
epoch: 1000
next table: 2000
cur table: 2000
epoch: 1000
next table: 2000
cur table: 2000
epoch: 1000
next table: 2967
cur table: 2976
epoch: 1000
next table: 1999
cur table: 2000
epoch: 1000
next table: 2001
cur table: 1999
epoch: 1000
next table: 2001
cur table: 2001
epoch: 1000
next table: 2787
cur table: 2967
epoch: 1000
next table: 1999
cur table: 2001
epoch: 1000
next table: 2000
cur table: 1999
epoch: 1000
next table: 1998
cur table: 2000
epoch: 1000
next table: 2783
cur table: 2787
epoch: 1000
next table: 2002
cur table: 1998
epoch: 1000
next table: 1998
cur table: 2002
epoch: 1000
next table: 2564
cur table: 2783
epoch: 1000
next table: 2001
cur table: 1998
epoch: 1000
next table: 2000
cur table: 2001
epoch: 1000
next table: 2000
cur table: 2000
epoch: 1000
next table: 2589
cur table: 2564
epoch: 1000
next table: 2001
cur table: 2000
epoch: 1000
next table: 1938
cur table: 2589
epoch: 1000
next table: 1999
cur table: 2001
epoch: 1000
next table: 1776
cur table: 1938
epoch: 1000
next table: 2000
cur table: 1999
epoch: 1000
next table: 1750
cur table: 1776
epoch: 1000
next table: 2000
cur table: 2000
epoch: 1000
next table: 1769
cur table: 1750
epoch: 1000
next table: 1995
cur table: 2000
epoch: 1000
next table: 2000
cur table: 1995
epoch: 1000
next table: 2802
cur table: 1769
epoch: 1000
next table: 1998
cur table: 2000
epoch: 1000
next table: 1999
cur table: 1998
epoch: 1000
next table: 2000
cur table: 1999
epoch: 1000
next table: 2573
cur table: 2802
epoch: 1000
next table: 1999
cur table: 2000
epoch: 1000
next table: 2001
cur table: 1999
epoch: 1000
next table: 1999
cur table: 2001
epoch: 1000
next table: 3358
cur table: 2573
epoch: 1000
next table: 1999
cur table: 1999
epoch: 1000
next table: 2001
cur table: 1999
epoch: 1000
next table: 2000
cur table: 2001
epoch: 1000
next table: 3376
cur table: 3358
epoch: 1000
next table: 2000
cur table: 2000
epoch: 1000
next table: 1998
cur table: 2000
epoch: 1000
next table: 2022
cur table: 1998
epoch: 1000
next table: 2027
cur table: 2022
epoch: 1000
next table: 3802
cur table: 3376
epoch: 1000
next table: 2047
cur table: 2027
epoch: 1000
next table: 2022
cur table: 2047
epoch: 1000
next table: 2027
cur table: 2022
epoch: 1000
next table: 2010
cur table: 2027
epoch: 1000
next table: 2041
cur table: 2010
epoch: 1000
next table: 4488
cur table: 3802
epoch: 1000
next table: 2034
cur table: 2041
epoch: 1000
next table: 2049
cur table: 2034
epoch: 1000
next table: 2026
cur table: 2049
epoch: 1000
next table: 2032
cur table: 2026
epoch: 1000
next table: 2071
cur table: 2032
epoch: 1000
next table: 5278
cur table: 4488
epoch: 1000
next table: 2099
cur table: 2071
epoch: 1000
next table: 2089
cur table: 2099
epoch: 1000
next table: 2098
cur table: 2089
epoch: 1000
next table: 2076
cur table: 2098
epoch: 1000
next table: 2043
cur table: 2076
epoch: 1000
next table: 4799
cur table: 5278
epoch: 1000
next table: 2088
cur table: 2043
epoch: 1000
next table: 2069
cur table: 2088
epoch: 1000
next table: 2087
cur table: 2069
epoch: 1000
next table: 2079
cur table: 2087
epoch: 1000
next table: 2066
cur table: 2079
epoch: 1000
next table: 2096
cur table: 2066
epoch: 1000
next table: 5564
cur table: 4799
epoch: 1000
next table: 2007
cur table: 2096
epoch: 1000
next table: 1999
cur table: 2007
epoch: 1000
next table: 2000
cur table: 1999
epoch: 1000
next table: 2000
cur table: 2000
epoch: 1000
next table: 3086
cur table: 5564
epoch: 1000
next table: 2000
cur table: 2000
epoch: 1000
next table: 2000
cur table: 2000
epoch: 1000
next table: 2000
cur table: 2000
epoch: 1000
next table: 2810
cur table: 3086
epoch: 1000
next table: 2001
cur table: 2000
epoch: 1000
next table: 1998
cur table: 2001
epoch: 1000
next table: 2001
cur table: 1998
epoch: 1000
next table: 2832
cur table: 2810
epoch: 1000
next table: 1997
cur table: 2001
epoch: 1000
next table: 2000
cur table: 1997
epoch: 1000
next table: 1996
cur table: 2000
epoch: 1000
next table: 2000
cur table: 1996
epoch: 1000
next table: 3391
cur table: 2832
Heartbeat CPU 0 instructions: 30000001 cycles: 8545407 heartbeat IPC: 3.50825 cumulative IPC: 3.51066 (Simulation time: 0 hr 8 min 21 sec) 
epoch: 1000
next table: 1999
cur table: 2000
epoch: 1000
next table: 2001
cur table: 1999
epoch: 1000
next table: 1998
cur table: 2001
epoch: 1000
next table: 3283
cur table: 3391
epoch: 1000
next table: 2002
cur table: 1998
epoch: 1000
next table: 2000
cur table: 2002
epoch: 1000
next table: 2000
cur table: 2000
epoch: 1000
next table: 1998
cur table: 2000
epoch: 1000
next table: 2003
cur table: 1998
epoch: 1000
next table: 4240
cur table: 3283
epoch: 1000
next table: 1999
cur table: 2003
epoch: 1000
next table: 2000
cur table: 1999
epoch: 1000
next table: 2001
cur table: 2000
epoch: 1000
next table: 2000
cur table: 2001
epoch: 1000
next table: 4554
cur table: 4240
epoch: 1000
next table: 1998
cur table: 2000
epoch: 1000
next table: 1999
cur table: 1998
epoch: 1000
next table: 2000
cur table: 1999
epoch: 1000
next table: 2000
cur table: 2000
epoch: 1000
next table: 2001
cur table: 2000
epoch: 1000
next table: 2000
cur table: 2001
epoch: 1000
next table: 3979
cur table: 4554
epoch: 1000
next table: 2000
cur table: 2000
epoch: 1000
next table: 1998
cur table: 2000
epoch: 1000
next table: 1999
cur table: 1998
epoch: 1000
next table: 2001
cur table: 1999
epoch: 1000
next table: 3775
cur table: 3979
epoch: 1000
next table: 2000
cur table: 2001
epoch: 1000
next table: 2000
cur table: 2000
epoch: 1000
next table: 1999
cur table: 2000
epoch: 1000
next table: 2698
cur table: 3775
epoch: 1000
next table: 2001
cur table: 1999
epoch: 1000
next table: 2000
cur table: 2001
epoch: 1000
next table: 2472
cur table: 2698
epoch: 1000
next table: 1998
cur table: 2000
epoch: 1000
next table: 1998
cur table: 1998
epoch: 1000
next table: 1999
cur table: 1998
epoch: 1000
next table: 2503
cur table: 2472
epoch: 1000
next table: 2002
cur table: 1999
epoch: 1000
next table: 1999
cur table: 2002
epoch: 1000
next table: 2379
cur table: 2503
epoch: 1000
next table: 2000
cur table: 1999
epoch: 1000
next table: 2389
cur table: 2379
epoch: 1000
next table: 2000
cur table: 2000
epoch: 1000
next table: 1999
cur table: 2000
epoch: 1000
next table: 2349
cur table: 2389
epoch: 1000
next table: 2002
cur table: 1999
epoch: 1000
next table: 1999
cur table: 2002
epoch: 1000
next table: 2291
cur table: 2349
epoch: 1000
next table: 2000
cur table: 1999
epoch: 1000
next table: 1884
cur table: 2291
epoch: 1000
next table: 2001
cur table: 2000
epoch: 1000
next table: 1752
cur table: 1884
epoch: 1000
next table: 1999
cur table: 2001
epoch: 1000
next table: 2001
cur table: 1999
epoch: 1000
next table: 1744
cur table: 1752
epoch: 1000
next table: 1999
cur table: 2001
epoch: 1000
next table: 1749
cur table: 1744
epoch: 1000
next table: 2000
cur table: 1999
epoch: 1000
next table: 1747
cur table: 1749
epoch: 1000
next table: 2000
cur table: 2000
epoch: 1000
next table: 1735
cur table: 1747
epoch: 1000
next table: 1998
cur table: 2000
epoch: 1000
next table: 1641
cur table: 1735
epoch: 1000
next table: 1999
cur table: 1998
epoch: 1000
next table: 1793
cur table: 1641
epoch: 1000
next table: 2001
cur table: 1999
epoch: 1000
next table: 1751
cur table: 1793
epoch: 1000
next table: 1999
cur table: 2001
epoch: 1000
next table: 1768
cur table: 1751
epoch: 1000
next table: 2000
cur table: 1999
epoch: 1000
next table: 1784
cur table: 1768
epoch: 1000
next table: 2001
cur table: 2000
epoch: 1000
next table: 1778
cur table: 1784
epoch: 1000
next table: 2000
cur table: 2001
epoch: 1000
next table: 1750
cur table: 1778
epoch: 1000
next table: 2000
cur table: 2000
epoch: 1000
next table: 1751
cur table: 1750
epoch: 1000
next table: 1999
cur table: 2000
epoch: 1000
next table: 1764
cur table: 1751
epoch: 1000
next table: 2001
cur table: 1999
epoch: 1000
next table: 1785
cur table: 1764
epoch: 1000
next table: 1999
cur table: 2001
epoch: 1000
next table: 1753
cur table: 1785
epoch: 1000
next table: 1999
cur table: 1999
epoch: 1000
next table: 2032
cur table: 1753
epoch: 1000
next table: 1999
cur table: 1999
epoch: 1000
next table: 1998
cur table: 1999
epoch: 1000
next table: 2272
cur table: 2032
epoch: 1000
next table: 1998
cur table: 1998
epoch: 1000
next table: 5393
cur table: 1998
epoch: 1000
next table: 2164
cur table: 2272
epoch: 1000
next table: 2000
cur table: 5393
epoch: 1000
next table: 1998
cur table: 2000
epoch: 1000
next table: 2366
cur table: 2164
epoch: 1000
next table: 2000
cur table: 1998
epoch: 1000
next table: 1999
cur table: 2000
epoch: 1000
next table: 2431
cur table: 2366
epoch: 1000
next table: 1998
cur table: 1999
epoch: 1000
next table: 1999
cur table: 1998
epoch: 1000
next table: 2475
cur table: 2431
epoch: 1000
next table: 2000
cur table: 1999
epoch: 1000
next table: 2000
cur table: 2000
epoch: 1000
next table: 2386
cur table: 2475
epoch: 1000
next table: 2001
cur table: 2000
epoch: 1000
next table: 1999
cur table: 2001
epoch: 1000
next table: 2548
cur table: 2386
epoch: 1000
next table: 2001
cur table: 1999
epoch: 1000
next table: 2001
cur table: 2001
epoch: 1000
next table: 2263
cur table: 2548
epoch: 1000
next table: 1998
cur table: 2001
epoch: 1000
next table: 2001
cur table: 1998
epoch: 1000
next table: 2298
cur table: 2263
epoch: 1000
next table: 2000
cur table: 2001
epoch: 1000
next table: 2000
cur table: 2000
epoch: 1000
next table: 2000
cur table: 2000
epoch: 1000
next table: 2395
cur table: 2298
epoch: 1000
next table: 2000
cur table: 2000
epoch: 1000
next table: 2128
cur table: 2395
epoch: 1000
next table: 2000
cur table: 2000
epoch: 1000
next table: 2000
cur table: 2000
epoch: 1000
next table: 1999
cur table: 2000
epoch: 1000
next table: 2195
cur table: 2128
epoch: 1000
next table: 2001
cur table: 1999
epoch: 1000
next table: 2000
cur table: 2001
epoch: 1000
next table: 2210
cur table: 2195
epoch: 1000
next table: 2001
cur table: 2000
epoch: 1000
next table: 1998
cur table: 2001
epoch: 1000
next table: 2257
cur table: 2210
epoch: 1000
next table: 2001
cur table: 1998
epoch: 1000
next table: 1999
cur table: 2001
epoch: 1000
next table: 2214
cur table: 2257
epoch: 1000
next table: 2000
cur table: 1999
epoch: 1000
next table: 2000
cur table: 2000
epoch: 1000
next table: 2259
cur table: 2214
epoch: 1000
next table: 2000
cur table: 2000
epoch: 1000
next table: 2210
cur table: 2259
epoch: 1000
next table: 2000
cur table: 2000
epoch: 1000
next table: 2000
cur table: 2000
epoch: 1000
next table: 2266
cur table: 2210
epoch: 1000
next table: 2000
cur table: 2000
epoch: 1000
next table: 2000
cur table: 2000
epoch: 1000
next table: 2348
cur table: 2266
epoch: 1000
next table: 2000
cur table: 2000
epoch: 1000
next table: 2000
cur table: 2000
epoch: 1000
next table: 2325
cur table: 2348
epoch: 1000
next table: 1999
cur table: 2000
epoch: 1000
next table: 2000
cur table: 1999
epoch: 1000
next table: 2263
cur table: 2325
epoch: 1000
next table: 2002
cur table: 2000
epoch: 1000
next table: 1999
cur table: 2002
epoch: 1000
next table: 2459
cur table: 2263
epoch: 1000
next table: 2000
cur table: 1999
epoch: 1000
next table: 1999
cur table: 2000
epoch: 1000
next table: 2378
cur table: 2459
epoch: 1000
next table: 2001
cur table: 1999
epoch: 1000
next table: 1999
cur table: 2001
epoch: 1000
next table: 2615
cur table: 2378
epoch: 1000
next table: 2001
cur table: 1999
epoch: 1000
next table: 1999
cur table: 2001
epoch: 1000
next table: 2249
cur table: 2615
epoch: 1000
next table: 2000
cur table: 1999
epoch: 1000
next table: 2000
cur table: 2000
epoch: 1000
next table: 2297
cur table: 2249
epoch: 1000
next table: 2001
cur table: 2000
epoch: 1000
next table: 2205
cur table: 2297
epoch: 1000
next table: 1999
cur table: 2001
epoch: 1000
next table: 2000
cur table: 1999
epoch: 1000
next table: 2013
cur table: 2205
epoch: 1000
next table: 2000
cur table: 2000
epoch: 1000
next table: 2128
cur table: 2013
epoch: 1000
next table: 2000
cur table: 2000
epoch: 1000
next table: 1996
cur table: 2000
epoch: 1000
next table: 2177
cur table: 2128
epoch: 1000
next table: 1999
cur table: 1996
epoch: 1000
next table: 2281
cur table: 2177
epoch: 1000
next table: 2000
cur table: 1999
epoch: 1000
next table: 2002
cur table: 2000
epoch: 1000
next table: 2265
cur table: 2281
epoch: 1000
next table: 1998
cur table: 2002
epoch: 1000
next table: 1998
cur table: 1998
epoch: 1000
next table: 2487
cur table: 2265
epoch: 1000
next table: 2000
cur table: 1998
epoch: 1000
next table: 2000
cur table: 2000
epoch: 1000
next table: 2168
cur table: 2487
epoch: 1000
next table: 1999
cur table: 2000
epoch: 1000
next table: 2001
cur table: 1999
epoch: 1000
next table: 2173
cur table: 2168
epoch: 1000
next table: 2000
cur table: 2001
epoch: 1000
next table: 2266
cur table: 2173
epoch: 1000
next table: 1999
cur table: 2000
epoch: 1000
next table: 2001
cur table: 1999
epoch: 1000
next table: 2146
cur table: 2266
epoch: 1000
next table: 2000
cur table: 2001
epoch: 1000
next table: 2221
cur table: 2146
epoch: 1000
next table: 1996
cur table: 2000
epoch: 1000
next table: 2001
cur table: 1996
epoch: 1000
next table: 2075
cur table: 2221
epoch: 1000
next table: 1999
cur table: 2001
epoch: 1000
next table: 2000
cur table: 1999
epoch: 1000
next table: 2200
cur table: 2075
epoch: 1000
next table: 2000
cur table: 2000
epoch: 1000
next table: 2001
cur table: 2000
epoch: 1000
next table: 2000
cur table: 2001
epoch: 1000
next table: 2427
cur table: 2200
epoch: 1000
next table: 2001
cur table: 2000
epoch: 1000
next table: 2000
cur table: 2001
epoch: 1000
next table: 2450
cur table: 2427
epoch: 1000
next table: 2000
cur table: 2000
epoch: 1000
next table: 1999
cur table: 2000
epoch: 1000
next table: 2358
cur table: 2450
epoch: 1000
next table: 2001
cur table: 1999
epoch: 1000
next table: 2000
cur table: 2001
epoch: 1000
next table: 2236
cur table: 2358
epoch: 1000
next table: 2000
cur table: 2000
epoch: 1000
next table: 2000
cur table: 2000
epoch: 1000
next table: 2234
cur table: 2236
epoch: 1000
next table: 1999
cur table: 2000
epoch: 1000
next table: 1999
cur table: 1999
epoch: 1000
next table: 2145
cur table: 2234
epoch: 1000
next table: 2000
cur table: 1999
epoch: 1000
next table: 1999
cur table: 2000
epoch: 1000
next table: 2148
cur table: 2145
epoch: 1000
next table: 2000
cur table: 1999
epoch: 1000
next table: 2029
cur table: 2148
epoch: 1000
next table: 2002
cur table: 2000
epoch: 1000
next table: 1998
cur table: 2002
epoch: 1000
next table: 2017
cur table: 2029
epoch: 1000
next table: 2001
cur table: 1998
epoch: 1000
next table: 2018
cur table: 2017
epoch: 1000
next table: 2000
cur table: 2001
epoch: 1000
next table: 2000
cur table: 2000
epoch: 1000
next table: 1984
cur table: 2018
epoch: 1000
next table: 1999
cur table: 2000
epoch: 1000
next table: 1953
cur table: 1984
epoch: 1000
next table: 2000
cur table: 1999
epoch: 1000
next table: 1914
cur table: 1953
epoch: 1000
next table: 2001
cur table: 2000
epoch: 1000
next table: 2000
cur table: 2001
epoch: 1000
next table: 1938
cur table: 1914
epoch: 1000
next table: 2000
cur table: 2000
epoch: 1000
next table: 1980
cur table: 1938
epoch: 1000
next table: 2001
cur table: 2000
epoch: 1000
next table: 1828
cur table: 1980
epoch: 1000
next table: 1999
cur table: 2001
epoch: 1000
next table: 1983
cur table: 1828
epoch: 1000
next table: 2000
cur table: 1999
epoch: 1000
next table: 1997
cur table: 2000
epoch: 1000
next table: 2073
cur table: 1983
epoch: 1000
next table: 2000
cur table: 1997
epoch: 1000
next table: 2054
cur table: 2073
epoch: 1000
next table: 1999
cur table: 2000
epoch: 1000
next table: 2000
cur table: 1999
epoch: 1000
next table: 2154
cur table: 2054
epoch: 1000
next table: 1999
cur table: 2000
epoch: 1000
next table: 2000
cur table: 1999
epoch: 1000
next table: 2038
cur table: 2154
epoch: 1000
next table: 2001
cur table: 2000
epoch: 1000
next table: 2062
cur table: 2038
epoch: 1000
next table: 2000
cur table: 2001
epoch: 1000
next table: 2119
cur table: 2062
epoch: 1000
next table: 1999
cur table: 2000
epoch: 1000
next table: 2001
cur table: 1999
epoch: 1000
next table: 2086
cur table: 2119
epoch: 1000
next table: 2000
cur table: 2001
epoch: 1000
next table: 2147
cur table: 2086
epoch: 1000
next table: 2000
cur table: 2000
epoch: 1000
next table: 2000
cur table: 2000
epoch: 1000
next table: 2138
cur table: 2147
epoch: 1000
next table: 1996
cur table: 2000
epoch: 1000
next table: 2000
cur table: 1996
epoch: 1000
next table: 1986
cur table: 2138
epoch: 1000
next table: 2000
cur table: 2000
epoch: 1000
next table: 2000
cur table: 2000
epoch: 1000
next table: 2216
cur table: 1986
epoch: 1000
next table: 2000
cur table: 2000
epoch: 1000
next table: 1999
cur table: 2000
epoch: 1000
next table: 2132
cur table: 2216
epoch: 1000
next table: 2001
cur table: 1999
epoch: 1000
next table: 1999
cur table: 2001
epoch: 1000
next table: 2214
cur table: 2132
epoch: 1000
next table: 2001
cur table: 1999
epoch: 1000
next table: 2000
cur table: 2001
epoch: 1000
next table: 2300
cur table: 2214
epoch: 1000
next table: 2000
cur table: 2000
epoch: 1000
next table: 2000
cur table: 2000
epoch: 1000
next table: 2487
cur table: 2300
epoch: 1000
next table: 1999
cur table: 2000
epoch: 1000
next table: 2000
cur table: 1999
epoch: 1000
next table: 2001
cur table: 2000
epoch: 1000
next table: 2541
cur table: 2487
epoch: 1000
next table: 1999
cur table: 2001
epoch: 1000
next table: 2001
cur table: 1999
epoch: 1000
next table: 2503
cur table: 2541
epoch: 1000
next table: 1998
cur table: 2001
epoch: 1000
next table: 2002
cur table: 1998
epoch: 1000
next table: 2664
cur table: 2503
epoch: 1000
next table: 1999
cur table: 2002
epoch: 1000
next table: 2000
cur table: 1999
epoch: 1000
next table: 1999
cur table: 2000
epoch: 1000
next table: 2756
cur table: 2664
epoch: 1000
next table: 1999
cur table: 1999
epoch: 1000
next table: 2002
cur table: 1999
epoch: 1000
next table: 1999
cur table: 2002
epoch: 1000
next table: 2839
cur table: 2756
epoch: 1000
next table: 1998
cur table: 1999
epoch: 1000
next table: 2000
cur table: 1998
epoch: 1000
next table: 2810
cur table: 2839
epoch: 1000
next table: 1998
cur table: 2000
epoch: 1000
next table: 1999
cur table: 1998
epoch: 1000
next table: 2000
cur table: 1999
epoch: 1000
next table: 2654
cur table: 2810
epoch: 1000
next table: 2001
cur table: 2000
epoch: 1000
next table: 2000
cur table: 2001
epoch: 1000
next table: 2836
cur table: 2654
epoch: 1000
next table: 1998
cur table: 2000
epoch: 1000
next table: 2001
cur table: 1998
epoch: 1000
next table: 2346
cur table: 2836
epoch: 1000
next table: 2001
cur table: 2001
epoch: 1000
next table: 1998
cur table: 2001
epoch: 1000
next table: 2828
cur table: 2346
epoch: 1000
next table: 2001
cur table: 1998
epoch: 1000
next table: 2000
cur table: 2001
epoch: 1000
next table: 2000
cur table: 2000
epoch: 1000
next table: 2849
cur table: 2828
epoch: 1000
next table: 2003
cur table: 2000
epoch: 1000
next table: 1999
cur table: 2003
epoch: 1000
next table: 1999
cur table: 1999
epoch: 1000
next table: 3131
cur table: 2849
epoch: 1000
next table: 2001
cur table: 1999
epoch: 1000
next table: 2000
cur table: 2001
epoch: 1000
next table: 1999
cur table: 2000
epoch: 1000
next table: 1999
cur table: 1999
epoch: 1000
next table: 2871
cur table: 3131
epoch: 1000
next table: 2001
cur table: 1999
epoch: 1000
next table: 1999
cur table: 2001
epoch: 1000
next table: 2484
cur table: 2871
epoch: 1000
next table: 1999
cur table: 1999
epoch: 1000
next table: 2001
cur table: 1999
epoch: 1000
next table: 2439
cur table: 2484
epoch: 1000
next table: 2000
cur table: 2001
epoch: 1000
next table: 2000
cur table: 2000
epoch: 1000
next table: 1996
cur table: 2000
epoch: 1000
next table: 2574
cur table: 2439
epoch: 1000
next table: 2001
cur table: 1996
epoch: 1000
next table: 2000
cur table: 2001
epoch: 1000
next table: 2556
cur table: 2574
epoch: 1000
next table: 2003
cur table: 2000
epoch: 1000
next table: 5745
cur table: 2003
epoch: 1000
next table: 1999
cur table: 5745
epoch: 1000
next table: 3063
cur table: 2556
epoch: 1000
next table: 1999
cur table: 1999
epoch: 1000
next table: 1999
cur table: 1999
epoch: 1000
next table: 2000
cur table: 1999
epoch: 1000
next table: 2000
cur table: 2000
epoch: 1000
next table: 3908
cur table: 3063
epoch: 1000
next table: 1999
cur table: 2000
epoch: 1000
next table: 2002
cur table: 1999
epoch: 1000
next table: 1999
cur table: 2002
epoch: 1000
next table: 2001
cur table: 1999
epoch: 1000
next table: 4210
cur table: 3908
epoch: 1000
next table: 1997
cur table: 2001
epoch: 1000
next table: 2000
cur table: 1997
epoch: 1000
next table: 1999
cur table: 2000
epoch: 1000
next table: 2001
cur table: 1999
epoch: 1000
next table: 1999
cur table: 2001
epoch: 1000
next table: 3270
cur table: 4210
epoch: 1000
next table: 2000
cur table: 1999
Heartbeat CPU 0 instructions: 40000002 cycles: 11389400 heartbeat IPC: 3.51618 cumulative IPC: 3.51204 (Simulation time: 0 hr 11 min 6 sec) 
epoch: 1000
next table: 2002
cur table: 2000
epoch: 1000
next table: 1999
cur table: 2002
epoch: 1000
next table: 2000
cur table: 1999
epoch: 1000
next table: 3350
cur table: 3270
epoch: 1000
next table: 1999
cur table: 2000
epoch: 1000
next table: 2000
cur table: 1999
epoch: 1000
next table: 2001
cur table: 2000
epoch: 1000
next table: 2000
cur table: 2001
epoch: 1000
next table: 3283
cur table: 3350
epoch: 1000
next table: 2000
cur table: 2000
epoch: 1000
next table: 2000
cur table: 2000
epoch: 1000
next table: 2083
cur table: 3283
epoch: 1000
next table: 2000
cur table: 2000
epoch: 1000
next table: 1998
cur table: 2000
epoch: 1000
next table: 2135
cur table: 2083
epoch: 1000
next table: 1999
cur table: 1998
epoch: 1000
next table: 2000
cur table: 1999
epoch: 1000
next table: 2237
cur table: 2135
epoch: 1000
next table: 2001
cur table: 2000
epoch: 1000
next table: 2168
cur table: 2237
epoch: 1000
next table: 2000
cur table: 2001
epoch: 1000
next table: 2001
cur table: 2000
epoch: 1000
next table: 2208
cur table: 2168
epoch: 1000
next table: 1998
cur table: 2001
epoch: 1000
next table: 2001
cur table: 1998
epoch: 1000
next table: 2130
cur table: 2208
epoch: 1000
next table: 2001
cur table: 2001
epoch: 1000
next table: 2079
cur table: 2130
epoch: 1000
next table: 1999
cur table: 2001
epoch: 1000
next table: 2001
cur table: 1999
epoch: 1000
next table: 2319
cur table: 2079
epoch: 1000
next table: 1999
cur table: 2001
epoch: 1000
next table: 1997
cur table: 1999
epoch: 1000
next table: 2000
cur table: 1997
epoch: 1000
next table: 2818
cur table: 2319
epoch: 1000
next table: 2000
cur table: 2000
epoch: 1000
next table: 2000
cur table: 2000
epoch: 1000
next table: 1999
cur table: 2000
epoch: 1000
next table: 3107
cur table: 2818
epoch: 1000
next table: 2000
cur table: 1999
epoch: 1000
next table: 1999
cur table: 2000
epoch: 1000
next table: 2001
cur table: 1999
epoch: 1000
next table: 3462
cur table: 3107
epoch: 1000
next table: 2000
cur table: 2001
epoch: 1000
next table: 2000
cur table: 2000
epoch: 1000
next table: 2001
cur table: 2000
epoch: 1000
next table: 3463
cur table: 3462
epoch: 1000
next table: 2000
cur table: 2001
epoch: 1000
next table: 1998
cur table: 2000
epoch: 1000
next table: 1997
cur table: 1998
epoch: 1000
next table: 2000
cur table: 1997
epoch: 1000
next table: 3309
cur table: 3463
epoch: 1000
next table: 1998
cur table: 2000
epoch: 1000
next table: 2002
cur table: 1998
epoch: 1000
next table: 4163
cur table: 2002
epoch: 1000
next table: 3434
cur table: 3309
epoch: 1000
next table: 2002
cur table: 4163
epoch: 1000
next table: 2002
cur table: 2002
epoch: 1000
next table: 2004
cur table: 2002
epoch: 1000
next table: 1999
cur table: 2004
epoch: 1000
next table: 2000
cur table: 1999
epoch: 1000
next table: 4207
cur table: 3434
epoch: 1000
next table: 2000
cur table: 2000
epoch: 1000
next table: 2003
cur table: 2000
epoch: 1000
next table: 2001
cur table: 2003
epoch: 1000
next table: 2000
cur table: 2001
epoch: 1000
next table: 2004
cur table: 2000
epoch: 1000
next table: 5098
cur table: 4207
epoch: 1000
next table: 2003
cur table: 2004
epoch: 1000
next table: 1999
cur table: 2003
epoch: 1000
next table: 2000
cur table: 1999
epoch: 1000
next table: 2003
cur table: 2000
epoch: 1000
next table: 2002
cur table: 2003
epoch: 1000
next table: 3861
cur table: 5098
epoch: 1000
next table: 2000
cur table: 2002
epoch: 1000
next table: 2000
cur table: 2000
epoch: 1000
next table: 2004
cur table: 2000
epoch: 1000
next table: 2000
cur table: 2004
epoch: 1000
next table: 3449
cur table: 3861
epoch: 1000
next table: 2001
cur table: 2000
epoch: 1000
next table: 2000
cur table: 2001
epoch: 1000
next table: 2003
cur table: 2000
epoch: 1000
next table: 2001
cur table: 2003
epoch: 1000
next table: 4003
cur table: 3449
epoch: 1000
next table: 1999
cur table: 2001
epoch: 1000
next table: 2002
cur table: 1999
epoch: 1000
next table: 1998
cur table: 2002
epoch: 1000
next table: 2002
cur table: 1998
epoch: 1000
next table: 2000
cur table: 2002
epoch: 1000
next table: 4823
cur table: 4003
epoch: 1000
next table: 2003
cur table: 2000
epoch: 1000
next table: 2005
cur table: 2003
epoch: 1000
next table: 2002
cur table: 2005
epoch: 1000
next table: 1997
cur table: 2002
epoch: 1000
next table: 2002
cur table: 1997
epoch: 1000
next table: 2000
cur table: 2002
epoch: 1000
next table: 2003
cur table: 2000
epoch: 1000
next table: 5033
cur table: 4823
epoch: 1000
next table: 2001
cur table: 2003
epoch: 1000
next table: 1999
cur table: 2001
epoch: 1000
next table: 1998
cur table: 1999
epoch: 1000
next table: 3101
cur table: 5033
epoch: 1000
next table: 2000
cur table: 1998
epoch: 1000
next table: 1999
cur table: 2000
epoch: 1000
next table: 2000
cur table: 1999
epoch: 1000
next table: 2515
cur table: 3101
epoch: 1000
next table: 2001
cur table: 2000
epoch: 1000
next table: 1999
cur table: 2001
epoch: 1000
next table: 2432
cur table: 2515
epoch: 1000
next table: 1999
cur table: 1999
epoch: 1000
next table: 2001
cur table: 1999
epoch: 1000
next table: 2000
cur table: 2001
epoch: 1000
next table: 2390
cur table: 2432
epoch: 1000
next table: 1999
cur table: 2000
epoch: 1000
next table: 2001
cur table: 1999
epoch: 1000
next table: 2358
cur table: 2390
epoch: 1000
next table: 1999
cur table: 2001
epoch: 1000
next table: 2304
cur table: 2358
epoch: 1000
next table: 2001
cur table: 1999
epoch: 1000
next table: 1998
cur table: 2001
epoch: 1000
next table: 2244
cur table: 2304
epoch: 1000
next table: 2002
cur table: 1998
epoch: 1000
next table: 1999
cur table: 2002
epoch: 1000
next table: 2290
cur table: 2244
epoch: 1000
next table: 2000
cur table: 1999
epoch: 1000
next table: 2000
cur table: 2000
epoch: 1000
next table: 2232
cur table: 2290
epoch: 1000
next table: 2000
cur table: 2000
epoch: 1000
next table: 2209
cur table: 2232
epoch: 1000
next table: 2000
cur table: 2000
epoch: 1000
next table: 2000
cur table: 2000
epoch: 1000
next table: 1901
cur table: 2209
epoch: 1000
next table: 2000
cur table: 2000
epoch: 1000
next table: 1826
cur table: 1901
epoch: 1000
next table: 2001
cur table: 2000
epoch: 1000
next table: 1864
cur table: 1826
epoch: 1000
next table: 1998
cur table: 2001
epoch: 1000
next table: 1806
cur table: 1864
epoch: 1000
next table: 2000
cur table: 1998
epoch: 1000
next table: 1793
cur table: 1806
epoch: 1000
next table: 2000
cur table: 2000
epoch: 1000
next table: 1632
cur table: 1793
epoch: 1000
next table: 2000
cur table: 2000
epoch: 1000
next table: 1780
cur table: 1632
epoch: 1000
next table: 2001
cur table: 2000
epoch: 1000
next table: 1742
cur table: 1780
epoch: 1000
next table: 2000
cur table: 2001
epoch: 1000
next table: 1751
cur table: 1742
epoch: 1000
next table: 2000
cur table: 2000
epoch: 1000
next table: 1744
cur table: 1751
epoch: 1000
next table: 2000
cur table: 2000
epoch: 1000
next table: 1783
cur table: 1744
epoch: 1000
next table: 2000
cur table: 2000
epoch: 1000
next table: 1731
cur table: 1783
epoch: 1000
next table: 1999
cur table: 2000
epoch: 1000
next table: 1740
cur table: 1731
epoch: 1000
next table: 2001
cur table: 1999
epoch: 1000
next table: 1741
cur table: 1740
epoch: 1000
next table: 1999
cur table: 2001
epoch: 1000
next table: 2001
cur table: 1999
epoch: 1000
next table: 1766
cur table: 1741
epoch: 1000
next table: 1999
cur table: 2001
epoch: 1000
next table: 1729
cur table: 1766
epoch: 1000
next table: 2000
cur table: 1999
epoch: 1000
next table: 1751
cur table: 1729
epoch: 1000
next table: 2001
cur table: 2000
epoch: 1000
next table: 1729
cur table: 1751
epoch: 1000
next table: 1999
cur table: 2001
epoch: 1000
next table: 1727
cur table: 1729
epoch: 1000
next table: 2001
cur table: 1999
epoch: 1000
next table: 1753
cur table: 1727
epoch: 1000
next table: 1999
cur table: 2001
epoch: 1000
next table: 1743
cur table: 1753
epoch: 1000
next table: 2001
cur table: 1999
epoch: 1000
next table: 1732
cur table: 1743
epoch: 1000
next table: 2000
cur table: 2001
epoch: 1000
next table: 1737
cur table: 1732
epoch: 1000
next table: 2000
cur table: 2000
epoch: 1000
next table: 1740
cur table: 1737
epoch: 1000
next table: 1998
cur table: 2000
epoch: 1000
next table: 1727
cur table: 1740
epoch: 1000
next table: 2000
cur table: 1998
epoch: 1000
next table: 1741
cur table: 1727
epoch: 1000
next table: 2001
cur table: 2000
epoch: 1000
next table: 1742
cur table: 1741
epoch: 1000
next table: 2004
cur table: 2001
epoch: 1000
next table: 1736
cur table: 1742
epoch: 1000
next table: 2013
cur table: 2004
epoch: 1000
next table: 1743
cur table: 1736
epoch: 1000
next table: 2011
cur table: 2013
epoch: 1000
next table: 1744
cur table: 1743
epoch: 1000
next table: 2012
cur table: 2011
epoch: 1000
next table: 1742
cur table: 1744
epoch: 1000
next table: 2012
cur table: 2012
epoch: 1000
next table: 1696
cur table: 1742
epoch: 1000
next table: 2012
cur table: 2012
epoch: 1000
next table: 1751
cur table: 1696
epoch: 1000
next table: 2000
cur table: 2012
epoch: 1000
next table: 2017
cur table: 1751
epoch: 1000
next table: 1998
cur table: 2000
epoch: 1000
next table: 1943
cur table: 2017
epoch: 1000
next table: 2000
cur table: 1998
epoch: 1000
next table: 2000
cur table: 2000
epoch: 1000
next table: 1875
cur table: 1943
epoch: 1000
next table: 1998
cur table: 2000
epoch: 1000
next table: 1965
cur table: 1875
epoch: 1000
next table: 2000
cur table: 1998
epoch: 1000
next table: 2007
cur table: 1965
epoch: 1000
next table: 2000
cur table: 2000
epoch: 1000
next table: 2000
cur table: 2000
epoch: 1000
next table: 2100
cur table: 2007
epoch: 1000
next table: 2000
cur table: 2000
epoch: 1000
next table: 2027
cur table: 2100
epoch: 1000
next table: 1999
cur table: 2000
epoch: 1000
next table: 1935
cur table: 2027
epoch: 1000
next table: 2001
cur table: 1999
epoch: 1000
next table: 2000
cur table: 2001
epoch: 1000
next table: 2042
cur table: 1935
epoch: 1000
next table: 2000
cur table: 2000
epoch: 1000
next table: 1976
cur table: 2042
epoch: 1000
next table: 1999
cur table: 2000
epoch: 1000
next table: 1963
cur table: 1976
epoch: 1000
next table: 2001
cur table: 1999
epoch: 1000
next table: 2013
cur table: 2001
epoch: 1000
next table: 2179
cur table: 1963
epoch: 1000
next table: 2010
cur table: 2013
epoch: 1000
next table: 2013
cur table: 2010
epoch: 1000
next table: 2123
cur table: 2179
epoch: 1000
next table: 2003
cur table: 2013
epoch: 1000
next table: 2002
cur table: 2003
epoch: 1000
next table: 2519
cur table: 2123
epoch: 1000
next table: 2004
cur table: 2002
epoch: 1000
next table: 2109
cur table: 2519
epoch: 1000
next table: 2007
cur table: 2004
epoch: 1000
next table: 2005
cur table: 2007
epoch: 1000
next table: 2131
cur table: 2109
epoch: 1000
next table: 2012
cur table: 2005
epoch: 1000
next table: 2210
cur table: 2131
epoch: 1000
next table: 2007
cur table: 2012
epoch: 1000
next table: 2002
cur table: 2007
epoch: 1000
next table: 2140
cur table: 2210
epoch: 1000
next table: 2004
cur table: 2002
epoch: 1000
next table: 2133
cur table: 2140
epoch: 1000
next table: 2008
cur table: 2004
epoch: 1000
next table: 2008
cur table: 2008
epoch: 1000
next table: 2071
cur table: 2133
epoch: 1000
next table: 2001
cur table: 2008
epoch: 1000
next table: 2000
cur table: 2001
epoch: 1000
next table: 1801
cur table: 2071
epoch: 1000
next table: 2000
cur table: 2000
epoch: 1000
next table: 1851
cur table: 1801
epoch: 1000
next table: 2000
cur table: 2000
epoch: 1000
next table: 1999
cur table: 2000
epoch: 1000
next table: 1817
cur table: 1851
epoch: 1000
next table: 2000
cur table: 1999
epoch: 1000
next table: 1983
cur table: 1817
epoch: 1000
next table: 1999
cur table: 2000
epoch: 1000
next table: 2000
cur table: 1999
epoch: 1000
next table: 1879
cur table: 1983
epoch: 1000
next table: 1999
cur table: 2000
epoch: 1000
next table: 1953
cur table: 1879
epoch: 1000
next table: 2001
cur table: 1999
epoch: 1000
next table: 2000
cur table: 2001
epoch: 1000
next table: 1973
cur table: 1953
epoch: 1000
next table: 2000
cur table: 2000
epoch: 1000
next table: 1903
cur table: 1973
epoch: 1000
next table: 2000
cur table: 2000
epoch: 1000
next table: 2000
cur table: 2000
epoch: 1000
[...]
epoch: 1000
next table: 1999
cur table: 2002
epoch: 1000
next table: 2005
cur table: 1999
epoch: 1000
next table: 2576
cur table: 2661
epoch: 1000
next table: 2004
cur table: 2005
epoch: 1000
next table: 2000
cur table: 2004
epoch: 1000
next table: 2253
cur table: 2576
epoch: 1000
next table: 2003
cur table: 2000
epoch: 1000
next table: 1998
cur table: 2003
epoch: 1000
next table: 2211
cur table: 2253
epoch: 1000
next table: 2001
cur table: 1998
epoch: 1000
next table: 2003
cur table: 2001
epoch: 1000
next table: 2058
cur table: 2211
epoch: 1000
next table: 2000
cur table: 2003
epoch: 1000
next table: 2003
cur table: 2058
epoch: 1000
next table: 2002
cur table: 2000
epoch: 1000
next table: 1999
cur table: 2002
epoch: 1000
next table: 1987
cur table: 2003
epoch: 1000
next table: 1998
cur table: 1999
epoch: 1000
next table: 1982
cur table: 1987
epoch: 1000
next table: 2001
cur table: 1998
epoch: 1000
next table: 2002
cur table: 2001
epoch: 1000
next table: 1994
cur table: 1982
epoch: 1000
next table: 1998
cur table: 2002
epoch: 1000
next table: 2017
cur table: 1994
epoch: 1000
next table: 2000
cur table: 1998
epoch: 1000
next table: 1999
cur table: 2000
epoch: 1000
next table: 1984
cur table: 2017
epoch: 1000
next table: 2003
cur table: 1999
epoch: 1000
next table: 2022
cur table: 1984
epoch: 1000
next table: 1997
cur table: 2003
epoch: 1000
next table: 1998
cur table: 1997
epoch: 1000
next table: 2163
cur table: 2022
epoch: 1000
next table: 1999
cur table: 1998
epoch: 1000
next table: 2001
cur table: 1999
epoch: 1000
next table: 2220
cur table: 2163
epoch: 1000
next table: 2000
cur table: 2001
epoch: 1000
next table: 2167
cur table: 2220
epoch: 1000
next table: 1999
cur table: 2000
epoch: 1000
next table: 2003
cur table: 1999
epoch: 1000
next table: 2177
cur table: 2167
epoch: 1000
next table: 1998
cur table: 2003
epoch: 1000
next table: 2200
cur table: 2177
epoch: 1000
next table: 1999
cur table: 1998
epoch: 1000
next table: 1986
cur table: 2200
epoch: 1000
next table: 2001
cur table: 1999
epoch: 1000
next table: 1996
cur table: 2001
epoch: 1000
next table: 2238
cur table: 1986
epoch: 1000
next table: 1998
cur table: 1996
epoch: 1000
next table: 2002
cur table: 1998
epoch: 1000
next table: 2286
cur table: 2238
epoch: 1000
next table: 2000
cur table: 2002
epoch: 1000
next table: 2001
cur table: 2000
epoch: 1000
next table: 2369
cur table: 2286
epoch: 1000
next table: 2000
cur table: 2001
epoch: 1000
next table: 2212
cur table: 2369
epoch: 1000
next table: 2001
cur table: 2000
Heartbeat CPU 0 instructions: 100000001 cycles: 121003802 heartbeat IPC: 0.465606 cumulative IPC: 0.46833 (Simulation time: 0 hr 25 min 56 sec) 
Finished CPU 0 instructions: 50000003 cycles: 106762410 cumulative IPC: 0.46833 (Simulation time: 0 hr 25 min 56 sec) 

ChampSim completed all CPUs

Region of Interest Statistics

CPU 0 cumulative IPC: 0.46833 instructions: 50000003 cycles: 106762410
ITLB TOTAL     ACCESS:    7298773  HIT:    7298773  MISS:          0  HIT %:        100  MISS %:          0   MPKI: 0
ITLB LOAD TRANSLATION ACCESS:    7298773  HIT:    7298773  MISS:          0  HIT %:        100  MISS %:          0   MPKI: 0
ITLB PREFETCH  REQUESTED:          0  ISSUED:          0  USEFUL:          0  USELESS:          0
ITLB USEFUL LOAD PREFETCHES:          0 PREFETCH ISSUED TO LOWER LEVEL:          0  ACCURACY: -nan
ITLB TIMELY PREFETCHES:          0 LATE PREFETCHES: 0 DROPPED PREFETCHES: 0
ITLB PREFETCHES SAME FILL-ORIGIN LEVEL: 0 DIFFERENT FILL-ORIGIN LEVEL: 0
ITLB AVERAGE MISS LATENCY: -nan cycles
ITLB RQ	ACCESS:    8661175	FORWARD:          0	MERGED:    1362403	TO_CACHE:    7298772

Revised Interactions: positive negative neutral
ITLB_interactions 0 0 0 -nan -nan -nan
DTLB TOTAL     ACCESS:    8213461  HIT:    8191648  MISS:      21813  HIT %:    99.7344  MISS %:   0.265576   MPKI: 0.43626
DTLB LOAD TRANSLATION ACCESS:    8213461  HIT:    8191648  MISS:      21813  HIT %:    99.7344  MISS %:   0.265576   MPKI: 0.43626
DTLB PREFETCH  REQUESTED:          0  ISSUED:          0  USEFUL:          0  USELESS:          0
DTLB USEFUL LOAD PREFETCHES:          0 PREFETCH ISSUED TO LOWER LEVEL:          0  ACCURACY: -nan
DTLB TIMELY PREFETCHES:          0 LATE PREFETCHES: 0 DROPPED PREFETCHES: 0
DTLB PREFETCHES SAME FILL-ORIGIN LEVEL: 0 DIFFERENT FILL-ORIGIN LEVEL: 0
DTLB AVERAGE MISS LATENCY: 9.40329 cycles
DTLB RQ	ACCESS:    9340529	FORWARD:          0	MERGED:    1126986	TO_CACHE:    8213543

Revised Interactions: positive negative neutral
DTLB_interactions 0 0 0 -nan -nan -nan
STLB TOTAL     ACCESS:      21813  HIT:      21765  MISS:         48  HIT %:    99.7799  MISS %:   0.220052   MPKI: 0.00096
STLB LOAD TRANSLATION ACCESS:      21813  HIT:      21765  MISS:         48  HIT %:    99.7799  MISS %:   0.220052   MPKI: 0.00096
STLB PREFETCH  REQUESTED:          0  ISSUED:          0  USEFUL:          0  USELESS:          0
STLB USEFUL LOAD PREFETCHES:          0 PREFETCH ISSUED TO LOWER LEVEL:          0  ACCURACY: -nan
STLB TIMELY PREFETCHES:          0 LATE PREFETCHES: 0 DROPPED PREFETCHES: 0
STLB PREFETCHES SAME FILL-ORIGIN LEVEL: 0 DIFFERENT FILL-ORIGIN LEVEL: 0
STLB AVERAGE MISS LATENCY: 183.271 cycles
STLB RQ	ACCESS:      21813	FORWARD:          0	MERGED:          0	TO_CACHE:      21813

Revised Interactions: positive negative neutral
STLB_interactions 0 0 0 -nan -nan -nan
STLB Hit, L1D data hit: 0
STLB Hit, L2C data hit: 0
STLB Hit, LLC data hit: 0
STLB Hit, LLC data miss: 0
STLB STLB hints to L2: 0
L1D TOTAL     ACCESS:    9322401  HIT:    8067356  MISS:    1255045  HIT %:    86.5373  MISS %:    13.4627   MPKI: 25.1009
L1D LOAD      ACCESS:    8437731  HIT:    7182686  MISS:    1255045  HIT %:    85.1258  MISS %:    14.8742   MPKI: 25.1009
L1D RFO       ACCESS:     884670  HIT:     884670  MISS:          0  HIT %:        100  MISS %:          0   MPKI: 0
L1D PREFETCH  REQUESTED:          0  ISSUED:          0  USEFUL:          0  USELESS:          0
L1D USEFUL LOAD PREFETCHES:          0 PREFETCH ISSUED TO LOWER LEVEL:          0  ACCURACY: -nan
L1D TIMELY PREFETCHES:          0 LATE PREFETCHES: 0 DROPPED PREFETCHES: 0
L1D PREFETCHES SAME FILL-ORIGIN LEVEL: 0 DIFFERENT FILL-ORIGIN LEVEL: 0
L1D AVERAGE MISS LATENCY: 39.1867 cycles
L1D RQ	ACCESS:   14947555	FORWARD:          0	MERGED:    6491697	TO_CACHE:    8455858
L1D WQ	ACCESS:     884671	FORWARD:          0	MERGED:          0	TO_CACHE:     884671

Revised Interactions: positive negative neutral
L1D_interactions 0 0 0 -nan -nan -nan
L1D UNIQUE REGIONS ACCESSED: 0
L1D REGIONS CONFLICTS: 0
L1D Cross Page Prefetch Requests: 0
L1D Same Page Prefetch Requests: 0
L1D ROI Sum of L1D PQ occupancy: 0
L1D PREFETCHES PUSHED FROM L2C: 0
L1I TOTAL     ACCESS:    8661176  HIT:    8661176  MISS:          0  HIT %:        100  MISS %:          0   MPKI: 0
L1I LOAD      ACCESS:    8661176  HIT:    8661176  MISS:          0  HIT %:        100  MISS %:          0   MPKI: 0
L1I PREFETCH  REQUESTED:          0  ISSUED:          0  USEFUL:          0  USELESS:          0
L1I USEFUL LOAD PREFETCHES:          0 PREFETCH ISSUED TO LOWER LEVEL:          0  ACCURACY: -nan
L1I TIMELY PREFETCHES:          0 LATE PREFETCHES: 0 DROPPED PREFETCHES: 0
L1I PREFETCHES SAME FILL-ORIGIN LEVEL: 0 DIFFERENT FILL-ORIGIN LEVEL: 0
L1I AVERAGE MISS LATENCY: -nan cycles
L1I RQ	ACCESS:   15870163	FORWARD:          0	MERGED:    7208988	TO_CACHE:    8661175

Revised Interactions: positive negative neutral
L1I_interactions 0 0 0 -nan -nan -nan
BTB TOTAL     ACCESS:    8700373  HIT:    8700356  MISS:         17  HIT %:    99.9998  MISS %: 0.000195394   MPKI: 0.00034
BTB BRANCH_DIRECT_JUMP	ACCESS:         32  HIT:         31  MISS:          1
BTB BRANCH_INDIRECT	ACCESS:          0  HIT:          0  MISS:          0
BTB BRANCH_CONDITIONAL	ACCESS:    7815901  HIT:    7815892  MISS:          9
BTB BRANCH_DIRECT_CALL	ACCESS:     221126  HIT:     221124  MISS:          2
BTB BRANCH_INDIRECT_CALL	ACCESS:     221094  HIT:     221093  MISS:          1
BTB BRANCH_RETURN	ACCESS:     442220  HIT:     442216  MISS:          4
BTB BRANCH_OTHER ACCESS:          0  HIT:          0  MISS:          0

L2C TOTAL     ACCESS:    1636726  HIT:     400152  MISS:    1236574  HIT %:    24.4483  MISS %:    75.5517   MPKI: 24.7315
L2C LOAD      ACCESS:    1255045  HIT:     301665  MISS:     953380  HIT %:    24.0362  MISS %:    75.9638   MPKI: 19.0676
L2C DATA LOAD MPKI: 19.0676
L2C INSTRUCTION LOAD MPKI: 0
L2C PREFETCH  ACCESS:     381601  HIT:      98438  MISS:     283163  HIT %:    25.7961  MISS %:    74.2039   MPKI: 5.66326
L2C DATA PREFETCH MPKI: 5.66326
L2C INSTRUCTION PREFETCH MPKI: 0
L2C WRITEBACK ACCESS:         32  HIT:         32  MISS:          0  HIT %:        100  MISS %:          0   MPKI: 0
L2C LOAD TRANSLATION ACCESS:         48  HIT:         17  MISS:         31  HIT %:    35.4167  MISS %:    64.5833   MPKI: 0.00062
L2C PREFETCH  REQUESTED:    9147113  ISSUED:    9146533  USEFUL:     282592  USELESS:        565
L2C USEFUL LOAD PREFETCHES:     282592 PREFETCH ISSUED TO LOWER LEVEL:    5745446  ACCURACY: 4.91854
L2C TIMELY PREFETCHES:     282592 LATE PREFETCHES: 133562 DROPPED PREFETCHES: 0
L2C PREFETCHES SAME FILL-ORIGIN LEVEL: 416724 DIFFERENT FILL-ORIGIN LEVEL: 5328722
L2C AVERAGE MISS LATENCY: 32.3621 cycles
L2C RQ	ACCESS:    1255093	FORWARD:          0	MERGED:          0	TO_CACHE:    1255093
L2C WQ	ACCESS:         32	FORWARD:          0	MERGED:          0	TO_CACHE:         32
L2C PQ	ACCESS:    9146533	FORWARD:          0	MERGED:    2896961	TO_CACHE:    6249572

Revised Interactions: positive negative neutral
L2C_interactions 281750 627 959 99.4402 0.221292 0.338467
L2C Instructions Evicting Data 0
L2C Translations Evicting Data 31
L2C Data Evicting Data 1236512
L2C Instructions Evicting Instructions 0
L2C Translations Evicting Instructions 0
L2C Data Evicting Instructions 0
L2C Instructions Evicting Translations 0
L2C Translations Evicting Translations 0
L2C Data Evicting Translations 31
L2C Dense regions hint from L2: 0
PSCL5 TOTAL     ACCESS:         48  HIT:         48  MISS:          0  HIT %:        100  MISS %:          0   MPKI: 0
PSCL5 LOAD TRANSLATION ACCESS:         48  HIT:         48  MISS:          0  HIT %:        100  MISS %:          0   MPKI: 0
PSCL5 PREFETCH  REQUESTED:          0  ISSUED:          0  USEFUL:          0  USELESS:          0
PSCL5 USEFUL LOAD PREFETCHES:          0 PREFETCH ISSUED TO LOWER LEVEL:          0  ACCURACY: -nan
PSCL5 TIMELY PREFETCHES:          0 LATE PREFETCHES: 0 DROPPED PREFETCHES: 0
PSCL5 PREFETCHES SAME FILL-ORIGIN LEVEL: 0 DIFFERENT FILL-ORIGIN LEVEL: 0

Revised Interactions: positive negative neutral
PSCL5_interactions 0 0 0 -nan -nan -nan
PSCL4 TOTAL     ACCESS:         48  HIT:         48  MISS:          0  HIT %:        100  MISS %:          0   MPKI: 0
PSCL4 LOAD TRANSLATION ACCESS:         48  HIT:         48  MISS:          0  HIT %:        100  MISS %:          0   MPKI: 0
PSCL4 PREFETCH  REQUESTED:          0  ISSUED:          0  USEFUL:          0  USELESS:          0
PSCL4 USEFUL LOAD PREFETCHES:          0 PREFETCH ISSUED TO LOWER LEVEL:          0  ACCURACY: -nan
PSCL4 TIMELY PREFETCHES:          0 LATE PREFETCHES: 0 DROPPED PREFETCHES: 0
PSCL4 PREFETCHES SAME FILL-ORIGIN LEVEL: 0 DIFFERENT FILL-ORIGIN LEVEL: 0

Revised Interactions: positive negative neutral
PSCL4_interactions 0 0 0 -nan -nan -nan
PSCL3 TOTAL     ACCESS:         48  HIT:         48  MISS:          0  HIT %:        100  MISS %:          0   MPKI: 0
PSCL3 LOAD TRANSLATION ACCESS:         48  HIT:         48  MISS:          0  HIT %:        100  MISS %:          0   MPKI: 0
PSCL3 PREFETCH  REQUESTED:          0  ISSUED:          0  USEFUL:          0  USELESS:          0
PSCL3 USEFUL LOAD PREFETCHES:          0 PREFETCH ISSUED TO LOWER LEVEL:          0  ACCURACY: -nan
PSCL3 TIMELY PREFETCHES:          0 LATE PREFETCHES: 0 DROPPED PREFETCHES: 0
PSCL3 PREFETCHES SAME FILL-ORIGIN LEVEL: 0 DIFFERENT FILL-ORIGIN LEVEL: 0

Revised Interactions: positive negative neutral
PSCL3_interactions 0 0 0 -nan -nan -nan
PSCL2 TOTAL     ACCESS:         48  HIT:         48  MISS:          0  HIT %:        100  MISS %:          0   MPKI: 0
PSCL2 LOAD TRANSLATION ACCESS:         48  HIT:         48  MISS:          0  HIT %:        100  MISS %:          0   MPKI: 0
PSCL2 PREFETCH  REQUESTED:          0  ISSUED:          0  USEFUL:          0  USELESS:          0
PSCL2 USEFUL LOAD PREFETCHES:          0 PREFETCH ISSUED TO LOWER LEVEL:          0  ACCURACY: -nan
PSCL2 TIMELY PREFETCHES:          0 LATE PREFETCHES: 0 DROPPED PREFETCHES: 0
PSCL2 PREFETCHES SAME FILL-ORIGIN LEVEL: 0 DIFFERENT FILL-ORIGIN LEVEL: 0

Revised Interactions: positive negative neutral
PSCL2_interactions 0 0 0 -nan -nan -nan
LLC TOTAL     ACCESS:    6026935  HIT:    5327549  MISS:     699386  HIT %:    88.3957  MISS %:    11.6043   MPKI: 13.9877
LLC LOAD      ACCESS:     819818  HIT:     756743  MISS:      63075  HIT %:    92.3062  MISS %:    7.69378   MPKI: 1.2615
LLC PREFETCH  ACCESS:    5207057  HIT:    4570759  MISS:     636298  HIT %:    87.7801  MISS %:    12.2199   MPKI: 12.726
LLC WRITEBACK ACCESS:         29  HIT:         29  MISS:          0  HIT %:        100  MISS %:          0   MPKI: 0
LLC LOAD TRANSLATION ACCESS:         31  HIT:         18  MISS:         13  HIT %:    58.0645  MISS %:    41.9355   MPKI: 0.00026
LLC PREFETCH  REQUESTED:          0  ISSUED:          0  USEFUL:     576385  USELESS:      62502
LLC USEFUL LOAD PREFETCHES:     576385 PREFETCH ISSUED TO LOWER LEVEL:     666331  ACCURACY: 86.5013
LLC TIMELY PREFETCHES:     576385 LATE PREFETCHES: 30030 DROPPED PREFETCHES: 0
LLC PREFETCHES SAME FILL-ORIGIN LEVEL: 660644 DIFFERENT FILL-ORIGIN LEVEL: 0
LLC AVERAGE MISS LATENCY: 76.2806 cycles
LLC RQ	ACCESS:     819849	FORWARD:          0	MERGED:          0	TO_CACHE:     819849
LLC WQ	ACCESS:         29	FORWARD:          0	MERGED:          0	TO_CACHE:         29
LLC PQ	ACCESS:    5745446	FORWARD:          0	MERGED:      70270	TO_CACHE:    5675176

Revised Interactions: positive negative neutral
LLC_interactions 465336 166478 5690 72.9934 26.114 0.892543
LLC Dense regions hint to LLC: 0

RAW hits: 0
Loads Generated: 14947555
Loads sent to L1D: 14947555
Stores Generated: 884670
Stores sent to L1D: 884671
Major fault: 0 Minor fault: 1351
Allocated PAGES: 1351
 All Calls: 2513049
 Critical Calls: 2513049
------------------
Depth Distribution
------------------
depth 0: 0
depth 1: 2512045
depth 2: 2412475
depth 3: 2307742
depth 4: 2182930
depth 5: 2028991
depth 6: 1855272
depth 7: 1716578
depth 8: 1551524
depth 9: 1338089
depth 10: 956038
depth 11: 512173
depth 12: 169779
depth 13: 33436
depth 14: 1991
depth 15: 909
depth 16: 1
depth 17: 0
depth 18: 0
depth 19: 0
depth 20: 0
depth 21: 0
depth 22: 0
depth 23: 0
depth 24: 0
depth 25: 0
depth 26: 0
depth 27: 0
depth 28: 0
depth 29: 0
Total: 19579973
-----------------------------
-----------------------------
	Captured at Filter
-----------------------------
depth 0: 0
depth 1: 53724
depth 2: 42203
depth 3: 24706
depth 4: 16782
depth 5: 12997
depth 6: 11960
depth 7: 11017
depth 8: 9923
depth 9: 8632
depth 10: 6307
depth 11: 3439
depth 12: 1134
depth 13: 208
depth 14: 12
depth 15: 7
depth 16: 0
depth 17: 0
depth 18: 0
depth 19: 0
depth 20: 0
depth 21: 0
depth 22: 0
depth 23: 0
depth 24: 0
depth 25: 0
depth 26: 0
depth 27: 0
depth 28: 0
depth 29: 0
-----------------------------
-----------------------------
		Lost at Page
-----------------------------
depth 0: 0
depth 1: 62440
depth 2: 90958
depth 3: 128037
depth 4: 162072
depth 5: 194190
depth 6: 219117
depth 7: 242794
depth 8: 258183
depth 9: 263084
depth 10: 227043
depth 11: 148219
depth 12: 59349
depth 13: 14018
depth 14: 804
depth 15: 288
depth 16: 0
depth 17: 0
depth 18: 0
depth 19: 0
depth 20: 0
depth 21: 0
depth 22: 0
depth 23: 0
depth 24: 0
depth 25: 0
depth 26: 0
depth 27: 0
depth 28: 0
depth 29: 0
-----------------------------
-----------------------------
	Lost due to PQ Size
-----------------------------
214036
-----------------------------
ST read accesses: 1233944
ST write accesses: 21101
PT read accesses: 57027530
PT write accesses: 1847951
FILTER read accesses: 11768157
FILTER write accesses: 2506965
GHR read accesses: 6122394
GHR write accesses: 974917
GHR counter read accesses: 47641974
GHR counter write accesses: 2522325
ST tag read accesses: 493137573
ST tag write accesses: 6804955

DRAM Statistics
 CHANNEL 0
 RQ ROW_BUFFER_HIT:     663957  ROW_BUFFER_MISS:      35429
 DBUS_CONGESTED:          0
 WQ ROW_BUFFER_HIT:          0  ROW_BUFFER_MISS:          3  FULL:          0

 AVG_CONGESTED_CYCLE: -
 All warmup complete: 2
Channel 0 Bank busy for read cycles: 0
Channel 0 Bank busy for write cycles: 0
Channel 0
Rank 0
0banks busy for read cycles: 85849743
0banks busy for write cycles: 3
1banks busy for read cycles: 11428467
1banks busy for write cycles: 450
2banks busy for read cycles: 5045967
2banks busy for write cycles: 0
3banks busy for read cycles: 2330455
3banks busy for write cycles: 0
4banks busy for read cycles: 1165604
4banks busy for write cycles: 0
5banks busy for read cycles: 519381
5banks busy for write cycles: 0
6banks busy for read cycles: 253027
6banks busy for write cycles: 0
7banks busy for read cycles: 131310
7banks busy for write cycles: 0
8banks busy for read cycles: 38004
8banks busy for write cycles: 0

CPU 0 Branch Prediction Accuracy: 95.208% MPKI: 13.2663 Average ROB Occupancy at Mispredict: 41.2689
Branch types
NOT_BRANCH: 36157668 72.3153%
BRANCH_DIRECT_JUMP: 32 6.4e-05%
BRANCH_INDIRECT: 0 0%
BRANCH_CONDITIONAL: 12957531 25.9151%
BRANCH_DIRECT_CALL: 221126 0.442252%
BRANCH_INDIRECT_CALL: 221094 0.442188%
BRANCH_RETURN: 442220 0.88444%
BRANCH_OTHER: 0 0%

@sumon_overall_L1D         0         0         0         0         0         0         0
@Sumon_Early_by_class_L1D         0         0         0         0
@Sumon_Late_by_class_L1D         0         0         0         0

@Sumon_Early_by_cycle_L1D         0         0         0         0         0         0         0         0         0         0         0         0
@Sumon_Late_by_cycle_L1D         0         0         0         0         0         0
@Sumon_Early_stream_L1D         0         0         0         0         0         0         0         0         0         0         0         0
@Sumon_Early_CS_L1D         0         0         0         0         0         0         0         0         0         0         0         0
@Sumon_Early_CPLX_L1D         0         0         0         0         0         0         0         0         0         0         0         0
@Sumon_Late_stream_L1D         0         0         0         0         0         0
@Sumon_Late_CS_L1D         0         0         0         0         0         0
@Sumon_Late_CPLX_L1D         0         0         0         0         0         0
@sumon_overall_L2C    282592    133562         0       565    283163   9146533   9147113
@Sumon_Early_by_class_L2C         0         0         0         0
@Sumon_Late_by_class_L2C         0         0         0         0

@Sumon_Early_by_cycle_L2C    143227      2654    127976       178         1         2      8218       216        22        46         0        52
@Sumon_Late_by_cycle_L2C     71352     34895     26251       754       310         0
@Sumon_Early_stream_L2C         0         0         0         0         0         0         0         0         0         0         0         0
@Sumon_Early_CS_L2C         0         0         0         0         0         0         0         0         0         0         0         0
@Sumon_Early_CPLX_L2C         0         0         0         0         0         0         0         0         0         0         0         0
@Sumon_Late_stream_L2C         0         0         0         0         0         0
@Sumon_Late_CS_L2C         0         0         0         0         0         0
@Sumon_Late_CPLX_L2C         0         0         0         0         0         0
DRAM PAGES: 1048576
Allocated PAGES: 1351
