Initialize SIGNATURE TABLE
ST_SET: 1
ST_WAY: 256
ST_TAG_BIT: 16
ST_TAG_MASK: ffff

Initialize PATTERN TABLE
PT_SET: 512
PT_WAY: 4
SIG_DELTA_BIT: 7
C_SIG_BIT: 4
C_DELTA_BIT: 4

Initialize PREFETCH FILTER
FILTER_SET: 1024

*** ChampSim Multicore Out-of-Order Simulator ***

Warmup Instructions: 50000000
Simulation Instructions: 50000000
Number of CPUs: 1
LLC sets: 2048
LLC ways: 16
Off-chip DRAM Size: 4096 MB Channels: 1 Width: 64-bit Data Rate: 6400 MT/s
CPU 0 runs ../../biswa/SPEC2017Traces/654.roms_s-1390B.champsimtrace.xz
.xz
CPU 0 Bimodal branch predictor
BTB has LRU replacement policy
ITLB has LRU replacement policy
DTLB has LRU replacement policy
STLB has LRU replacement policy
L1I has LRU replacement policy
L1D has LRU replacement policy
ST_WAYS: 256
PT_SETS: 512
Initialize DRRIP state for L2C
Initialize Hawkeye state
epoch: 1000
next table: 2194
cur table: 10107
epoch: 1000
next table: 2032
cur table: 2194
epoch: 1000
next table: 2021
cur table: 2032
epoch: 1000
next table: 2021
cur table: 2021
epoch: 1000
next table: 2016
cur table: 2021
epoch: 1000
next table: 2018
cur table: 2016
epoch: 1000
next table: 2015
cur table: 2018
epoch: 1000
next table: 2011
cur table: 2015
epoch: 1000
next table: 2013
cur table: 2011
epoch: 1000
next table: 2010
cur table: 2013
epoch: 1000
next table: 2018
cur table: 2010
epoch: 1000
next table: 2014
cur table: 2018
epoch: 1000
next table: 2011
cur table: 2014
epoch: 1000
next table: 2012
cur table: 2011
epoch: 1000
next table: 2017
cur table: 2012
epoch: 1000
next table: 2018
cur table: 2017
epoch: 1000
next table: 2010
cur table: 2018
epoch: 1000
next table: 2014
cur table: 2010
epoch: 1000
next table: 2014
cur table: 2014
epoch: 1000
next table: 2014
cur table: 2014
epoch: 1000
next table: 2015
cur table: 2014
epoch: 1000
next table: 2014
cur table: 2015
epoch: 1000
next table: 2284
cur table: 12195
epoch: 1000
next table: 2012
cur table: 2014
epoch: 1000
next table: 2012
cur table: 2012
epoch: 1000
next table: 1572
cur table: 2284
epoch: 1000
next table: 2012
cur table: 2012
epoch: 1000
next table: 1499
cur table: 1572
epoch: 1000
next table: 2014
cur table: 2012
epoch: 1000
next table: 1476
cur table: 1499
epoch: 1000
next table: 2017
cur table: 2014
epoch: 1000
next table: 1381
cur table: 1476
epoch: 1000
next table: 2015
cur table: 2017
epoch: 1000
next table: 1378
cur table: 1381
epoch: 1000
next table: 2012
cur table: 2015
epoch: 1000
next table: 1392
cur table: 1378
epoch: 1000
next table: 2016
cur table: 2012
epoch: 1000
next table: 1364
cur table: 1392
epoch: 1000
next table: 2015
cur table: 2016
epoch: 1000
next table: 1361
cur table: 1364
epoch: 1000
next table: 2016
cur table: 2015
epoch: 1000
next table: 1371
cur table: 1361
epoch: 1000
next table: 2016
cur table: 2016
epoch: 1000
next table: 1384
cur table: 1371
epoch: 1000
next table: 2015
cur table: 2016
epoch: 1000
next table: 1371
cur table: 1384
epoch: 1000
next table: 2017
cur table: 2015
epoch: 1000
next table: 1373
cur table: 1371
epoch: 1000
next table: 2013
cur table: 2017
epoch: 1000
next table: 1369
cur table: 1373
epoch: 1000
next table: 2016
cur table: 2013
epoch: 1000
next table: 1356
cur table: 1369
epoch: 1000
next table: 2016
cur table: 2016
epoch: 1000
next table: 1365
cur table: 1356
epoch: 1000
next table: 2010
cur table: 2016
epoch: 1000
next table: 1380
cur table: 1365
epoch: 1000
next table: 2017
cur table: 2010
epoch: 1000
next table: 1357
cur table: 1380
epoch: 1000
next table: 1358
cur table: 1357
epoch: 1000
next table: 2011
cur table: 2017
epoch: 1000
next table: 1378
cur table: 1358
epoch: 1000
next table: 2014
cur table: 2011
epoch: 1000
next table: 1366
cur table: 1378
epoch: 1000
next table: 2013
cur table: 2014
epoch: 1000
next table: 1363
cur table: 1366
epoch: 1000
next table: 2011
cur table: 2013
epoch: 1000
next table: 1372
cur table: 1363
epoch: 1000
next table: 2018
cur table: 2011
epoch: 1000
next table: 1369
cur table: 1372
epoch: 1000
next table: 2011
cur table: 2018
epoch: 1000
next table: 1370
cur table: 1369
epoch: 1000
next table: 2013
cur table: 2011
epoch: 1000
next table: 1353
cur table: 1370
epoch: 1000
next table: 2010
cur table: 2013
epoch: 1000
next table: 1365
cur table: 1353
epoch: 1000
next table: 2016
cur table: 2010
epoch: 1000
next table: 1367
cur table: 1365
epoch: 1000
next table: 2015
cur table: 2016
epoch: 1000
next table: 1356
cur table: 1367
epoch: 1000
next table: 2015
cur table: 2015
epoch: 1000
next table: 1364
cur table: 1356
epoch: 1000
next table: 2011
cur table: 2015
epoch: 1000
next table: 1360
cur table: 1364
epoch: 1000
next table: 2012
cur table: 2011
epoch: 1000
next table: 1367
cur table: 1360
epoch: 1000
next table: 2008
cur table: 2012
epoch: 1000
next table: 1373
cur table: 1367
epoch: 1000
next table: 2016
cur table: 2008
epoch: 1000
next table: 1384
cur table: 1373
epoch: 1000
next table: 2010
cur table: 2016
epoch: 1000
next table: 1373
cur table: 1384
epoch: 1000
next table: 2011
cur table: 2010
epoch: 1000
next table: 1390
cur table: 1373
epoch: 1000
next table: 2015
cur table: 2011
epoch: 1000
next table: 1372
cur table: 1390
epoch: 1000
next table: 2015
cur table: 2015
epoch: 1000
next table: 1357
cur table: 1372
epoch: 1000
next table: 2020
cur table: 2015
epoch: 1000
next table: 1357
cur table: 1357
epoch: 1000
next table: 2013
cur table: 2020
epoch: 1000
next table: 1360
cur table: 1357
epoch: 1000
next table: 2011
cur table: 2013
epoch: 1000
next table: 1367
cur table: 1360
epoch: 1000
next table: 1363
cur table: 1367
epoch: 1000
next table: 2014
cur table: 2011
epoch: 1000
next table: 1363
cur table: 1363
epoch: 1000
next table: 2014
cur table: 2014
epoch: 1000
next table: 1369
cur table: 1363
epoch: 1000
next table: 2015
cur table: 2014
epoch: 1000
next table: 1364
cur table: 1369
epoch: 1000
next table: 2018
cur table: 2015
epoch: 1000
next table: 1370
cur table: 1364
epoch: 1000
next table: 2015
cur table: 2018
epoch: 1000
next table: 1355
cur table: 1370
epoch: 1000
next table: 2012
cur table: 2015
epoch: 1000
next table: 1365
cur table: 1355
epoch: 1000
next table: 2014
cur table: 2012
epoch: 1000
next table: 1368
cur table: 1365
epoch: 1000
next table: 2019
cur table: 2014
epoch: 1000
next table: 1372
cur table: 1368
epoch: 1000
next table: 2013
cur table: 2019
epoch: 1000
next table: 1362
cur table: 1372
epoch: 1000
next table: 2012
cur table: 2013
epoch: 1000
next table: 1360
cur table: 1362
epoch: 1000
next table: 2012
cur table: 2012
epoch: 1000
next table: 1361
cur table: 1360
epoch: 1000
next table: 2012
cur table: 2012
epoch: 1000
next table: 1364
cur table: 1361
epoch: 1000
next table: 2016
cur table: 2012
epoch: 1000
next table: 1372
cur table: 1364
epoch: 1000
next table: 2012
cur table: 2016
epoch: 1000
next table: 1359
cur table: 1372
epoch: 1000
next table: 2011
cur table: 2012
epoch: 1000
next table: 1375
cur table: 1359
epoch: 1000
next table: 2014
cur table: 2011
epoch: 1000
next table: 1351
cur table: 1375
epoch: 1000
next table: 2014
cur table: 2014
epoch: 1000
next table: 1373
cur table: 1351
epoch: 1000
next table: 2014
cur table: 2014
epoch: 1000
next table: 1356
cur table: 1373
epoch: 1000
next table: 2013
cur table: 2014
epoch: 1000
next table: 1371
cur table: 1356
epoch: 1000
next table: 1364
cur table: 1371
epoch: 1000
next table: 2011
cur table: 2013
epoch: 1000
next table: 1357
cur table: 1364
epoch: 1000
next table: 2014
cur table: 2011
epoch: 1000
next table: 1364
cur table: 1357
epoch: 1000
next table: 2011
cur table: 2014
epoch: 1000
next table: 1361
cur table: 1364
epoch: 1000
next table: 2014
cur table: 2011
epoch: 1000
next table: 1361
cur table: 1361
epoch: 1000
next table: 2011
cur table: 2014
epoch: 1000
next table: 1365
cur table: 1361
epoch: 1000
next table: 2010
cur table: 2011
epoch: 1000
next table: 1368
cur table: 1365
epoch: 1000
next table: 2014
cur table: 2010
epoch: 1000
next table: 1357
cur table: 1368
epoch: 1000
next table: 2014
cur table: 2014
epoch: 1000
next table: 1362
cur table: 1357
epoch: 1000
next table: 2012
cur table: 2014
epoch: 1000
next table: 1369
cur table: 1362
epoch: 1000
next table: 2015
cur table: 2012
epoch: 1000
next table: 1365
cur table: 1369
epoch: 1000
next table: 2011
cur table: 2015
epoch: 1000
next table: 1368
cur table: 1365
epoch: 1000
next table: 2014
cur table: 2011
epoch: 1000
next table: 1359
cur table: 1368
epoch: 1000
next table: 2016
cur table: 2014
epoch: 1000
next table: 1375
cur table: 1359
epoch: 1000
next table: 2014
cur table: 2016
epoch: 1000
next table: 1401
cur table: 1375
epoch: 1000
next table: 2016
cur table: 2014
epoch: 1000
next table: 1379
cur table: 1401
epoch: 1000
next table: 2012
cur table: 2016
epoch: 1000
next table: 1376
cur table: 1379
epoch: 1000
next table: 2012
cur table: 2012
epoch: 1000
next table: 1365
cur table: 1376
epoch: 1000
next table: 2019
cur table: 2012
epoch: 1000
next table: 1373
cur table: 1365
epoch: 1000
next table: 2016
cur table: 2019
epoch: 1000
next table: 1370
cur table: 1373
epoch: 1000
next table: 2010
cur table: 2016
epoch: 1000
next table: 1362
cur table: 1370
epoch: 1000
next table: 2016
cur table: 2010
epoch: 1000
next table: 1365
cur table: 1362
epoch: 1000
next table: 1354
cur table: 1365
epoch: 1000
next table: 2010
cur table: 2016
epoch: 1000
next table: 1387
cur table: 1354
epoch: 1000
next table: 2021
cur table: 2010
epoch: 1000
next table: 1367
cur table: 1387
epoch: 1000
next table: 2011
cur table: 2021
epoch: 1000
next table: 1370
cur table: 1367
epoch: 1000
next table: 2013
cur table: 2011
epoch: 1000
next table: 1368
cur table: 1370
epoch: 1000
next table: 2010
cur table: 2013
epoch: 1000
next table: 1368
cur table: 1368
epoch: 1000
next table: 2017
cur table: 2010
epoch: 1000
next table: 1358
cur table: 1368
epoch: 1000
next table: 2018
cur table: 2017
epoch: 1000
next table: 1361
cur table: 1358
epoch: 1000
next table: 2012
cur table: 2018
epoch: 1000
next table: 1366
cur table: 1361
epoch: 1000
next table: 2012
cur table: 2012
epoch: 1000
next table: 1358
cur table: 1366
epoch: 1000
next table: 2014
cur table: 2012
epoch: 1000
next table: 1373
cur table: 1358
epoch: 1000
next table: 2017
cur table: 2014
epoch: 1000
next table: 1370
cur table: 1373
epoch: 1000
next table: 2020
cur table: 2017
epoch: 1000
next table: 1374
cur table: 1370
epoch: 1000
next table: 2012
cur table: 2020
epoch: 1000
next table: 1375
cur table: 1374
epoch: 1000
next table: 2014
cur table: 2012
epoch: 1000
next table: 1359
cur table: 1375
epoch: 1000
next table: 2011
cur table: 2014
epoch: 1000
next table: 1364
cur table: 1359
epoch: 1000
next table: 2017
cur table: 2011
epoch: 1000
next table: 1354
cur table: 1364
epoch: 1000
next table: 2018
cur table: 2017
epoch: 1000
next table: 1370
cur table: 1354
epoch: 1000
next table: 2017
cur table: 2018
epoch: 1000
next table: 1369
cur table: 1370
epoch: 1000
next table: 2010
cur table: 2017
epoch: 1000
next table: 1367
cur table: 1369
epoch: 1000
next table: 1370
cur table: 1367
epoch: 1000
next table: 2015
cur table: 2010
epoch: 1000
next table: 1359
cur table: 1370
epoch: 1000
next table: 2016
cur table: 2015
epoch: 1000
next table: 1367
cur table: 1359
epoch: 1000
next table: 2016
cur table: 2016
epoch: 1000
next table: 1368
cur table: 1367
epoch: 1000
next table: 2017
cur table: 2016
epoch: 1000
next table: 1358
cur table: 1368
epoch: 1000
next table: 2013
cur table: 2017
epoch: 1000
next table: 1366
cur table: 1358
epoch: 1000
next table: 2016
cur table: 2013
epoch: 1000
next table: 1366
cur table: 1366
epoch: 1000
next table: 2016
cur table: 2016
epoch: 1000
next table: 1362
cur table: 1366
epoch: 1000
next table: 2016
cur table: 2016
epoch: 1000
next table: 1368
cur table: 1362
epoch: 1000
next table: 2015
cur table: 2016
epoch: 1000
next table: 1363
cur table: 1368
epoch: 1000
next table: 2013
cur table: 2015
epoch: 1000
next table: 1364
cur table: 1363
epoch: 1000
next table: 2013
cur table: 2013
epoch: 1000
next table: 1382
cur table: 1364
epoch: 1000
next table: 2016
cur table: 2013
epoch: 1000
next table: 1372
cur table: 1382
epoch: 1000
next table: 2013
cur table: 2016
epoch: 1000
next table: 1387
cur table: 1372
epoch: 1000
next table: 2011
cur table: 2013
epoch: 1000
next table: 1383
cur table: 1387
epoch: 1000
next table: 2015
cur table: 2011
epoch: 1000
next table: 1385
cur table: 1383
epoch: 1000
next table: 2015
cur table: 2015
epoch: 1000
next table: 1373
cur table: 1385
epoch: 1000
next table: 2051
cur table: 2015
epoch: 1000
next table: 1431
cur table: 1373
epoch: 1000
next table: 2328
cur table: 2051
epoch: 1000
next table: 1391
cur table: 1431
epoch: 1000
next table: 2332
cur table: 2328
epoch: 1000
next table: 1365
cur table: 1391
epoch: 1000
next table: 2335
cur table: 2332
epoch: 1000
next table: 1436
cur table: 1365
epoch: 1000
next table: 2335
cur table: 2335
epoch: 1000
next table: 1402
cur table: 1436
epoch: 1000
next table: 1393
cur table: 1402
epoch: 1000
next table: 2325
cur table: 2335
epoch: 1000
next table: 1392
cur table: 1393
epoch: 1000
next table: 2331
cur table: 2325
epoch: 1000
next table: 1405
cur table: 1392
epoch: 1000
next table: 2335
cur table: 2331
epoch: 1000
next table: 1410
cur table: 1405
epoch: 1000
next table: 2336
cur table: 2335
epoch: 1000
next table: 1426
cur table: 1410
epoch: 1000
next table: 2323
cur table: 2336
epoch: 1000
next table: 1364
cur table: 1426
epoch: 1000
next table: 2327
cur table: 2323
epoch: 1000
next table: 1419
cur table: 1364
epoch: 1000
next table: 2320
cur table: 2327
epoch: 1000
next table: 1412
cur table: 1419
epoch: 1000
next table: 2341
cur table: 2320
epoch: 1000
next table: 1432
cur table: 1412
epoch: 1000
next table: 2327
cur table: 2341
epoch: 1000
next table: 1378
cur table: 1432
epoch: 1000
next table: 2332
cur table: 2327
epoch: 1000
next table: 1423
cur table: 1378
epoch: 1000
next table: 2330
cur table: 2332
epoch: 1000
next table: 1393
cur table: 1423
epoch: 1000
next table: 2327
cur table: 2330
epoch: 1000
next table: 1429
cur table: 1393
epoch: 1000
next table: 2333
cur table: 2327
epoch: 1000
next table: 1425
cur table: 1429
epoch: 1000
next table: 2333
cur table: 2333
epoch: 1000
next table: 1422
cur table: 1425
epoch: 1000
next table: 2318
cur table: 2333
epoch: 1000
next table: 1400
cur table: 1422
epoch: 1000
next table: 2326
cur table: 2318
epoch: 1000
next table: 1415
cur table: 1400
epoch: 1000
next table: 2332
cur table: 2326
epoch: 1000
next table: 1401
cur table: 1415
epoch: 1000
next table: 2331
cur table: 2332
epoch: 1000
next table: 1394
cur table: 1401
epoch: 1000
next table: 2339
cur table: 2331
epoch: 1000
next table: 1414
cur table: 1394
epoch: 1000
next table: 2321
cur table: 2339
epoch: 1000
next table: 1394
cur table: 1414
epoch: 1000
next table: 2327
cur table: 2321
epoch: 1000
next table: 1382
cur table: 1394
epoch: 1000
next table: 1370
cur table: 1382
epoch: 1000
next table: 2327
cur table: 2327
epoch: 1000
next table: 1409
cur table: 1370
epoch: 1000
next table: 2338
cur table: 2327
epoch: 1000
next table: 1378
cur table: 1409
epoch: 1000
next table: 2333
cur table: 2338
epoch: 1000
next table: 1429
cur table: 1378
epoch: 1000
next table: 2320
cur table: 2333
epoch: 1000
next table: 1422
cur table: 1429
epoch: 1000
next table: 2327
cur table: 2320
epoch: 1000
next table: 1399
cur table: 1422
epoch: 1000
next table: 2331
cur table: 2327
epoch: 1000
next table: 1423
cur table: 1399
epoch: 1000
next table: 2331
cur table: 2331
epoch: 1000
next table: 1400
cur table: 1423
epoch: 1000
next table: 2334
cur table: 2331
epoch: 1000
next table: 1401
cur table: 1400
epoch: 1000
next table: 2324
cur table: 2334
epoch: 1000
next table: 1438
cur table: 1401
epoch: 1000
next table: 2325
cur table: 2324
epoch: 1000
next table: 1457
cur table: 1438
epoch: 1000
next table: 2329
cur table: 2325
epoch: 1000
next table: 1418
cur table: 1457
epoch: 1000
next table: 2333
cur table: 2329
epoch: 1000
next table: 1410
cur table: 1418
epoch: 1000
next table: 2338
cur table: 2333
epoch: 1000
next table: 1328
cur table: 1410
epoch: 1000
next table: 2329
cur table: 2338
epoch: 1000
next table: 1437
cur table: 1328
epoch: 1000
next table: 2335
cur table: 2329
epoch: 1000
next table: 1392
cur table: 1437
epoch: 1000
next table: 2329
cur table: 2335
epoch: 1000
next table: 1357
cur table: 1392
epoch: 1000
next table: 2333
cur table: 2329
epoch: 1000
next table: 1412
cur table: 1357
epoch: 1000
next table: 2331
cur table: 2333
epoch: 1000
next table: 1441
cur table: 1412
epoch: 1000
next table: 2329
cur table: 2331
epoch: 1000
next table: 1351
cur table: 1441
epoch: 1000
next table: 2331
cur table: 2329
epoch: 1000
next table: 1388
cur table: 1351
epoch: 1000
next table: 2327
cur table: 2331
epoch: 1000
next table: 1416
cur table: 1388
epoch: 1000
next table: 2332
cur table: 2327
epoch: 1000
next table: 1368
cur table: 1416
epoch: 1000
next table: 2334
cur table: 2332
epoch: 1000
next table: 1438
cur table: 1368
epoch: 1000
next table: 1404
cur table: 1438
epoch: 1000
next table: 2331
cur table: 2334
epoch: 1000
next table: 1432
cur table: 1404
epoch: 1000
next table: 2322
cur table: 2331
epoch: 1000
next table: 1394
cur table: 1432
epoch: 1000
next table: 2336
cur table: 2322
epoch: 1000
next table: 1371
cur table: 1394
epoch: 1000
next table: 2334
cur table: 2336
epoch: 1000
next table: 1416
cur table: 1371
epoch: 1000
next table: 2336
cur table: 2334
epoch: 1000
next table: 1429
cur table: 1416
epoch: 1000
next table: 2325
cur table: 2336
epoch: 1000
next table: 1385
cur table: 1429
epoch: 1000
next table: 2328
cur table: 2325
epoch: 1000
next table: 1430
cur table: 1385
epoch: 1000
next table: 2331
cur table: 2328
epoch: 1000
next table: 1427
cur table: 1430
epoch: 1000
next table: 2322
cur table: 2331
epoch: 1000
next table: 1371
cur table: 1427
epoch: 1000
next table: 2337
cur table: 2322
epoch: 1000
next table: 1425
cur table: 1371
epoch: 1000
next table: 2329
cur table: 2337
epoch: 1000
next table: 1410
cur table: 1425
epoch: 1000
next table: 2331
cur table: 2329
epoch: 1000
next table: 1427
cur table: 1410
epoch: 1000
next table: 2325
cur table: 2331
epoch: 1000
next table: 1385
cur table: 1427
epoch: 1000
next table: 2332
cur table: 2325
epoch: 1000
next table: 1418
cur table: 1385
epoch: 1000
next table: 2337
cur table: 2332
epoch: 1000
next table: 1399
cur table: 1418
epoch: 1000
next table: 2328
cur table: 2337
epoch: 1000
next table: 1439
cur table: 1399
epoch: 1000
next table: 2324
cur table: 2328
epoch: 1000
next table: 1370
cur table: 1439
epoch: 1000
next table: 2338
cur table: 2324
epoch: 1000
next table: 1421
cur table: 1370
epoch: 1000
next table: 2333
cur table: 2338
epoch: 1000
next table: 1378
cur table: 1421
epoch: 1000
next table: 1430
cur table: 1378
epoch: 1000
next table: 2325
cur table: 2333
epoch: 1000
next table: 1422
cur table: 1430
epoch: 1000
next table: 2326
cur table: 2325
epoch: 1000
next table: 1416
cur table: 1422
epoch: 1000
next table: 2326
cur table: 2326
epoch: 1000
next table: 1379
cur table: 1416
epoch: 1000
next table: 2343
cur table: 2326
epoch: 1000
next table: 1458
cur table: 1379
epoch: 1000
next table: 2326
cur table: 2343
epoch: 1000
next table: 1431
cur table: 1458
epoch: 1000
next table: 2329
cur table: 2326
epoch: 1000
next table: 1434
cur table: 1431
epoch: 1000
next table: 2326
cur table: 2329
epoch: 1000
next table: 1475
cur table: 1434
epoch: 1000
next table: 2329
cur table: 2326
epoch: 1000
next table: 1432
cur table: 1475
epoch: 1000
next table: 2330
cur table: 2329
epoch: 1000
next table: 1375
cur table: 1432
epoch: 1000
next table: 2334
cur table: 2330
epoch: 1000
next table: 1368
cur table: 1375
epoch: 1000
next table: 2331
cur table: 2334
epoch: 1000
next table: 1415
cur table: 1368
epoch: 1000
next table: 2331
cur table: 2331
epoch: 1000
next table: 1408
cur table: 1415
epoch: 1000
next table: 2326
cur table: 2331
epoch: 1000
next table: 1443
cur table: 1408
epoch: 1000
next table: 2333
cur table: 2326
epoch: 1000
next table: 1370
cur table: 1443
epoch: 1000
next table: 2331
cur table: 2333
epoch: 1000
next table: 1443
cur table: 1370
epoch: 1000
next table: 2337
cur table: 2331
epoch: 1000
next table: 1397
cur table: 1443
epoch: 1000
next table: 2325
cur table: 2337
epoch: 1000
next table: 1449
cur table: 1397
epoch: 1000
next table: 2327
cur table: 2325
epoch: 1000
next table: 1398
cur table: 1449
epoch: 1000
next table: 2332
cur table: 2327
epoch: 1000
next table: 1432
cur table: 1398
epoch: 1000
next table: 2330
cur table: 2332
epoch: 1000
next table: 1438
cur table: 1432
epoch: 1000
next table: 2328
cur table: 2330
epoch: 1000
next table: 1433
cur table: 1438
epoch: 1000
next table: 2332
cur table: 2328
epoch: 1000
next table: 1416
cur table: 1433
epoch: 1000
next table: 2312
cur table: 2332
epoch: 1000
next table: 1425
cur table: 1416
epoch: 1000
next table: 1434
cur table: 1425
epoch: 1000
next table: 2330
cur table: 2312
epoch: 1000
next table: 1412
cur table: 1434
epoch: 1000
next table: 2328
cur table: 2330
epoch: 1000
next table: 1394
cur table: 1412
epoch: 1000
next table: 2332
cur table: 2328
epoch: 1000
next table: 1427
cur table: 1394
epoch: 1000
next table: 2324
cur table: 2332
epoch: 1000
next table: 1414
cur table: 1427
epoch: 1000
next table: 2328
cur table: 2324
epoch: 1000
next table: 1448
cur table: 1414
epoch: 1000
next table: 2334
cur table: 2328
epoch: 1000
next table: 1416
cur table: 1448
epoch: 1000
next table: 2328
cur table: 2334
epoch: 1000
next table: 1414
cur table: 1416
epoch: 1000
next table: 2332
cur table: 2328
epoch: 1000
next table: 1451
cur table: 1414
epoch: 1000
next table: 2322
cur table: 2332
epoch: 1000
next table: 1424
cur table: 1451
epoch: 1000
next table: 2328
cur table: 2322
epoch: 1000
next table: 1422
cur table: 1424
epoch: 1000
next table: 2326
cur table: 2328
epoch: 1000
next table: 1440
cur table: 1422
epoch: 1000
next table: 2320
cur table: 2326
epoch: 1000
next table: 1442
cur table: 1440
epoch: 1000
next table: 2324
cur table: 2320
epoch: 1000
next table: 1465
cur table: 1442
epoch: 1000
next table: 2327
cur table: 2324
epoch: 1000
next table: 1408
cur table: 1465
epoch: 1000
next table: 2318
cur table: 2327
epoch: 1000
next table: 1388
cur table: 1408
epoch: 1000
next table: 2332
cur table: 2318
epoch: 1000
next table: 1432
cur table: 1388
epoch: 1000
next table: 2331
cur table: 2332
epoch: 1000
next table: 1414
cur table: 1432
epoch: 1000
next table: 2331
cur table: 2331
epoch: 1000
next table: 1438
cur table: 1414
epoch: 1000
next table: 2322
cur table: 2331
epoch: 1000
next table: 1378
cur table: 1438
epoch: 1000
next table: 2317
cur table: 2322
epoch: 1000
next table: 1407
cur table: 1378
epoch: 1000
next table: 2330
cur table: 2317
epoch: 1000
next table: 1457
cur table: 1407
epoch: 1000
next table: 2326
cur table: 2330
epoch: 1000
next table: 1426
cur table: 1457
epoch: 1000
next table: 1459
cur table: 1426
epoch: 1000
next table: 2324
cur table: 2326
epoch: 1000
next table: 1450
cur table: 1459
epoch: 1000
next table: 2320
cur table: 2324
epoch: 1000
next table: 1430
cur table: 1450
epoch: 1000
next table: 2326
cur table: 2320
epoch: 1000
next table: 1360
cur table: 1430
epoch: 1000
next table: 2328
cur table: 2326
epoch: 1000
next table: 1432
cur table: 1360
epoch: 1000
next table: 2336
cur table: 2328
epoch: 1000
next table: 1445
cur table: 1432
epoch: 1000
next table: 2338
cur table: 2336
epoch: 1000
next table: 1404
cur table: 1445
epoch: 1000
next table: 2327
cur table: 2338
epoch: 1000
next table: 1454
cur table: 1404
epoch: 1000
next table: 2322
cur table: 2327
epoch: 1000
next table: 1383
cur table: 1454
epoch: 1000
next table: 2340
cur table: 2322
epoch: 1000
next table: 1413
cur table: 1383
epoch: 1000
next table: 2330
cur table: 2340
epoch: 1000
next table: 1452
cur table: 1413
epoch: 1000
next table: 2323
cur table: 2330
epoch: 1000
next table: 1436
cur table: 1452
epoch: 1000
next table: 2329
cur table: 2323
epoch: 1000
next table: 1420
cur table: 1436
epoch: 1000
next table: 2321
cur table: 2329
epoch: 1000
next table: 1437
cur table: 1420
epoch: 1000
next table: 2322
cur table: 2321
epoch: 1000
next table: 1411
cur table: 1437
epoch: 1000
next table: 2324
cur table: 2322
epoch: 1000
next table: 1442
cur table: 1411
epoch: 1000
next table: 2338
cur table: 2324
epoch: 1000
next table: 1438
cur table: 1442
epoch: 1000
next table: 2328
cur table: 2338
epoch: 1000
next table: 1413
cur table: 1438
epoch: 1000
next table: 2324
cur table: 2328
epoch: 1000
next table: 1416
cur table: 1413
epoch: 1000
next table: 2327
cur table: 2324
epoch: 1000
next table: 1404
cur table: 1416
epoch: 1000
next table: 2334
cur table: 2327
epoch: 1000
next table: 1396
cur table: 1404
epoch: 1000
next table: 2326
cur table: 2334
epoch: 1000
next table: 1412
cur table: 1396
epoch: 1000
next table: 2323
cur table: 2326
epoch: 1000
next table: 1429
cur table: 1412
epoch: 1000
next table: 2327
cur table: 2323
epoch: 1000
next table: 1412
cur table: 1429
epoch: 1000
next table: 2318
cur table: 2327
epoch: 1000
next table: 1438
cur table: 1412
epoch: 1000
next table: 2328
cur table: 2318
epoch: 1000
next table: 1383
cur table: 1438
epoch: 1000
next table: 1451
cur table: 1383
epoch: 1000
next table: 2323
cur table: 2328
epoch: 1000
next table: 1387
cur table: 1451
epoch: 1000
next table: 2332
cur table: 2323
epoch: 1000
next table: 1414
cur table: 1387
epoch: 1000
next table: 2321
cur table: 2332
epoch: 1000
next table: 1401
cur table: 1414
epoch: 1000
next table: 2319
cur table: 2321
Heartbeat CPU 0 instructions: 10000001 cycles: 3758632 heartbeat IPC: 2.66054 cumulative IPC: 2.66054 (Simulation time: 0 hr 4 min 3 sec) 
epoch: 1000
next table: 1437
cur table: 1401
epoch: 1000
next table: 2328
cur table: 2319
epoch: 1000
next table: 1375
cur table: 1437
epoch: 1000
next table: 2335
cur table: 2328
epoch: 1000
next table: 1419
cur table: 1375
epoch: 1000
next table: 2311
cur table: 2335
epoch: 1000
next table: 1410
cur table: 1419
epoch: 1000
next table: 2333
cur table: 2311
epoch: 1000
next table: 1458
cur table: 1410
epoch: 1000
next table: 2327
cur table: 2333
epoch: 1000
next table: 1395
cur table: 1458
epoch: 1000
next table: 2334
cur table: 2327
epoch: 1000
next table: 1397
cur table: 1395
epoch: 1000
next table: 2319
cur table: 2334
epoch: 1000
next table: 1431
cur table: 1397
epoch: 1000
next table: 2326
cur table: 2319
epoch: 1000
next table: 1414
cur table: 1431
epoch: 1000
next table: 2329
cur table: 2326
epoch: 1000
next table: 1375
cur table: 1414
epoch: 1000
next table: 2323
cur table: 2329
epoch: 1000
next table: 1405
cur table: 1375
epoch: 1000
next table: 2325
cur table: 2323
epoch: 1000
next table: 1443
cur table: 1405
epoch: 1000
next table: 2328
cur table: 2325
epoch: 1000
next table: 1437
cur table: 1443
epoch: 1000
next table: 2330
cur table: 2328
epoch: 1000
next table: 1398
cur table: 1437
epoch: 1000
next table: 2321
cur table: 2330
epoch: 1000
next table: 1452
cur table: 1398
epoch: 1000
next table: 2328
cur table: 2321
epoch: 1000
next table: 1430
cur table: 1452
epoch: 1000
next table: 2335
cur table: 2328
epoch: 1000
next table: 1440
cur table: 1430
epoch: 1000
next table: 2328
cur table: 2335
epoch: 1000
next table: 1393
cur table: 1440
epoch: 1000
next table: 2329
cur table: 2328
epoch: 1000
next table: 1339
cur table: 1393
epoch: 1000
next table: 2326
cur table: 2329
epoch: 1000
next table: 1437
cur table: 1339
epoch: 1000
next table: 2330
cur table: 2326
epoch: 1000
next table: 1424
cur table: 1437
epoch: 1000
next table: 2332
cur table: 2330
epoch: 1000
next table: 1382
cur table: 1424
epoch: 1000
next table: 1433
cur table: 1382
epoch: 1000
next table: 2328
cur table: 2332
epoch: 1000
next table: 1375
cur table: 1433
epoch: 1000
next table: 2333
cur table: 2328
epoch: 1000
next table: 1452
cur table: 1375
epoch: 1000
next table: 2327
cur table: 2333
epoch: 1000
next table: 1383
cur table: 1452
epoch: 1000
next table: 2326
cur table: 2327
epoch: 1000
next table: 1401
cur table: 1383
epoch: 1000
next table: 2324
cur table: 2326
epoch: 1000
next table: 1366
cur table: 1401
epoch: 1000
next table: 2333
cur table: 2324
epoch: 1000
next table: 1397
cur table: 1366
epoch: 1000
next table: 2333
cur table: 2333
epoch: 1000
next table: 1420
cur table: 1397
epoch: 1000
next table: 2328
cur table: 2333
epoch: 1000
next table: 1420
cur table: 1420
epoch: 1000
next table: 2318
cur table: 2328
epoch: 1000
next table: 1421
cur table: 1420
epoch: 1000
next table: 2332
cur table: 2318
epoch: 1000
next table: 1447
cur table: 1421
epoch: 1000
next table: 2326
cur table: 2332
epoch: 1000
next table: 1381
cur table: 1447
epoch: 1000
next table: 2332
cur table: 2326
epoch: 1000
next table: 1437
cur table: 1381
epoch: 1000
next table: 2319
cur table: 2332
epoch: 1000
next table: 1387
cur table: 1437
epoch: 1000
next table: 2329
cur table: 2319
epoch: 1000
next table: 1432
cur table: 1387
epoch: 1000
next table: 2334
cur table: 2329
epoch: 1000
next table: 1390
cur table: 1432
epoch: 1000
next table: 2324
cur table: 2334
epoch: 1000
next table: 1431
cur table: 1390
epoch: 1000
next table: 2324
cur table: 2324
epoch: 1000
next table: 1424
cur table: 1431
epoch: 1000
next table: 2326
cur table: 2324
epoch: 1000
next table: 1425
cur table: 1424
epoch: 1000
next table: 2325
cur table: 2326
epoch: 1000
next table: 1396
cur table: 1425
epoch: 1000
next table: 2329
cur table: 2325
epoch: 1000
next table: 1424
cur table: 1396
epoch: 1000
next table: 1413
cur table: 1424
epoch: 1000
next table: 2330
cur table: 2329
epoch: 1000
next table: 1418
cur table: 1413
epoch: 1000
next table: 2322
cur table: 2330
epoch: 1000
next table: 1371
cur table: 1418
epoch: 1000
next table: 2332
cur table: 2322
epoch: 1000
next table: 1405
cur table: 1371
epoch: 1000
next table: 2319
cur table: 2332
epoch: 1000
next table: 1354
cur table: 1405
epoch: 1000
next table: 2336
cur table: 2319
epoch: 1000
next table: 1440
cur table: 1354
epoch: 1000
next table: 2330
cur table: 2336
epoch: 1000
next table: 1414
cur table: 1440
epoch: 1000
next table: 2325
cur table: 2330
epoch: 1000
next table: 1446
cur table: 1414
epoch: 1000
next table: 2327
cur table: 2325
epoch: 1000
next table: 1436
cur table: 1446
epoch: 1000
next table: 2326
cur table: 2327
epoch: 1000
next table: 1334
cur table: 1436
epoch: 1000
next table: 2326
cur table: 2326
epoch: 1000
next table: 1428
cur table: 1334
epoch: 1000
next table: 2334
cur table: 2326
epoch: 1000
next table: 1388
cur table: 1428
epoch: 1000
next table: 2323
cur table: 2334
epoch: 1000
next table: 1438
cur table: 1388
epoch: 1000
next table: 2323
cur table: 2323
epoch: 1000
next table: 1421
cur table: 1438
epoch: 1000
next table: 2327
cur table: 2323
epoch: 1000
next table: 1444
cur table: 1421
epoch: 1000
next table: 2330
cur table: 2327
epoch: 1000
next table: 1413
cur table: 1444
epoch: 1000
next table: 2340
cur table: 2330
epoch: 1000
next table: 1410
cur table: 1413
epoch: 1000
next table: 2323
cur table: 2340
epoch: 1000
next table: 1444
cur table: 1410
epoch: 1000
next table: 2326
cur table: 2323
epoch: 1000
next table: 1410
cur table: 1444
epoch: 1000
next table: 2326
cur table: 2326
epoch: 1000
next table: 1430
cur table: 1410
epoch: 1000
next table: 2331
cur table: 2326
epoch: 1000
next table: 1404
cur table: 1430
epoch: 1000
next table: 2320
cur table: 2331
epoch: 1000
next table: 1433
cur table: 1404
epoch: 1000
next table: 2337
cur table: 2320
epoch: 1000
next table: 1404
cur table: 1433
epoch: 1000
next table: 2326
cur table: 2337
epoch: 1000
next table: 1419
cur table: 1404
epoch: 1000
next table: 2324
cur table: 2326
epoch: 1000
next table: 1407
cur table: 1419
epoch: 1000
next table: 1416
cur table: 1407
epoch: 1000
next table: 2331
cur table: 2324
epoch: 1000
next table: 1424
cur table: 1416
epoch: 1000
next table: 2330
cur table: 2331
epoch: 1000
next table: 1425
cur table: 1424
epoch: 1000
next table: 2340
cur table: 2330
epoch: 1000
next table: 1448
cur table: 1425
epoch: 1000
next table: 2324
cur table: 2340
epoch: 1000
next table: 1389
cur table: 1448
epoch: 1000
next table: 2329
cur table: 2324
epoch: 1000
next table: 1413
cur table: 1389
epoch: 1000
next table: 2325
cur table: 2329
epoch: 1000
next table: 1418
cur table: 1413
epoch: 1000
next table: 2326
cur table: 2325
epoch: 1000
next table: 1377
cur table: 1418
epoch: 1000
next table: 2332
cur table: 2326
epoch: 1000
next table: 1424
cur table: 1377
epoch: 1000
next table: 2327
cur table: 2332
epoch: 1000
next table: 1392
cur table: 1424
epoch: 1000
next table: 2327
cur table: 2327
epoch: 1000
next table: 1435
cur table: 1392
epoch: 1000
next table: 2324
cur table: 2327
epoch: 1000
next table: 1415
cur table: 1435
epoch: 1000
next table: 2324
cur table: 2324
epoch: 1000
next table: 1424
cur table: 1415
epoch: 1000
next table: 2328
cur table: 2324
epoch: 1000
next table: 1440
cur table: 1424
epoch: 1000
next table: 2331
cur table: 2328
epoch: 1000
next table: 1428
cur table: 1440
epoch: 1000
next table: 2323
cur table: 2331
epoch: 1000
next table: 1387
cur table: 1428
epoch: 1000
next table: 2337
cur table: 2323
epoch: 1000
next table: 1407
cur table: 1387
epoch: 1000
next table: 2322
cur table: 2337
epoch: 1000
next table: 1416
cur table: 1407
epoch: 1000
next table: 2332
cur table: 2322
epoch: 1000
next table: 1435
cur table: 1416
epoch: 1000
next table: 2321
cur table: 2332
epoch: 1000
next table: 1400
cur table: 1435
epoch: 1000
next table: 2330
cur table: 2321
epoch: 1000
next table: 1415
cur table: 1400
epoch: 1000
next table: 2326
cur table: 2330
epoch: 1000
next table: 1423
cur table: 1415
epoch: 1000
next table: 1433
cur table: 1423
epoch: 1000
next table: 2325
cur table: 2326
epoch: 1000
next table: 1374
cur table: 1433
epoch: 1000
next table: 2331
cur table: 2325
epoch: 1000
next table: 1445
cur table: 1374
epoch: 1000
next table: 2325
cur table: 2331
epoch: 1000
next table: 1472
cur table: 1445
epoch: 1000
next table: 2319
cur table: 2325
epoch: 1000
next table: 1377
cur table: 1472
epoch: 1000
next table: 2321
cur table: 2319
epoch: 1000
next table: 1385
cur table: 1377
epoch: 1000
next table: 2335
cur table: 2321
epoch: 1000
next table: 1427
cur table: 1385
epoch: 1000
next table: 2335
cur table: 2335
epoch: 1000
next table: 1491
cur table: 1427
epoch: 1000
next table: 2143
cur table: 2335
epoch: 1000
next table: 1634
cur table: 1491
epoch: 1000
next table: 2017
cur table: 2143
epoch: 1000
next table: 1635
cur table: 1634
epoch: 1000
next table: 2019
cur table: 2017
epoch: 1000
next table: 1641
cur table: 1635
epoch: 1000
next table: 2017
cur table: 2019
epoch: 1000
next table: 1629
cur table: 1641
epoch: 1000
next table: 2018
cur table: 2017
epoch: 1000
next table: 1635
cur table: 1629
epoch: 1000
next table: 2018
cur table: 2018
epoch: 1000
next table: 1633
cur table: 1635
epoch: 1000
next table: 2018
cur table: 2018
epoch: 1000
next table: 1639
cur table: 1633
epoch: 1000
next table: 2018
cur table: 2018
epoch: 1000
next table: 1634
cur table: 1639
epoch: 1000
next table: 2019
cur table: 2018
epoch: 1000
next table: 1636
cur table: 1634
epoch: 1000
next table: 2019
cur table: 2019
epoch: 1000
next table: 1637
cur table: 1636
epoch: 1000
next table: 2018
cur table: 2019
epoch: 1000
next table: 1637
cur table: 1637
epoch: 1000
next table: 2018
cur table: 2018
epoch: 1000
next table: 1632
cur table: 1637
epoch: 1000
next table: 2018
cur table: 2018
epoch: 1000
next table: 1636
cur table: 1632
epoch: 1000
next table: 2020
cur table: 2018
epoch: 1000
next table: 1634
cur table: 1636
epoch: 1000
next table: 2016
cur table: 2020
epoch: 1000
next table: 1634
cur table: 1634
epoch: 1000
next table: 2018
cur table: 2016
epoch: 1000
next table: 1633
cur table: 1634
epoch: 1000
next table: 2019
cur table: 2018
epoch: 1000
next table: 1636
cur table: 1633
epoch: 1000
next table: 2019
cur table: 2019
epoch: 1000
next table: 1635
cur table: 1636
epoch: 1000
next table: 2019
cur table: 2019
epoch: 1000
next table: 1637
cur table: 1635
epoch: 1000
next table: 2017
cur table: 2019
epoch: 1000
next table: 1638
cur table: 1637
epoch: 1000
next table: 2017
cur table: 2017
epoch: 1000
next table: 1629
cur table: 1638
epoch: 1000
next table: 2019
cur table: 2017
epoch: 1000
next table: 1637
cur table: 1629
epoch: 1000
next table: 2016
cur table: 2019
epoch: 1000
next table: 1636
cur table: 1637
epoch: 1000
next table: 2018
cur table: 2016
epoch: 1000
next table: 1641
cur table: 1636
epoch: 1000
next table: 2019
cur table: 2018
epoch: 1000
next table: 1631
cur table: 1641
epoch: 1000
next table: 2019
cur table: 2019
epoch: 1000
next table: 1636
cur table: 1631
epoch: 1000
next table: 2017
cur table: 2019
epoch: 1000
next table: 1636
cur table: 1636
epoch: 1000
next table: 2018
cur table: 2017
epoch: 1000
next table: 1643
cur table: 1636
epoch: 1000
next table: 2019
cur table: 2018
epoch: 1000
next table: 1625
cur table: 1643
epoch: 1000
next table: 2020
cur table: 2019
epoch: 1000
next table: 1635
cur table: 1625
epoch: 1000
next table: 2018
cur table: 2020
epoch: 1000
next table: 1635
cur table: 1635
epoch: 1000
next table: 2017
cur table: 2018
epoch: 1000
next table: 1636
cur table: 1635
epoch: 1000
next table: 2018
cur table: 2017
epoch: 1000
next table: 1632
cur table: 1636
epoch: 1000
next table: 2018
cur table: 2018
epoch: 1000
next table: 1636
cur table: 1632
epoch: 1000
next table: 2020
cur table: 2018
epoch: 1000
next table: 1635
cur table: 1636
epoch: 1000
next table: 2017
cur table: 2020
epoch: 1000
next table: 1633
cur table: 1635
epoch: 1000
next table: 2019
cur table: 2017
epoch: 1000
next table: 1635
cur table: 1633
epoch: 1000
next table: 2018
cur table: 2019
epoch: 1000
next table: 1633
cur table: 1635
epoch: 1000
next table: 2018
cur table: 2018
epoch: 1000
next table: 1635
cur table: 1633
epoch: 1000
next table: 2019
cur table: 2018
epoch: 1000
next table: 1638
cur table: 1635
epoch: 1000
next table: 2018
cur table: 2019
epoch: 1000
next table: 1635
cur table: 1638
epoch: 1000
next table: 2018
cur table: 2018
epoch: 1000
next table: 1634
cur table: 1635
epoch: 1000
next table: 2019
cur table: 2018
epoch: 1000
next table: 1634
cur table: 1634
epoch: 1000
next table: 2018
cur table: 2019
epoch: 1000
next table: 1634
cur table: 1634
epoch: 1000
next table: 2016
cur table: 2018
epoch: 1000
next table: 1634
cur table: 1634
epoch: 1000
next table: 2019
cur table: 2016
epoch: 1000
next table: 1635
cur table: 1634
epoch: 1000
next table: 2019
cur table: 2019
epoch: 1000
next table: 1634
cur table: 1635
epoch: 1000
next table: 2017
cur table: 2019
epoch: 1000
next table: 1634
cur table: 1634
epoch: 1000
next table: 2020
cur table: 2017
epoch: 1000
next table: 1640
cur table: 1634
epoch: 1000
next table: 2019
cur table: 2020
epoch: 1000
next table: 1631
cur table: 1640
epoch: 1000
next table: 2018
cur table: 2019
epoch: 1000
next table: 1638
cur table: 1631
epoch: 1000
next table: 2017
cur table: 2018
epoch: 1000
next table: 1633
cur table: 1638
epoch: 1000
next table: 2018
cur table: 2017
epoch: 1000
next table: 1642
cur table: 1633
epoch: 1000
next table: 2017
cur table: 2018
epoch: 1000
next table: 1627
cur table: 1642
epoch: 1000
next table: 2019
cur table: 2017
epoch: 1000
next table: 1635
cur table: 1627
epoch: 1000
next table: 2017
cur table: 2019
epoch: 1000
next table: 1636
cur table: 1635
epoch: 1000
next table: 2018
cur table: 2017
epoch: 1000
next table: 1641
cur table: 1636
epoch: 1000
next table: 2019
cur table: 2018
epoch: 1000
next table: 1626
cur table: 1641
epoch: 1000
next table: 2018
cur table: 2019
epoch: 1000
next table: 1639
cur table: 1626
epoch: 1000
next table: 2018
cur table: 2018
epoch: 1000
next table: 1635
cur table: 1639
epoch: 1000
next table: 2018
cur table: 2018
epoch: 1000
next table: 1635
cur table: 1635
epoch: 1000
next table: 2018
cur table: 2018
epoch: 1000
next table: 1633
cur table: 1635
epoch: 1000
next table: 2019
cur table: 2018
epoch: 1000
next table: 1636
cur table: 1633
epoch: 1000
next table: 2020
cur table: 2019
epoch: 1000
next table: 1636
cur table: 1636
epoch: 1000
next table: 2016
cur table: 2020
epoch: 1000
next table: 1635
cur table: 1636
epoch: 1000
next table: 2018
cur table: 2016
epoch: 1000
next table: 1632
cur table: 1635
epoch: 1000
next table: 2018
cur table: 2018
epoch: 1000
next table: 1632
cur table: 1632
epoch: 1000
next table: 2018
cur table: 2018
epoch: 1000
next table: 1634
cur table: 1632
epoch: 1000
next table: 2016
cur table: 2018
epoch: 1000
next table: 1641
cur table: 1634
epoch: 1000
next table: 2019
cur table: 2016
epoch: 1000
next table: 1627
cur table: 1641
epoch: 1000
next table: 2019
cur table: 2019
epoch: 1000
next table: 1635
cur table: 1627
epoch: 1000
next table: 2019
cur table: 2019
epoch: 1000
next table: 1633
cur table: 1635
epoch: 1000
next table: 2017
cur table: 2019
epoch: 1000
next table: 1642
cur table: 1633
epoch: 1000
next table: 2018
cur table: 2017
epoch: 1000
next table: 1631
cur table: 1642
epoch: 1000
next table: 2019
cur table: 2018
epoch: 1000
next table: 1636
cur table: 1631
epoch: 1000
next table: 2019
cur table: 2019
epoch: 1000
next table: 1633
cur table: 1636
epoch: 1000
next table: 2018
cur table: 2019
epoch: 1000
next table: 1637
cur table: 1633
epoch: 1000
next table: 2016
cur table: 2018
epoch: 1000
next table: 1632
cur table: 1637
epoch: 1000
next table: 2019
cur table: 2016
epoch: 1000
next table: 1634
cur table: 1632
epoch: 1000
next table: 2019
cur table: 2019
epoch: 1000
next table: 1633
cur table: 1634
epoch: 1000
next table: 2018
cur table: 2019
epoch: 1000
next table: 1640
cur table: 1633
epoch: 1000
next table: 2019
cur table: 2018
epoch: 1000
next table: 1635
cur table: 1640
epoch: 1000
next table: 2018
cur table: 2019
epoch: 1000
next table: 1636
cur table: 1635
epoch: 1000
next table: 2017
cur table: 2018
epoch: 1000
next table: 1634
cur table: 1636
epoch: 1000
next table: 2018
cur table: 2017
epoch: 1000
next table: 1634
cur table: 1634
epoch: 1000
next table: 2018
cur table: 2018
epoch: 1000
next table: 1633
cur table: 1634
epoch: 1000
next table: 2018
cur table: 2018
epoch: 1000
next table: 1634
cur table: 1633
epoch: 1000
next table: 2019
cur table: 2018
epoch: 1000
next table: 1635
cur table: 1634
epoch: 1000
next table: 2017
cur table: 2019
epoch: 1000
next table: 1635
cur table: 1635
epoch: 1000
next table: 2018
cur table: 2017
epoch: 1000
next table: 1640
cur table: 1635
epoch: 1000
next table: 2020
cur table: 2018
epoch: 1000
next table: 1631
cur table: 1640
epoch: 1000
next table: 2019
cur table: 2020
epoch: 1000
next table: 1634
cur table: 1631
epoch: 1000
next table: 2018
cur table: 2019
epoch: 1000
next table: 1633
cur table: 1634
epoch: 1000
next table: 2016
cur table: 2018
epoch: 1000
next table: 1642
cur table: 1633
epoch: 1000
next table: 2019
cur table: 2016
epoch: 1000
next table: 1629
cur table: 1642
epoch: 1000
next table: 2019
cur table: 2019
epoch: 1000
next table: 1634
cur table: 1629
epoch: 1000
next table: 2019
cur table: 2019
epoch: 1000
next table: 1633
cur table: 1634
epoch: 1000
next table: 2018
cur table: 2019
epoch: 1000
next table: 1641
cur table: 1633
epoch: 1000
next table: 2018
cur table: 2018
epoch: 1000
next table: 1632
cur table: 1641
epoch: 1000
next table: 2019
cur table: 2018
epoch: 1000
next table: 1636
cur table: 1632
epoch: 1000
next table: 2018
cur table: 2019
epoch: 1000
next table: 1633
cur table: 1636
epoch: 1000
next table: 2017
cur table: 2018
epoch: 1000
next table: 1634
cur table: 1633
epoch: 1000
next table: 2018
cur table: 2017
epoch: 1000
next table: 1632
cur table: 1634
epoch: 1000
next table: 2019
cur table: 2018
epoch: 1000
next table: 1639
cur table: 1632
epoch: 1000
next table: 2018
cur table: 2019
epoch: 1000
next table: 1635
cur table: 1639
epoch: 1000
next table: 2018
cur table: 2018
epoch: 1000
next table: 1636
cur table: 1635
epoch: 1000
next table: 2018
cur table: 2018
epoch: 1000
next table: 1633
cur table: 1636
epoch: 1000
next table: 2019
cur table: 2018
epoch: 1000
next table: 1634
cur table: 1633
epoch: 1000
next table: 2019
cur table: 2019
epoch: 1000
next table: 1635
cur table: 1634
epoch: 1000
next table: 2019
cur table: 2019
epoch: 1000
next table: 1633
cur table: 1635
epoch: 1000
next table: 2017
cur table: 2019
epoch: 1000
next table: 1638
cur table: 1633
epoch: 1000
next table: 2017
cur table: 2017
epoch: 1000
next table: 1633
cur table: 1638
epoch: 1000
next table: 2019
cur table: 2017
epoch: 1000
next table: 1635
cur table: 1633
epoch: 1000
next table: 2018
cur table: 2019
epoch: 1000
next table: 1632
cur table: 1635
epoch: 1000
next table: 2018
cur table: 2018
epoch: 1000
next table: 1640
cur table: 1632
epoch: 1000
next table: 2019
cur table: 2018
epoch: 1000
next table: 1630
cur table: 1640
epoch: 1000
next table: 2017
cur table: 2019
epoch: 1000
next table: 1634
cur table: 1630
epoch: 1000
next table: 2020
cur table: 2017
epoch: 1000
next table: 1635
cur table: 1634
epoch: 1000
next table: 2017
cur table: 2020
epoch: 1000
next table: 1641
cur table: 1635
epoch: 1000
next table: 2019
cur table: 2017
epoch: 1000
next table: 1630
cur table: 1641
epoch: 1000
next table: 2019
cur table: 2019
epoch: 1000
next table: 1636
cur table: 1630
epoch: 1000
next table: 2018
cur table: 2019
epoch: 1000
next table: 1635
cur table: 1636
epoch: 1000
next table: 2015
cur table: 2018
epoch: 1000
next table: 1640
cur table: 1635
epoch: 1000
next table: 2019
cur table: 2015
epoch: 1000
next table: 1626
cur table: 1640
epoch: 1000
next table: 2019
cur table: 2019
epoch: 1000
next table: 1635
cur table: 1626
epoch: 1000
next table: 2018
cur table: 2019
epoch: 1000
next table: 1635
cur table: 1635
epoch: 1000
next table: 2018
cur table: 2018
epoch: 1000
next table: 1640
cur table: 1635
epoch: 1000
next table: 2019
cur table: 2018
epoch: 1000
next table: 1633
cur table: 1640
epoch: 1000
next table: 2019
cur table: 2019
epoch: 1000
next table: 1635
cur table: 1633
epoch: 1000
next table: 2019
cur table: 2019
epoch: 1000
next table: 1636
cur table: 1635
epoch: 1000
next table: 2018
cur table: 2019
epoch: 1000
next table: 1637
cur table: 1636
epoch: 1000
next table: 2017
cur table: 2018
epoch: 1000
next table: 1633
cur table: 1637
epoch: 1000
next table: 2019
cur table: 2017
epoch: 1000
next table: 1637
cur table: 1633
epoch: 1000
next table: 2014
cur table: 2019
epoch: 1000
next table: 1755
cur table: 1637
epoch: 1000
next table: 2038
cur table: 2014
epoch: 1000
next table: 1509
cur table: 1755
epoch: 1000
next table: 2012
cur table: 2038
epoch: 1000
next table: 1491
cur table: 1509
epoch: 1000
next table: 2007
cur table: 2012
epoch: 1000
next table: 1494
cur table: 1491
epoch: 1000
next table: 2014
cur table: 2007
epoch: 1000
next table: 1485
cur table: 1494
epoch: 1000
next table: 2011
cur table: 2014
epoch: 1000
next table: 1481
cur table: 1485
epoch: 1000
next table: 2010
cur table: 2011
epoch: 1000
next table: 1489
cur table: 1481
epoch: 1000
next table: 2015
cur table: 2010
epoch: 1000
next table: 1477
cur table: 1489
epoch: 1000
next table: 2010
cur table: 2015
epoch: 1000
next table: 1485
cur table: 1477
epoch: 1000
next table: 1478
cur table: 1485
epoch: 1000
next table: 2012
cur table: 2010
epoch: 1000
next table: 1480
cur table: 1478
epoch: 1000
next table: 2011
cur table: 2012
epoch: 1000
next table: 1485
cur table: 1480
epoch: 1000
next table: 2007
cur table: 2011
epoch: 1000
next table: 1480
cur table: 1485
epoch: 1000
next table: 2011
cur table: 2007
epoch: 1000
next table: 1475
cur table: 1480
epoch: 1000
next table: 2013
cur table: 2011
epoch: 1000
next table: 1483
cur table: 1475
epoch: 1000
next table: 2010
cur table: 2013
epoch: 1000
next table: 1477
cur table: 1483
epoch: 1000
next table: 2012
cur table: 2010
epoch: 1000
next table: 1492
cur table: 1477
epoch: 1000
next table: 2010
cur table: 2012
epoch: 1000
next table: 1504
cur table: 1492
epoch: 1000
next table: 2013
cur table: 2010
epoch: 1000
next table: 1510
cur table: 1504
epoch: 1000
next table: 2015
cur table: 2013
epoch: 1000
next table: 1474
cur table: 1510
epoch: 1000
next table: 2009
cur table: 2015
epoch: 1000
next table: 1470
cur table: 1474
epoch: 1000
next table: 2012
cur table: 2009
epoch: 1000
next table: 1486
cur table: 1470
epoch: 1000
next table: 2007
cur table: 2012
epoch: 1000
next table: 1474
cur table: 1486
epoch: 1000
next table: 1478
cur table: 1474
epoch: 1000
next table: 2014
cur table: 2007
epoch: 1000
next table: 1481
cur table: 1478
epoch: 1000
next table: 2008
cur table: 2014
epoch: 1000
next table: 1478
cur table: 1481
epoch: 1000
next table: 2015
cur table: 2008
epoch: 1000
next table: 1485
cur table: 1478
epoch: 1000
next table: 2010
cur table: 2015
epoch: 1000
next table: 1477
cur table: 1485
epoch: 1000
next table: 2018
cur table: 2010
epoch: 1000
next table: 1482
cur table: 1477
epoch: 1000
next table: 2014
cur table: 2018
epoch: 1000
next table: 1488
cur table: 1482
epoch: 1000
next table: 2010
cur table: 2014
epoch: 1000
next table: 1476
cur table: 1488
epoch: 1000
next table: 2014
cur table: 2010
epoch: 1000
next table: 1474
cur table: 1476
epoch: 1000
next table: 2013
cur table: 2014
epoch: 1000
next table: 1483
cur table: 1474
epoch: 1000
next table: 2011
cur table: 2013
epoch: 1000
next table: 1475
cur table: 1483
epoch: 1000
next table: 2017
cur table: 2011
epoch: 1000
next table: 1487
cur table: 1475
epoch: 1000
next table: 1497
cur table: 1487
epoch: 1000
next table: 2010
cur table: 2017
epoch: 1000
next table: 1506
cur table: 1497
epoch: 1000
next table: 2012
cur table: 2010
epoch: 1000
next table: 1489
cur table: 1506
epoch: 1000
next table: 2012
cur table: 2012
epoch: 1000
next table: 1475
cur table: 1489
epoch: 1000
next table: 2013
cur table: 2012
epoch: 1000
next table: 1481
cur table: 1475
epoch: 1000
next table: 2013
cur table: 2013
epoch: 1000
next table: 1476
cur table: 1481
epoch: 1000
next table: 2011
cur table: 2013
epoch: 1000
next table: 1480
cur table: 1476
epoch: 1000
next table: 2012
cur table: 2011
epoch: 1000
next table: 1476
cur table: 1480
epoch: 1000
next table: 2012
cur table: 2012
epoch: 1000
next table: 1477
cur table: 1476
epoch: 1000
next table: 2011
cur table: 2012
epoch: 1000
next table: 1481
cur table: 1477
epoch: 1000
next table: 2011
cur table: 2011
epoch: 1000
next table: 1476
cur table: 1481
epoch: 1000
next table: 2011
cur table: 2011
epoch: 1000
next table: 1483
cur table: 1476
epoch: 1000
next table: 2012
cur table: 2011
epoch: 1000
next table: 1480
cur table: 1483
epoch: 1000
next table: 2014
cur table: 2012
epoch: 1000
next table: 1485
cur table: 1480
epoch: 1000
next table: 1479
cur table: 1485
epoch: 1000
next table: 2012
cur table: 2014
epoch: 1000
next table: 1480
cur table: 1479
epoch: 1000
next table: 2013
cur table: 2012
epoch: 1000
next table: 1482
cur table: 1480
epoch: 1000
next table: 2012
cur table: 2013
epoch: 1000
next table: 1482
cur table: 1482
epoch: 1000
next table: 2011
cur table: 2012
epoch: 1000
next table: 1494
cur table: 1482
epoch: 1000
next table: 2012
cur table: 2011
epoch: 1000
next table: 1508
cur table: 1494
epoch: 1000
next table: 2018
cur table: 2012
epoch: 1000
next table: 1493
cur table: 1508
epoch: 1000
next table: 2010
cur table: 2018
epoch: 1000
next table: 1488
cur table: 1493
epoch: 1000
next table: 2009
cur table: 2010
epoch: 1000
next table: 1472
cur table: 1488
epoch: 1000
next table: 2010
cur table: 2009
epoch: 1000
next table: 1481
cur table: 1472
epoch: 1000
next table: 2014
cur table: 2010
epoch: 1000
next table: 1483
cur table: 1481
epoch: 1000
next table: 2011
cur table: 2014
epoch: 1000
next table: 1479
cur table: 1483
epoch: 1000
next table: 2012
cur table: 2011
epoch: 1000
next table: 1482
cur table: 1479
epoch: 1000
next table: 1478
cur table: 1482
epoch: 1000
next table: 2008
cur table: 2012
epoch: 1000
next table: 1474
cur table: 1478
epoch: 1000
next table: 2013
cur table: 2008
epoch: 1000
next table: 1486
cur table: 1474
epoch: 1000
next table: 2010
cur table: 2013
epoch: 1000
next table: 1476
cur table: 1486
epoch: 1000
next table: 2009
cur table: 2010
epoch: 1000
next table: 1475
cur table: 1476
epoch: 1000
next table: 2010
cur table: 2009
epoch: 1000
next table: 1485
cur table: 1475
epoch: 1000
next table: 2011
cur table: 2010
epoch: 1000
next table: 1476
cur table: 1485
epoch: 1000
next table: 2009
cur table: 2011
epoch: 1000
next table: 1480
cur table: 1476
epoch: 1000
next table: 2014
cur table: 2009
epoch: 1000
next table: 1480
cur table: 1480
epoch: 1000
next table: 2009
cur table: 2014
epoch: 1000
next table: 1483
cur table: 1480
epoch: 1000
next table: 2013
cur table: 2009
epoch: 1000
next table: 1502
cur table: 1483
epoch: 1000
next table: 2014
cur table: 2013
epoch: 1000
next table: 1514
cur table: 1502
epoch: 1000
next table: 2009
cur table: 2014
epoch: 1000
next table: 1492
cur table: 1514
epoch: 1000
next table: 2012
cur table: 2009
epoch: 1000
next table: 1462
cur table: 1492
epoch: 1000
next table: 1475
cur table: 1462
epoch: 1000
next table: 2010
cur table: 2012
epoch: 1000
next table: 1487
cur table: 1475
epoch: 1000
next table: 2011
cur table: 2010
epoch: 1000
next table: 1469
cur table: 1487
epoch: 1000
next table: 2011
cur table: 2011
epoch: 1000
next table: 1485
cur table: 1469
epoch: 1000
next table: 2010
cur table: 2011
epoch: 1000
next table: 1486
cur table: 1485
epoch: 1000
next table: 2012
cur table: 2010
epoch: 1000
next table: 1472
cur table: 1486
epoch: 1000
next table: 2015
cur table: 2012
epoch: 1000
next table: 1489
cur table: 1472
epoch: 1000
next table: 2013
cur table: 2015
epoch: 1000
next table: 1478
cur table: 1489
epoch: 1000
next table: 2014
cur table: 2013
epoch: 1000
next table: 1473
cur table: 1478
epoch: 1000
next table: 2011
cur table: 2014
epoch: 1000
next table: 1479
cur table: 1473
epoch: 1000
next table: 2014
cur table: 2011
epoch: 1000
next table: 1481
cur table: 1479
epoch: 1000
next table: 2017
cur table: 2014
epoch: 1000
next table: 1479
cur table: 1481
epoch: 1000
next table: 1476
cur table: 1479
epoch: 1000
next table: 2009
cur table: 2017
epoch: 1000
next table: 1485
cur table: 1476
epoch: 1000
next table: 2016
cur table: 2009
epoch: 1000
next table: 1503
cur table: 1485
epoch: 1000
next table: 2010
cur table: 2016
epoch: 1000
next table: 1507
cur table: 1503
epoch: 1000
next table: 2012
cur table: 2010
epoch: 1000
next table: 1480
cur table: 1507
epoch: 1000
next table: 2012
cur table: 2012
epoch: 1000
next table: 1475
cur table: 1480
epoch: 1000
next table: 2012
cur table: 2012
epoch: 1000
next table: 1482
cur table: 1475
epoch: 1000
next table: 2013
cur table: 2012
epoch: 1000
next table: 1478
cur table: 1482
epoch: 1000
next table: 2014
cur table: 2013
epoch: 1000
next table: 1470
cur table: 1478
epoch: 1000
next table: 2010
cur table: 2014
epoch: 1000
next table: 1480
cur table: 1470
epoch: 1000
next table: 2012
cur table: 2010
epoch: 1000
next table: 1475
cur table: 1480
epoch: 1000
next table: 2013
cur table: 2012
epoch: 1000
next table: 1483
cur table: 1475
epoch: 1000
next table: 2011
cur table: 2013
epoch: 1000
next table: 1479
cur table: 1483
epoch: 1000
next table: 1479
cur table: 1479
epoch: 1000
next table: 2012
cur table: 2011
epoch: 1000
next table: 1486
cur table: 1479
epoch: 1000
next table: 2011
cur table: 2012
epoch: 1000
next table: 1478
cur table: 1486
epoch: 1000
next table: 2017
cur table: 2011
epoch: 1000
next table: 1476
cur table: 1478
epoch: 1000
next table: 2007
cur table: 2017
epoch: 1000
next table: 1485
cur table: 1476
epoch: 1000
next table: 2016
cur table: 2007
epoch: 1000
next table: 1483
cur table: 1485
epoch: 1000
next table: 2011
cur table: 2016
epoch: 1000
next table: 1482
cur table: 1483
epoch: 1000
next table: 2011
cur table: 2011
epoch: 1000
next table: 1490
cur table: 1482
epoch: 1000
next table: 2014
cur table: 2011
epoch: 1000
next table: 1511
cur table: 1490
epoch: 1000
next table: 2014
cur table: 2014
epoch: 1000
next table: 1491
cur table: 1511
epoch: 1000
next table: 2011
cur table: 2014
epoch: 1000
next table: 1490
cur table: 1491
epoch: 1000
next table: 2014
cur table: 2011
epoch: 1000
next table: 1464
cur table: 1490
epoch: 1000
next table: 2009
cur table: 2014
epoch: 1000
next table: 1461
cur table: 1464
epoch: 1000
next table: 2011
cur table: 2009
epoch: 1000
next table: 1460
cur table: 1461
epoch: 1000
next table: 2012
cur table: 2011
epoch: 1000
next table: 1457
cur table: 1460
epoch: 1000
next table: 2013
cur table: 2012
epoch: 1000
next table: 1449
cur table: 1457
epoch: 1000
next table: 2010
cur table: 2013
epoch: 1000
next table: 1458
cur table: 1449
epoch: 1000
next table: 1454
cur table: 1458
epoch: 1000
next table: 2014
cur table: 2010
epoch: 1000
next table: 1451
cur table: 1454
epoch: 1000
next table: 2010
cur table: 2014
epoch: 1000
next table: 1457
cur table: 1451
epoch: 1000
next table: 2012
cur table: 2010
epoch: 1000
next table: 1448
cur table: 1457
epoch: 1000
next table: 2011
cur table: 2012
epoch: 1000
next table: 1456
cur table: 1448
epoch: 1000
next table: 2016
cur table: 2011
epoch: 1000
next table: 1457
cur table: 1456
epoch: 1000
next table: 2014
cur table: 2016
epoch: 1000
next table: 1448
cur table: 1457
epoch: 1000
next table: 2011
cur table: 2014
epoch: 1000
next table: 1457
cur table: 1448
epoch: 1000
next table: 2010
cur table: 2011
epoch: 1000
next table: 1455
cur table: 1457
epoch: 1000
next table: 2014
cur table: 2010
epoch: 1000
next table: 1460
cur table: 1455
epoch: 1000
next table: 2010
cur table: 2014
epoch: 1000
next table: 1457
cur table: 1460
epoch: 1000
next table: 2013
cur table: 2010
epoch: 1000
next table: 1456
cur table: 1457
epoch: 1000
next table: 2015
cur table: 2013
epoch: 1000
next table: 1460
cur table: 1456
epoch: 1000
next table: 2014
cur table: 2015
epoch: 1000
next table: 1454
cur table: 1460
epoch: 1000
next table: 2014
cur table: 2014
epoch: 1000
next table: 1471
cur table: 1454
epoch: 1000
next table: 2015
cur table: 2014
epoch: 1000
next table: 1472
cur table: 1471
epoch: 1000
next table: 2014
cur table: 2015
epoch: 1000
next table: 1468
cur table: 1472
epoch: 1000
next table: 2012
cur table: 2014
epoch: 1000
next table: 1453
cur table: 1468
epoch: 1000
next table: 2014
cur table: 2012
epoch: 1000
next table: 1464
cur table: 1453
epoch: 1000
next table: 2011
cur table: 2014
epoch: 1000
next table: 1448
cur table: 1464
epoch: 1000
next table: 2013
cur table: 2011
epoch: 1000
next table: 1453
cur table: 1448
epoch: 1000
next table: 2012
cur table: 2013
epoch: 1000
next table: 1459
cur table: 1453
epoch: 1000
next table: 1451
cur table: 1459
epoch: 1000
next table: 2009
cur table: 2012
epoch: 1000
next table: 1457
cur table: 1451
epoch: 1000
next table: 2013
cur table: 2009
epoch: 1000
next table: 1461
cur table: 1457
epoch: 1000
next table: 2014
cur table: 2013
epoch: 1000
next table: 1454
cur table: 1461
epoch: 1000
next table: 2015
cur table: 2014
epoch: 1000
next table: 1446
cur table: 1454
epoch: 1000
next table: 2013
cur table: 2015
epoch: 1000
next table: 1461
cur table: 1446
epoch: 1000
next table: 2008
cur table: 2013
epoch: 1000
next table: 1460
cur table: 1461
epoch: 1000
next table: 2015
cur table: 2008
epoch: 1000
next table: 1447
cur table: 1460
epoch: 1000
next table: 2011
cur table: 2015
epoch: 1000
next table: 1451
cur table: 1447
epoch: 1000
next table: 2011
cur table: 2011
epoch: 1000
next table: 1466
cur table: 1451
epoch: 1000
next table: 2010
cur table: 2011
epoch: 1000
next table: 1460
cur table: 1466
epoch: 1000
next table: 2015
cur table: 2010
epoch: 1000
next table: 1458
cur table: 1460
epoch: 1000
next table: 2011
cur table: 2015
epoch: 1000
next table: 1457
cur table: 1458
epoch: 1000
next table: 2009
cur table: 2011
epoch: 1000
next table: 1459
cur table: 1457
epoch: 1000
next table: 2017
cur table: 2009
epoch: 1000
next table: 1454
cur table: 1459
epoch: 1000
next table: 2014
cur table: 2017
epoch: 1000
next table: 1453
cur table: 1454
epoch: 1000
next table: 2012
cur table: 2014
epoch: 1000
next table: 1469
cur table: 1453
epoch: 1000
next table: 2013
cur table: 2012
epoch: 1000
next table: 1469
cur table: 1469
epoch: 1000
next table: 2014
cur table: 2013
epoch: 1000
next table: 1465
cur table: 1469
epoch: 1000
next table: 2010
cur table: 2014
epoch: 1000
next table: 1452
cur table: 1465
epoch: 1000
next table: 2011
cur table: 2010
epoch: 1000
next table: 1461
cur table: 1452
epoch: 1000
next table: 1451
cur table: 1461
epoch: 1000
next table: 2016
cur table: 2011
epoch: 1000
next table: 1444
cur table: 1451
epoch: 1000
next table: 2013
cur table: 2016
epoch: 1000
next table: 1453
cur table: 1444
epoch: 1000
next table: 2010
cur table: 2013
epoch: 1000
next table: 1444
cur table: 1453
epoch: 1000
next table: 2014
cur table: 2010
epoch: 1000
next table: 1451
cur table: 1444
epoch: 1000
next table: 2012
cur table: 2014
epoch: 1000
next table: 1453
cur table: 1451
epoch: 1000
next table: 2011
cur table: 2012
epoch: 1000
next table: 1459
cur table: 1453
epoch: 1000
next table: 2012
cur table: 2011
epoch: 1000
next table: 1456
cur table: 1459
epoch: 1000
next table: 2015
cur table: 2012
epoch: 1000
next table: 1448
cur table: 1456
epoch: 1000
next table: 2011
cur table: 2015
epoch: 1000
next table: 1464
cur table: 1448
epoch: 1000
next table: 2012
cur table: 2011
epoch: 1000
next table: 1450
cur table: 1464
epoch: 1000
next table: 2016
cur table: 2012
epoch: 1000
next table: 1454
cur table: 1450
epoch: 1000
next table: 2008
cur table: 2016
epoch: 1000
next table: 1448
cur table: 1454
epoch: 1000
next table: 2011
cur table: 2008
Heartbeat CPU 0 instructions: 20000000 cycles: 7254372 heartbeat IPC: 2.86062 cumulative IPC: 2.75696 (Simulation time: 0 hr 6 min 25 sec) 
epoch: 1000
next table: 1465
cur table: 1448
epoch: 1000
next table: 2015
cur table: 2011
epoch: 1000
next table: 1451
cur table: 1465
epoch: 1000
next table: 2008
cur table: 2015
epoch: 1000
next table: 1450
cur table: 1451
epoch: 1000
next table: 2016
cur table: 2008
epoch: 1000
next table: 1465
cur table: 1450
epoch: 1000
next table: 2009
cur table: 2016
epoch: 1000
next table: 1456
cur table: 1465
epoch: 1000
next table: 2010
cur table: 2009
epoch: 1000
next table: 1455
cur table: 1456
epoch: 1000
next table: 2017
cur table: 2010
epoch: 1000
next table: 1474
cur table: 1455
epoch: 1000
next table: 2013
cur table: 2017
epoch: 1000
next table: 1466
cur table: 1474
epoch: 1000
next table: 1468
cur table: 1466
epoch: 1000
next table: 2014
cur table: 2013
epoch: 1000
next table: 1454
cur table: 1468
epoch: 1000
next table: 2014
cur table: 2014
epoch: 1000
next table: 1451
cur table: 1454
epoch: 1000
next table: 2013
cur table: 2014
epoch: 1000
next table: 1447
cur table: 1451
epoch: 1000
next table: 2010
cur table: 2013
epoch: 1000
next table: 1455
cur table: 1447
epoch: 1000
next table: 2012
cur table: 2010
epoch: 1000
next table: 1448
cur table: 1455
epoch: 1000
next table: 2015
cur table: 2012
epoch: 1000
next table: 1460
cur table: 1448
epoch: 1000
next table: 2011
cur table: 2015
epoch: 1000
next table: 1450
cur table: 1460
epoch: 1000
next table: 2012
cur table: 2011
epoch: 1000
next table: 1458
cur table: 1450
epoch: 1000
next table: 2014
cur table: 2012
epoch: 1000
next table: 1455
cur table: 1458
epoch: 1000
next table: 2014
cur table: 2014
epoch: 1000
next table: 1454
cur table: 1455
epoch: 1000
next table: 2012
cur table: 2014
epoch: 1000
next table: 1451
cur table: 1454
epoch: 1000
next table: 2013
cur table: 2012
epoch: 1000
next table: 1460
cur table: 1451
epoch: 1000
next table: 2010
cur table: 2013
epoch: 1000
next table: 1449
cur table: 1460
epoch: 1000
next table: 2013
cur table: 2010
epoch: 1000
next table: 1457
cur table: 1449
epoch: 1000
next table: 2011
cur table: 2013
epoch: 1000
next table: 1444
cur table: 1457
epoch: 1000
next table: 2014
cur table: 2011
epoch: 1000
next table: 1451
cur table: 1444
epoch: 1000
next table: 2016
cur table: 2014
epoch: 1000
next table: 1451
cur table: 1451
epoch: 1000
next table: 2010
cur table: 2016
epoch: 1000
next table: 1449
cur table: 1451
epoch: 1000
next table: 2013
cur table: 2010
epoch: 1000
next table: 1455
cur table: 1449
epoch: 1000
next table: 1463
cur table: 1455
epoch: 1000
next table: 2013
cur table: 2013
epoch: 1000
next table: 1473
cur table: 1463
epoch: 1000
next table: 2013
cur table: 2013
epoch: 1000
next table: 1479
cur table: 1473
epoch: 1000
next table: 2012
cur table: 2013
epoch: 1000
next table: 1461
cur table: 1479
epoch: 1000
next table: 2015
cur table: 2012
epoch: 1000
next table: 1470
cur table: 1461
epoch: 1000
next table: 2011
cur table: 2015
epoch: 1000
next table: 1466
cur table: 1470
epoch: 1000
next table: 2013
cur table: 2011
epoch: 1000
next table: 1448
cur table: 1466
epoch: 1000
next table: 2013
cur table: 2013
epoch: 1000
next table: 1449
cur table: 1448
epoch: 1000
next table: 2011
cur table: 2013
epoch: 1000
next table: 1459
cur table: 1449
epoch: 1000
next table: 2015
cur table: 2011
epoch: 1000
next table: 1452
cur table: 1459
epoch: 1000
next table: 2012
cur table: 2015
epoch: 1000
next table: 1462
cur table: 1452
epoch: 1000
next table: 2014
cur table: 2012
epoch: 1000
next table: 1449
cur table: 1462
epoch: 1000
next table: 2010
cur table: 2014
epoch: 1000
next table: 1454
cur table: 1449
epoch: 1000
next table: 2012
cur table: 2010
epoch: 1000
next table: 1459
cur table: 1454
epoch: 1000
next table: 2015
cur table: 2012
epoch: 1000
next table: 1459
cur table: 1459
epoch: 1000
next table: 2012
cur table: 2015
epoch: 1000
next table: 1452
cur table: 1459
epoch: 1000
next table: 2016
cur table: 2012
epoch: 1000
next table: 1461
cur table: 1452
epoch: 1000
next table: 2013
cur table: 2016
epoch: 1000
next table: 1475
cur table: 1461
epoch: 1000
next table: 2008
cur table: 2013
epoch: 1000
next table: 1456
cur table: 1475
epoch: 1000
next table: 2013
cur table: 2008
epoch: 1000
next table: 1453
cur table: 1456
epoch: 1000
next table: 2010
cur table: 2013
epoch: 1000
next table: 1457
cur table: 1453
epoch: 1000
next table: 1452
cur table: 1457
epoch: 1000
next table: 2012
cur table: 2010
epoch: 1000
next table: 1453
cur table: 1452
epoch: 1000
next table: 2013
cur table: 2012
epoch: 1000
next table: 1463
cur table: 1453
epoch: 1000
next table: 2011
cur table: 2013
epoch: 1000
next table: 1466
cur table: 1463
epoch: 1000
next table: 2011
cur table: 2011
epoch: 1000
next table: 1476
cur table: 1466
epoch: 1000
next table: 2010
cur table: 2011
epoch: 1000
next table: 1472
cur table: 1476
epoch: 1000
next table: 2013
cur table: 2010
epoch: 1000
next table: 1456
cur table: 1472
epoch: 1000
next table: 2013
cur table: 2013
epoch: 1000
next table: 1443
cur table: 1456
epoch: 1000
next table: 2011
cur table: 2013
epoch: 1000
next table: 1457
cur table: 1443
epoch: 1000
next table: 2015
cur table: 2011
epoch: 1000
next table: 1451
cur table: 1457
epoch: 1000
next table: 2009
cur table: 2015
epoch: 1000
next table: 1463
cur table: 1451
epoch: 1000
next table: 2015
cur table: 2009
epoch: 1000
next table: 1452
cur table: 1463
epoch: 1000
next table: 2010
cur table: 2015
epoch: 1000
next table: 1455
cur table: 1452
epoch: 1000
next table: 2014
cur table: 2010
epoch: 1000
next table: 1453
cur table: 1455
epoch: 1000
next table: 2011
cur table: 2014
epoch: 1000
next table: 1444
cur table: 1453
epoch: 1000
next table: 2011
cur table: 2011
epoch: 1000
next table: 1456
cur table: 1444
epoch: 1000
next table: 2011
cur table: 2011
epoch: 1000
next table: 1454
cur table: 1456
epoch: 1000
next table: 2013
cur table: 2011
epoch: 1000
next table: 1451
cur table: 1454
epoch: 1000
next table: 2013
cur table: 2013
epoch: 1000
next table: 1453
cur table: 1451
epoch: 1000
next table: 2015
cur table: 2013
epoch: 1000
next table: 1456
cur table: 1453
epoch: 1000
next table: 2013
cur table: 2015
epoch: 1000
next table: 1456
cur table: 1456
epoch: 1000
next table: 1460
cur table: 1456
epoch: 1000
next table: 2014
cur table: 2013
epoch: 1000
next table: 1455
cur table: 1460
epoch: 1000
next table: 2012
cur table: 2014
epoch: 1000
next table: 1453
cur table: 1455
epoch: 1000
next table: 2008
cur table: 2012
epoch: 1000
next table: 1461
cur table: 1453
epoch: 1000
next table: 2012
cur table: 2008
epoch: 1000
next table: 1456
cur table: 1461
epoch: 1000
next table: 2012
cur table: 2012
epoch: 1000
next table: 1462
cur table: 1456
epoch: 1000
next table: 2011
cur table: 2012
epoch: 1000
next table: 1458
cur table: 1462
epoch: 1000
next table: 2017
cur table: 2011
epoch: 1000
next table: 1476
cur table: 1458
epoch: 1000
next table: 2014
cur table: 2017
epoch: 1000
next table: 1464
cur table: 1476
epoch: 1000
next table: 2015
cur table: 2014
epoch: 1000
next table: 1467
cur table: 1464
epoch: 1000
next table: 2006
cur table: 2015
epoch: 1000
next table: 1445
cur table: 1467
epoch: 1000
next table: 2012
cur table: 2006
epoch: 1000
next table: 1451
cur table: 1445
epoch: 1000
next table: 2013
cur table: 2012
epoch: 1000
next table: 1469
cur table: 1451
epoch: 1000
next table: 2010
cur table: 2013
epoch: 1000
next table: 1452
cur table: 1469
epoch: 1000
next table: 2011
cur table: 2010
epoch: 1000
next table: 1460
cur table: 1452
epoch: 1000
next table: 2016
cur table: 2011
epoch: 1000
next table: 1463
cur table: 1460
epoch: 1000
next table: 2012
cur table: 2016
epoch: 1000
next table: 1452
cur table: 1463
epoch: 1000
next table: 2016
cur table: 2012
epoch: 1000
next table: 1455
cur table: 1452
epoch: 1000
next table: 2014
cur table: 2016
epoch: 1000
next table: 1462
cur table: 1455
epoch: 1000
next table: 2014
cur table: 2014
epoch: 1000
next table: 1451
cur table: 1462
epoch: 1000
next table: 2004
cur table: 2014
epoch: 1000
next table: 1467
cur table: 1451
epoch: 1000
next table: 2018
cur table: 2004
epoch: 1000
next table: 1454
cur table: 1467
epoch: 1000
next table: 1463
cur table: 1454
epoch: 1000
next table: 2007
cur table: 2018
epoch: 1000
next table: 1459
cur table: 1463
epoch: 1000
next table: 2017
cur table: 2007
epoch: 1000
next table: 1451
cur table: 1459
epoch: 1000
next table: 2011
cur table: 2017
epoch: 1000
next table: 1465
cur table: 1451
epoch: 1000
next table: 2015
cur table: 2011
epoch: 1000
next table: 1459
cur table: 1465
epoch: 1000
next table: 2009
cur table: 2015
epoch: 1000
next table: 1466
cur table: 1459
epoch: 1000
next table: 2012
cur table: 2009
epoch: 1000
next table: 1455
cur table: 1466
epoch: 1000
next table: 2016
cur table: 2012
epoch: 1000
next table: 1460
cur table: 1455
epoch: 1000
next table: 2013
cur table: 2016
epoch: 1000
next table: 1470
cur table: 1460
epoch: 1000
next table: 2014
cur table: 2013
epoch: 1000
next table: 1475
cur table: 1470
epoch: 1000
next table: 2012
cur table: 2014
epoch: 1000
next table: 1463
cur table: 1475
epoch: 1000
next table: 2011
cur table: 2012
epoch: 1000
next table: 1461
cur table: 1463
epoch: 1000
next table: 2010
cur table: 2011
epoch: 1000
next table: 1464
cur table: 1461
epoch: 1000
next table: 2014
cur table: 2010
epoch: 1000
next table: 1459
cur table: 1464
epoch: 1000
next table: 2013
cur table: 2014
epoch: 1000
next table: 1452
cur table: 1459
epoch: 1000
next table: 2012
cur table: 2013
epoch: 1000
next table: 1458
cur table: 1452
epoch: 1000
next table: 2014
cur table: 2012
epoch: 1000
next table: 1454
cur table: 1458
epoch: 1000
next table: 2013
cur table: 2014
epoch: 1000
next table: 1455
cur table: 1454
epoch: 1000
next table: 2012
cur table: 2013
epoch: 1000
next table: 1463
cur table: 1455
epoch: 1000
next table: 2014
cur table: 2012
epoch: 1000
next table: 1460
cur table: 1463
epoch: 1000
next table: 2012
cur table: 2014
epoch: 1000
next table: 1444
cur table: 1460
epoch: 1000
next table: 2014
cur table: 2012
epoch: 1000
next table: 1455
cur table: 1444
epoch: 1000
next table: 2012
cur table: 2014
epoch: 1000
next table: 1459
cur table: 1455
epoch: 1000
next table: 1456
cur table: 1459
epoch: 1000
next table: 2013
cur table: 2012
epoch: 1000
next table: 1463
cur table: 1456
epoch: 1000
next table: 2011
cur table: 2013
epoch: 1000
next table: 1448
cur table: 1463
epoch: 1000
next table: 2017
cur table: 2011
epoch: 1000
next table: 1462
cur table: 1448
epoch: 1000
next table: 2010
cur table: 2017
epoch: 1000
next table: 1455
cur table: 1462
epoch: 1000
next table: 2015
cur table: 2010
epoch: 1000
next table: 1458
cur table: 1455
epoch: 1000
next table: 2014
cur table: 2015
epoch: 1000
next table: 1462
cur table: 1458
epoch: 1000
next table: 2018
cur table: 2014
epoch: 1000
next table: 1459
cur table: 1462
epoch: 1000
next table: 2010
cur table: 2018
epoch: 1000
next table: 1457
cur table: 1459
epoch: 1000
next table: 2015
cur table: 2010
epoch: 1000
next table: 1471
cur table: 1457
epoch: 1000
next table: 2012
cur table: 2015
epoch: 1000
next table: 1474
cur table: 1471
epoch: 1000
next table: 2015
cur table: 2012
epoch: 1000
next table: 1445
cur table: 1474
epoch: 1000
next table: 2014
cur table: 2015
epoch: 1000
next table: 1460
cur table: 1445
epoch: 1000
next table: 2012
cur table: 2014
epoch: 1000
next table: 1456
cur table: 1460
epoch: 1000
next table: 2014
cur table: 2012
epoch: 1000
next table: 1448
cur table: 1456
epoch: 1000
next table: 2010
cur table: 2014
epoch: 1000
next table: 1454
cur table: 1448
epoch: 1000
next table: 2013
cur table: 2010
epoch: 1000
next table: 1457
cur table: 1454
epoch: 1000
next table: 2014
cur table: 2013
epoch: 1000
next table: 1455
cur table: 1457
epoch: 1000
next table: 2010
cur table: 2014
epoch: 1000
next table: 1455
cur table: 1455
epoch: 1000
next table: 2014
cur table: 2010
epoch: 1000
next table: 1456
cur table: 1455
epoch: 1000
next table: 2017
cur table: 2014
epoch: 1000
next table: 1458
cur table: 1456
epoch: 1000
next table: 1459
cur table: 1458
epoch: 1000
next table: 2011
cur table: 2017
epoch: 1000
next table: 1457
cur table: 1459
epoch: 1000
next table: 2012
cur table: 2011
epoch: 1000
next table: 1458
cur table: 1457
epoch: 1000
next table: 2011
cur table: 2012
epoch: 1000
next table: 1462
cur table: 1458
epoch: 1000
next table: 2016
cur table: 2011
epoch: 1000
next table: 1454
cur table: 1462
epoch: 1000
next table: 2011
cur table: 2016
epoch: 1000
next table: 1457
cur table: 1454
epoch: 1000
next table: 2014
cur table: 2011
epoch: 1000
next table: 1458
cur table: 1457
epoch: 1000
next table: 2016
cur table: 2014
epoch: 1000
next table: 1459
cur table: 1458
epoch: 1000
next table: 2011
cur table: 2016
epoch: 1000
next table: 1453
cur table: 1459
epoch: 1000
next table: 2011
cur table: 2011
epoch: 1000
next table: 1459
cur table: 1453
epoch: 1000
next table: 2015
cur table: 2011
epoch: 1000
next table: 1466
cur table: 1459
epoch: 1000
next table: 2010
cur table: 2015
epoch: 1000
next table: 1464
cur table: 1466
epoch: 1000
next table: 2016
cur table: 2010
epoch: 1000
next table: 1478
cur table: 1464
epoch: 1000
next table: 2014
cur table: 2016
epoch: 1000
next table: 1472
cur table: 1478
epoch: 1000
next table: 2014
cur table: 2014
epoch: 1000
next table: 1444
cur table: 1472
epoch: 1000
next table: 2016
cur table: 2014
epoch: 1000
next table: 1463
cur table: 1444
epoch: 1000
next table: 2010
cur table: 2016
epoch: 1000
next table: 1445
cur table: 1463
epoch: 1000
next table: 2013
cur table: 2010
epoch: 1000
next table: 1454
cur table: 1445
epoch: 1000
next table: 2013
cur table: 2013
epoch: 1000
next table: 1462
cur table: 1454
epoch: 1000
next table: 2016
cur table: 2013
epoch: 1000
next table: 1453
cur table: 1462
epoch: 1000
next table: 2014
cur table: 2016
epoch: 1000
next table: 1459
cur table: 1453
epoch: 1000
next table: 2012
cur table: 2014
epoch: 1000
next table: 1455
cur table: 1459
epoch: 1000
next table: 1455
cur table: 1455
epoch: 1000
next table: 2008
cur table: 2012
epoch: 1000
next table: 1461
cur table: 1455
epoch: 1000
next table: 2015
cur table: 2008
epoch: 1000
next table: 1455
cur table: 1461
epoch: 1000
next table: 2010
cur table: 2015
epoch: 1000
next table: 1459
cur table: 1455
epoch: 1000
next table: 2014
cur table: 2010
epoch: 1000
next table: 1456
cur table: 1459
epoch: 1000
next table: 2010
cur table: 2014
epoch: 1000
next table: 1453
cur table: 1456
epoch: 1000
next table: 2017
cur table: 2010
epoch: 1000
next table: 1450
cur table: 1453
epoch: 1000
next table: 2011
cur table: 2017
epoch: 1000
next table: 1455
cur table: 1450
epoch: 1000
next table: 2014
cur table: 2011
epoch: 1000
next table: 1461
cur table: 1455
epoch: 1000
next table: 2010
cur table: 2014
epoch: 1000
next table: 1448
cur table: 1461
epoch: 1000
next table: 2014
cur table: 2010
epoch: 1000
next table: 1458
cur table: 1448
epoch: 1000
next table: 2014
cur table: 2014
epoch: 1000
next table: 1460
cur table: 1458
epoch: 1000
next table: 2013
cur table: 2014
epoch: 1000
next table: 1450
cur table: 1460
epoch: 1000
next table: 2008
cur table: 2013
epoch: 1000
next table: 1478
cur table: 1450
epoch: 1000
next table: 2012
cur table: 2008
epoch: 1000
next table: 1473
cur table: 1478
epoch: 1000
next table: 2009
cur table: 2012
epoch: 1000
next table: 1464
cur table: 1473
epoch: 1000
next table: 2016
cur table: 2009
epoch: 1000
next table: 1450
cur table: 1464
epoch: 1000
next table: 2010
cur table: 2016
epoch: 1000
next table: 1459
cur table: 1450
epoch: 1000
next table: 2018
cur table: 2010
epoch: 1000
next table: 1451
cur table: 1459
epoch: 1000
next table: 2011
cur table: 2018
epoch: 1000
next table: 1459
cur table: 1451
epoch: 1000
next table: 2014
cur table: 2011
epoch: 1000
next table: 1452
cur table: 1459
epoch: 1000
next table: 2013
cur table: 2014
epoch: 1000
next table: 1459
cur table: 1452
epoch: 1000
next table: 1460
cur table: 1459
epoch: 1000
next table: 2013
cur table: 2013
epoch: 1000
next table: 1460
cur table: 1460
epoch: 1000
next table: 2013
cur table: 2013
epoch: 1000
next table: 1448
cur table: 1460
epoch: 1000
next table: 2014
cur table: 2013
epoch: 1000
next table: 1456
cur table: 1448
epoch: 1000
next table: 2012
cur table: 2014
epoch: 1000
next table: 1457
cur table: 1456
epoch: 1000
next table: 2010
cur table: 2012
epoch: 1000
next table: 1453
cur table: 1457
epoch: 1000
next table: 2015
cur table: 2010
epoch: 1000
next table: 1464
cur table: 1453
epoch: 1000
next table: 2013
cur table: 2015
epoch: 1000
next table: 1451
cur table: 1464
epoch: 1000
next table: 2015
cur table: 2013
epoch: 1000
next table: 1456
cur table: 1451
epoch: 1000
next table: 2010
cur table: 2015
epoch: 1000
next table: 1454
cur table: 1456
epoch: 1000
next table: 2016
cur table: 2010
epoch: 1000
next table: 1450
cur table: 1454
epoch: 1000
next table: 2008
cur table: 2016
epoch: 1000
next table: 1459
cur table: 1450
epoch: 1000
next table: 2013
cur table: 2008
epoch: 1000
next table: 1453
cur table: 1459
epoch: 1000
next table: 2012
cur table: 2013
epoch: 1000
next table: 1457
cur table: 1453
epoch: 1000
next table: 2013
cur table: 2012
epoch: 1000
next table: 1462
cur table: 1457
epoch: 1000
next table: 2013
cur table: 2013
epoch: 1000
next table: 1474
cur table: 1462
epoch: 1000
next table: 2015
cur table: 2013
epoch: 1000
next table: 1460
cur table: 1474
epoch: 1000
next table: 2014
cur table: 2015
epoch: 1000
next table: 1457
cur table: 1460
epoch: 1000
next table: 2012
cur table: 2014
epoch: 1000
next table: 1450
cur table: 1457
epoch: 1000
next table: 2010
cur table: 2012
epoch: 1000
next table: 1459
cur table: 1450
epoch: 1000
next table: 2015
cur table: 2010
epoch: 1000
next table: 1464
cur table: 1459
epoch: 1000
next table: 1452
cur table: 1464
epoch: 1000
next table: 2011
cur table: 2015
epoch: 1000
next table: 1457
cur table: 1452
epoch: 1000
next table: 2014
cur table: 2011
epoch: 1000
next table: 1449
cur table: 1457
epoch: 1000
next table: 2012
cur table: 2014
epoch: 1000
next table: 1455
cur table: 1449
epoch: 1000
next table: 2012
cur table: 2012
epoch: 1000
next table: 1461
cur table: 1455
epoch: 1000
next table: 2012
cur table: 2012
epoch: 1000
next table: 1452
cur table: 1461
epoch: 1000
next table: 2015
cur table: 2012
epoch: 1000
next table: 1452
cur table: 1452
epoch: 1000
next table: 2014
cur table: 2015
epoch: 1000
next table: 1457
cur table: 1452
epoch: 1000
next table: 2012
cur table: 2014
epoch: 1000
next table: 1455
cur table: 1457
epoch: 1000
next table: 2015
cur table: 2012
epoch: 1000
next table: 1465
[...]
cur table: 1420
epoch: 1000
next table: 2011
cur table: 2011
epoch: 1000
next table: 1413
cur table: 1414
epoch: 1000
next table: 2018
cur table: 2011
epoch: 1000
next table: 1421
cur table: 1413
epoch: 1000
next table: 2007
cur table: 2018
epoch: 1000
next table: 1430
cur table: 1421
epoch: 1000
next table: 2010
cur table: 2007
epoch: 1000
next table: 1415
cur table: 1430
epoch: 1000
next table: 2014
cur table: 2010
epoch: 1000
next table: 1403
cur table: 1415
epoch: 1000
next table: 2009
cur table: 2014
epoch: 1000
next table: 1421
cur table: 1403
epoch: 1000
next table: 2013
cur table: 2009
epoch: 1000
next table: 1422
cur table: 1421
epoch: 1000
next table: 2011
cur table: 2013
epoch: 1000
next table: 1412
cur table: 1422
epoch: 1000
next table: 2012
cur table: 2011
epoch: 1000
next table: 1405
cur table: 1412
epoch: 1000
next table: 2013
cur table: 2012
epoch: 1000
next table: 1419
cur table: 1405
epoch: 1000
next table: 2017
cur table: 2013
epoch: 1000
next table: 1417
cur table: 1419
epoch: 1000
next table: 2011
cur table: 2017
epoch: 1000
next table: 1411
cur table: 1417
epoch: 1000
next table: 2012
cur table: 2011
epoch: 1000
next table: 1412
cur table: 1411
epoch: 1000
next table: 2014
cur table: 2012
epoch: 1000
next table: 1414
cur table: 1412
epoch: 1000
next table: 2012
cur table: 2014
epoch: 1000
next table: 1414
cur table: 1414
epoch: 1000
next table: 2013
cur table: 2012
epoch: 1000
next table: 1420
cur table: 1414
epoch: 1000
next table: 2014
cur table: 2013
epoch: 1000
next table: 1411
cur table: 1420
epoch: 1000
next table: 2015
cur table: 2014
epoch: 1000
next table: 1420
cur table: 1411
epoch: 1000
next table: 2009
cur table: 2015
epoch: 1000
next table: 1409
cur table: 1420
epoch: 1000
next table: 2014
cur table: 2009
epoch: 1000
next table: 1419
cur table: 1409
epoch: 1000
next table: 2012
cur table: 2014
epoch: 1000
next table: 1414
cur table: 1419
epoch: 1000
next table: 2014
cur table: 2012
epoch: 1000
next table: 1412
cur table: 1414
epoch: 1000
next table: 2013
cur table: 2014
epoch: 1000
next table: 1429
cur table: 1412
epoch: 1000
next table: 2011
cur table: 2013
epoch: 1000
next table: 1427
cur table: 1429
Heartbeat CPU 0 instructions: 100000000 cycles: 78971300 heartbeat IPC: 0.742755 cumulative IPC: 0.830706 (Simulation time: 0 hr 26 min 36 sec) 
Finished CPU 0 instructions: 50000003 cycles: 60189746 cumulative IPC: 0.830706 (Simulation time: 0 hr 26 min 36 sec) 

ChampSim completed all CPUs

Region of Interest Statistics

CPU 0 cumulative IPC: 0.830706 instructions: 50000003 cycles: 60189746
ITLB TOTAL     ACCESS:    7348268  HIT:    7348266  MISS:          2  HIT %:        100  MISS %: 2.72173e-05   MPKI: 4e-05
ITLB LOAD TRANSLATION ACCESS:    7348268  HIT:    7348266  MISS:          2  HIT %:        100  MISS %: 2.72173e-05   MPKI: 4e-05
ITLB PREFETCH  REQUESTED:          0  ISSUED:          0  USEFUL:          0  USELESS:          0
ITLB USEFUL LOAD PREFETCHES:          0 PREFETCH ISSUED TO LOWER LEVEL:          0  ACCURACY: -nan
ITLB TIMELY PREFETCHES:          0 LATE PREFETCHES: 0 DROPPED PREFETCHES: 0
ITLB PREFETCHES SAME FILL-ORIGIN LEVEL: 0 DIFFERENT FILL-ORIGIN LEVEL: 0
ITLB AVERAGE MISS LATENCY: 320 cycles
ITLB RQ	ACCESS:    8929600	FORWARD:          0	MERGED:    1581332	TO_CACHE:    7348268

Revised Interactions: positive negative neutral
ITLB_interactions 0 0 0 -nan -nan -nan
DTLB TOTAL     ACCESS:   10011305  HIT:    9991685  MISS:      19620  HIT %:     99.804  MISS %:   0.195978   MPKI: 0.3924
DTLB LOAD TRANSLATION ACCESS:   10011305  HIT:    9991685  MISS:      19620  HIT %:     99.804  MISS %:   0.195978   MPKI: 0.3924
DTLB PREFETCH  REQUESTED:          0  ISSUED:          0  USEFUL:          0  USELESS:          0
DTLB USEFUL LOAD PREFETCHES:          0 PREFETCH ISSUED TO LOWER LEVEL:          0  ACCURACY: -nan
DTLB TIMELY PREFETCHES:          0 LATE PREFETCHES: 0 DROPPED PREFETCHES: 0
DTLB PREFETCHES SAME FILL-ORIGIN LEVEL: 0 DIFFERENT FILL-ORIGIN LEVEL: 0
DTLB AVERAGE MISS LATENCY: 124.575 cycles
DTLB RQ	ACCESS:   10384390	FORWARD:          0	MERGED:     355231	TO_CACHE:   10029159

Revised Interactions: positive negative neutral
DTLB_interactions 0 0 0 -nan -nan -nan
STLB TOTAL     ACCESS:      19622  HIT:       1344  MISS:      18278  HIT %:    6.84945  MISS %:    93.1505   MPKI: 0.36556
STLB LOAD TRANSLATION ACCESS:      19622  HIT:       1344  MISS:      18278  HIT %:    6.84945  MISS %:    93.1505   MPKI: 0.36556
STLB PREFETCH  REQUESTED:          0  ISSUED:          0  USEFUL:          0  USELESS:          0
STLB USEFUL LOAD PREFETCHES:          0 PREFETCH ISSUED TO LOWER LEVEL:          0  ACCURACY: -nan
STLB TIMELY PREFETCHES:          0 LATE PREFETCHES: 0 DROPPED PREFETCHES: 0
STLB PREFETCHES SAME FILL-ORIGIN LEVEL: 0 DIFFERENT FILL-ORIGIN LEVEL: 0
STLB AVERAGE MISS LATENCY: 124.024 cycles
STLB RQ	ACCESS:      19622	FORWARD:          0	MERGED:          0	TO_CACHE:      19622

Revised Interactions: positive negative neutral
STLB_interactions 0 0 0 -nan -nan -nan
STLB Hit, L1D data hit: 0
STLB Hit, L2C data hit: 0
STLB Hit, LLC data hit: 0
STLB Hit, LLC data miss: 0
STLB STLB hints to L2: 0
L1D TOTAL     ACCESS:    8799307  HIT:    7661238  MISS:    1138069  HIT %:    87.0664  MISS %:    12.9336   MPKI: 22.7614
L1D LOAD      ACCESS:    8356181  HIT:    7490340  MISS:     865841  HIT %:    89.6383  MISS %:    10.3617   MPKI: 17.3168
L1D RFO       ACCESS:     443126  HIT:     170898  MISS:     272228  HIT %:    38.5665  MISS %:    61.4335   MPKI: 5.44456
L1D PREFETCH  REQUESTED:          0  ISSUED:          0  USEFUL:          0  USELESS:          0
L1D USEFUL LOAD PREFETCHES:          0 PREFETCH ISSUED TO LOWER LEVEL:          0  ACCURACY: -nan
L1D TIMELY PREFETCHES:          0 LATE PREFETCHES: 0 DROPPED PREFETCHES: 0
L1D PREFETCHES SAME FILL-ORIGIN LEVEL: 0 DIFFERENT FILL-ORIGIN LEVEL: 0
L1D AVERAGE MISS LATENCY: 90.7308 cycles
L1D RQ	ACCESS:   13684537	FORWARD:          0	MERGED:    5140313	TO_CACHE:    8543648
L1D WQ	ACCESS:    1840742	FORWARD:        576	MERGED:          0	TO_CACHE:    1840742

Revised Interactions: positive negative neutral
L1D_interactions 0 0 0 -nan -nan -nan
L1D UNIQUE REGIONS ACCESSED: 0
L1D REGIONS CONFLICTS: 0
L1D Cross Page Prefetch Requests: 0
L1D Same Page Prefetch Requests: 0
L1D ROI Sum of L1D PQ occupancy: 0
L1D PREFETCHES PUSHED FROM L2C: 0
L1I TOTAL     ACCESS:    8929521  HIT:    8929376  MISS:        145  HIT %:    99.9984  MISS %: 0.00162383   MPKI: 0.0029
L1I LOAD      ACCESS:    8929521  HIT:    8929376  MISS:        145  HIT %:    99.9984  MISS %: 0.00162383   MPKI: 0.0029
L1I PREFETCH  REQUESTED:          0  ISSUED:          0  USEFUL:          0  USELESS:          0
L1I USEFUL LOAD PREFETCHES:          0 PREFETCH ISSUED TO LOWER LEVEL:          0  ACCURACY: -nan
L1I TIMELY PREFETCHES:          0 LATE PREFETCHES: 0 DROPPED PREFETCHES: 0
L1I PREFETCHES SAME FILL-ORIGIN LEVEL: 0 DIFFERENT FILL-ORIGIN LEVEL: 0
L1I AVERAGE MISS LATENCY: 261.993 cycles
L1I RQ	ACCESS:   12508915	FORWARD:          0	MERGED:    3579315	TO_CACHE:    8929600

Revised Interactions: positive negative neutral
L1I_interactions 0 0 0 -nan -nan -nan
BTB TOTAL     ACCESS:    1565915  HIT:    1565883  MISS:         32  HIT %:     99.998  MISS %: 0.00204353   MPKI: 0.00064
BTB BRANCH_DIRECT_JUMP	ACCESS:          0  HIT:          0  MISS:          0
BTB BRANCH_INDIRECT	ACCESS:          0  HIT:          0  MISS:          0
BTB BRANCH_CONDITIONAL	ACCESS:    1565909  HIT:    1565883  MISS:         26
BTB BRANCH_DIRECT_CALL	ACCESS:          3  HIT:          0  MISS:          3
BTB BRANCH_INDIRECT_CALL	ACCESS:          0  HIT:          0  MISS:          0
BTB BRANCH_RETURN	ACCESS:          3  HIT:          0  MISS:          3
BTB BRANCH_OTHER ACCESS:          0  HIT:          0  MISS:          0

L2C TOTAL     ACCESS:    3241054  HIT:    2330262  MISS:     910792  HIT %:    71.8983  MISS %:    28.1017   MPKI: 18.2158
L2C LOAD      ACCESS:     865986  HIT:     677259  MISS:     188727  HIT %:    78.2067  MISS %:    21.7933   MPKI: 3.77454
L2C DATA LOAD MPKI: 3.77164
L2C INSTRUCTION LOAD MPKI: 0.0029
L2C RFO       ACCESS:     272228  HIT:          4  MISS:     272224  HIT %: 0.00146936  MISS %:    99.9985   MPKI: 5.44448
L2C PREFETCH  ACCESS:    1810111  HIT:    1369968  MISS:     440143  HIT %:    75.6842  MISS %:    24.3158   MPKI: 8.80286
L2C DATA PREFETCH MPKI: 8.80286
L2C INSTRUCTION PREFETCH MPKI: 0
L2C WRITEBACK ACCESS:     274404  HIT:     268423  MISS:       5981  HIT %:    97.8204  MISS %:    2.17963   MPKI: 0.11962
L2C LOAD TRANSLATION ACCESS:      18325  HIT:      14608  MISS:       3717  HIT %:    79.7162  MISS %:    20.2838   MPKI: 0.07434
L2C PREFETCH  REQUESTED:    6857170  ISSUED:    6570331  USEFUL:     436491  USELESS:       3643
L2C USEFUL LOAD PREFETCHES:     436491 PREFETCH ISSUED TO LOWER LEVEL:    5152247  ACCURACY: 8.47186
L2C TIMELY PREFETCHES:     436491 LATE PREFETCHES: 5225 DROPPED PREFETCHES: 0
L2C PREFETCHES SAME FILL-ORIGIN LEVEL: 445368 DIFFERENT FILL-ORIGIN LEVEL: 4706879
L2C AVERAGE MISS LATENCY: 112.101 cycles
L2C RQ	ACCESS:    1156540	FORWARD:          0	MERGED:          0	TO_CACHE:    1156540
L2C WQ	ACCESS:     274404	FORWARD:          0	MERGED:          0	TO_CACHE:     274404
L2C PQ	ACCESS:    6570331	FORWARD:          0	MERGED:      44631	TO_CACHE:    6525700

Revised Interactions: positive negative neutral
L2C_interactions 435537 3465 1828 98.7993 0.786017 0.414672
L2C Instructions Evicting Data 137
L2C Translations Evicting Data 3699
L2C Data Evicting Data 897124
L2C Instructions Evicting Instructions 0
L2C Translations Evicting Instructions 2
L2C Data Evicting Instructions 143
L2C Instructions Evicting Translations 8
L2C Translations Evicting Translations 16
L2C Data Evicting Translations 3682
L2C Dense regions hint from L2: 0
PSCL5 TOTAL     ACCESS:      18278  HIT:      18278  MISS:          0  HIT %:        100  MISS %:          0   MPKI: 0
PSCL5 LOAD TRANSLATION ACCESS:      18278  HIT:      18278  MISS:          0  HIT %:        100  MISS %:          0   MPKI: 0
PSCL5 PREFETCH  REQUESTED:          0  ISSUED:          0  USEFUL:          0  USELESS:          0
PSCL5 USEFUL LOAD PREFETCHES:          0 PREFETCH ISSUED TO LOWER LEVEL:          0  ACCURACY: -nan
PSCL5 TIMELY PREFETCHES:          0 LATE PREFETCHES: 0 DROPPED PREFETCHES: 0
PSCL5 PREFETCHES SAME FILL-ORIGIN LEVEL: 0 DIFFERENT FILL-ORIGIN LEVEL: 0

Revised Interactions: positive negative neutral
PSCL5_interactions 0 0 0 -nan -nan -nan
PSCL4 TOTAL     ACCESS:      18278  HIT:      18278  MISS:          0  HIT %:        100  MISS %:          0   MPKI: 0
PSCL4 LOAD TRANSLATION ACCESS:      18278  HIT:      18278  MISS:          0  HIT %:        100  MISS %:          0   MPKI: 0
PSCL4 PREFETCH  REQUESTED:          0  ISSUED:          0  USEFUL:          0  USELESS:          0
PSCL4 USEFUL LOAD PREFETCHES:          0 PREFETCH ISSUED TO LOWER LEVEL:          0  ACCURACY: -nan
PSCL4 TIMELY PREFETCHES:          0 LATE PREFETCHES: 0 DROPPED PREFETCHES: 0
PSCL4 PREFETCHES SAME FILL-ORIGIN LEVEL: 0 DIFFERENT FILL-ORIGIN LEVEL: 0

Revised Interactions: positive negative neutral
PSCL4_interactions 0 0 0 -nan -nan -nan
PSCL3 TOTAL     ACCESS:      18278  HIT:      18278  MISS:          0  HIT %:        100  MISS %:          0   MPKI: 0
PSCL3 LOAD TRANSLATION ACCESS:      18278  HIT:      18278  MISS:          0  HIT %:        100  MISS %:          0   MPKI: 0
PSCL3 PREFETCH  REQUESTED:          0  ISSUED:          0  USEFUL:          0  USELESS:          0
PSCL3 USEFUL LOAD PREFETCHES:          0 PREFETCH ISSUED TO LOWER LEVEL:          0  ACCURACY: -nan
PSCL3 TIMELY PREFETCHES:          0 LATE PREFETCHES: 0 DROPPED PREFETCHES: 0
PSCL3 PREFETCHES SAME FILL-ORIGIN LEVEL: 0 DIFFERENT FILL-ORIGIN LEVEL: 0

Revised Interactions: positive negative neutral
PSCL3_interactions 0 0 0 -nan -nan -nan
PSCL2 TOTAL     ACCESS:      18278  HIT:      18229  MISS:         49  HIT %:    99.7319  MISS %:   0.268082   MPKI: 0.00098
PSCL2 LOAD TRANSLATION ACCESS:      18278  HIT:      18229  MISS:         49  HIT %:    99.7319  MISS %:   0.268082   MPKI: 0.00098
PSCL2 PREFETCH  REQUESTED:          0  ISSUED:          0  USEFUL:          0  USELESS:          0
PSCL2 USEFUL LOAD PREFETCHES:          0 PREFETCH ISSUED TO LOWER LEVEL:          0  ACCURACY: -nan
PSCL2 TIMELY PREFETCHES:          0 LATE PREFETCHES: 0 DROPPED PREFETCHES: 0
PSCL2 PREFETCHES SAME FILL-ORIGIN LEVEL: 0 DIFFERENT FILL-ORIGIN LEVEL: 0

Revised Interactions: positive negative neutral
PSCL2_interactions 0 0 0 -nan -nan -nan
LLC TOTAL     ACCESS:    5603269  HIT:    4447268  MISS:    1156001  HIT %:    79.3692  MISS %:    20.6308   MPKI: 23.12
LLC LOAD      ACCESS:     183502  HIT:     162205  MISS:      21297  HIT %:    88.3941  MISS %:    11.6059   MPKI: 0.42594
LLC RFO       ACCESS:     272224  HIT:       1349  MISS:     270875  HIT %:   0.495548  MISS %:    99.5045   MPKI: 5.4175
LLC PREFETCH  ACCESS:    4869360  HIT:    4233753  MISS:     635607  HIT %:    86.9468  MISS %:    13.0532   MPKI: 12.7121
LLC WRITEBACK ACCESS:     274466  HIT:      49884  MISS:     224582  HIT %:    18.1749  MISS %:    81.8251   MPKI: 4.49164
LLC LOAD TRANSLATION ACCESS:       3717  HIT:         77  MISS:       3640  HIT %:    2.07156  MISS %:    97.9284   MPKI: 0.0728
LLC PREFETCH  REQUESTED:          0  ISSUED:          0  USEFUL:     161645  USELESS:     461951
LLC USEFUL LOAD PREFETCHES:     161645 PREFETCH ISSUED TO LOWER LEVEL:     637022  ACCURACY: 25.3751
LLC TIMELY PREFETCHES:     161645 LATE PREFETCHES: 1413 DROPPED PREFETCHES: 0
LLC PREFETCHES SAME FILL-ORIGIN LEVEL: 628685 DIFFERENT FILL-ORIGIN LEVEL: 0
LLC AVERAGE MISS LATENCY: 186.842 cycles
LLC RQ	ACCESS:     459444	FORWARD:          0	MERGED:          0	TO_CACHE:     459444
LLC WQ	ACCESS:     274466	FORWARD:          0	MERGED:          0	TO_CACHE:     274466
LLC PQ	ACCESS:    5152247	FORWARD:          0	MERGED:       5750	TO_CACHE:    5146497

Revised Interactions: positive negative neutral
LLC_interactions 159823 474682 124901 21.0458 62.507 16.4472
LLC Dense regions hint to LLC: 0

RAW hits: 3004
Loads Generated: 13687541
Loads sent to L1D: 13684537
Stores Generated: 1840903
Stores sent to L1D: 1840904
Major fault: 0 Minor fault: 33684
Allocated PAGES: 33684
 All Calls: 2245822
 Critical Calls: 2245822
------------------
Depth Distribution
------------------
depth 0: 0
depth 1: 2089935
depth 2: 2022585
depth 3: 1958088
depth 4: 1891273
depth 5: 1812361
depth 6: 1718166
depth 7: 1516215
depth 8: 1159279
depth 9: 785942
depth 10: 477843
depth 11: 249037
depth 12: 119940
depth 13: 48663
depth 14: 14657
depth 15: 14300
depth 16: 25
depth 17: 0
depth 18: 0
depth 19: 0
depth 20: 0
depth 21: 0
depth 22: 0
depth 23: 0
depth 24: 0
depth 25: 0
depth 26: 0
depth 27: 0
depth 28: 0
depth 29: 0
Total: 15878309
-----------------------------
-----------------------------
	Captured at Filter
-----------------------------
depth 0: 0
depth 1: 85676
depth 2: 81904
depth 3: 78812
depth 4: 76085
depth 5: 72139
depth 6: 66935
depth 7: 59219
depth 8: 43055
depth 9: 30153
depth 10: 13736
depth 11: 4892
depth 12: 1105
depth 13: 226
depth 14: 69
depth 15: 53
depth 16: 0
depth 17: 0
depth 18: 0
depth 19: 0
depth 20: 0
depth 21: 0
depth 22: 0
depth 23: 0
depth 24: 0
depth 25: 0
depth 26: 0
depth 27: 0
depth 28: 0
depth 29: 0
-----------------------------
-----------------------------
		Lost at Page
-----------------------------
depth 0: 0
depth 1: 35155
depth 2: 69235
depth 3: 103307
depth 4: 137387
depth 5: 170979
depth 6: 204026
depth 7: 219722
depth 8: 200787
depth 9: 159740
depth 10: 109987
depth 11: 64417
depth 12: 32556
depth 13: 12682
depth 14: 4119
depth 15: 4418
depth 16: 1
depth 17: 0
depth 18: 0
depth 19: 0
depth 20: 0
depth 21: 0
depth 22: 0
depth 23: 0
depth 24: 0
depth 25: 0
depth 26: 0
depth 27: 0
depth 28: 0
depth 29: 0
-----------------------------
-----------------------------
	Lost due to PQ Size
-----------------------------
1288597
-----------------------------
ST read accesses: 851382
ST write accesses: 14459
PT read accesses: 43609524
PT write accesses: 1270568
FILTER read accesses: 8975623
FILTER write accesses: 2027490
GHR read accesses: 3953862
GHR write accesses: 651297
GHR counter read accesses: 36572458
GHR counter write accesses: 1990335
ST tag read accesses: 340040921
ST tag write accesses: 8682928

DRAM Statistics
 CHANNEL 0
 RQ ROW_BUFFER_HIT:     129120  ROW_BUFFER_MISS:     802291
 DBUS_CONGESTED:        159
 WQ ROW_BUFFER_HIT:      66925  ROW_BUFFER_MISS:     215728  FULL:         77

 AVG_CONGESTED_CYCLE: 4
 All warmup complete: 2
Channel 0 Bank busy for read cycles: 0
Channel 0 Bank busy for write cycles: 0
Channel 0
Rank 0
0banks busy for read cycles: 9038189
0banks busy for write cycles: 11049
1banks busy for read cycles: 11864469
1banks busy for write cycles: 1523661
2banks busy for read cycles: 8236440
2banks busy for write cycles: 497726
3banks busy for read cycles: 5596210
3banks busy for write cycles: 363706
4banks busy for read cycles: 4999677
4banks busy for write cycles: 338261
5banks busy for read cycles: 3817151
5banks busy for write cycles: 343847
6banks busy for read cycles: 2056409
6banks busy for write cycles: 414456
7banks busy for read cycles: 1495184
7banks busy for write cycles: 913369
8banks busy for read cycles: 2943058
8banks busy for write cycles: 5736885

CPU 0 Branch Prediction Accuracy: 99.7618% MPKI: 0.07482 Average ROB Occupancy at Mispredict: 76.1414
Branch types
NOT_BRANCH: 48429657 96.8593%
BRANCH_DIRECT_JUMP: 0 0%
BRANCH_INDIRECT: 0 0%
BRANCH_CONDITIONAL: 1570362 3.14072%
BRANCH_DIRECT_CALL: 3 6e-06%
BRANCH_INDIRECT_CALL: 0 0%
BRANCH_RETURN: 3 6e-06%
BRANCH_OTHER: 0 0%

@sumon_overall_L1D         0         0         0         0         0         0         0
@Sumon_Early_by_class_L1D         0         0         0         0
@Sumon_Late_by_class_L1D         0         0         0         0

@Sumon_Early_by_cycle_L1D         0         0         0         0         0         0         0         0         0         0         0         0
@Sumon_Late_by_cycle_L1D         0         0         0         0         0         0
@Sumon_Early_stream_L1D         0         0         0         0         0         0         0         0         0         0         0         0
@Sumon_Early_CS_L1D         0         0         0         0         0         0         0         0         0         0         0         0
@Sumon_Early_CPLX_L1D         0         0         0         0         0         0         0         0         0         0         0         0
@Sumon_Late_stream_L1D         0         0         0         0         0         0
@Sumon_Late_CS_L1D         0         0         0         0         0         0
@Sumon_Late_CPLX_L1D         0         0         0         0         0         0
@sumon_overall_L2C    436491      5225         0      3643    440143   6570331   6857170
@Sumon_Early_by_class_L2C         0         0         0         0
@Sumon_Late_by_class_L2C         0         0         0         0

@Sumon_Early_by_cycle_L2C    101604    136128     64351    128723      3253       958         1         2         0      1465         4         2
@Sumon_Late_by_cycle_L2C       699      1024      1056       520      1756       170
@Sumon_Early_stream_L2C         0         0         0         0         0         0         0         0         0         0         0         0
@Sumon_Early_CS_L2C         0         0         0         0         0         0         0         0         0         0         0         0
@Sumon_Early_CPLX_L2C         0         0         0         0         0         0         0         0         0         0         0         0
@Sumon_Late_stream_L2C         0         0         0         0         0         0
@Sumon_Late_CS_L2C         0         0         0         0         0         0
@Sumon_Late_CPLX_L2C         0         0         0         0         0         0
DRAM PAGES: 1048576
Allocated PAGES: 33684
