
*** ChampSim Multicore Out-of-Order Simulator ***

Warmup Instructions: 10000000
Simulation Instructions: 50000000
Number of CPUs: 1
LLC sets: 2048
LLC ways: 16
Off-chip DRAM Size: 4096 MB Channels: 1 Width: 64-bit Data Rate: 400 MT/s
CPU 0 runs traces/clientserver/client_005.champsimtrace.xz
.xz
CPU 0 Bimodal branch predictor
BTB has LRU replacement policy
ITLB has LRU replacement policy
DTLB has LRU replacement policy
STLB has LRU replacement policy
L1I has LRU replacement policy
IP Table Entries: 256
L1D has LRU replacement policy
IP_Table L2 entries: 256
L2C has LRU replacement policy
LLC has LRU replacement policy
Heartbeat CPU 0 instructions: 10000002 cycles: 2797971 heartbeat IPC: 3.57402 cumulative IPC: 3.57402 (Simulation time: 0 hr 17 min 8 sec) 

Warmup complete CPU 0 instructions: 10000002 cycles: 2797971 (Simulation time: 0 hr 17 min 8 sec) 

Heartbeat CPU 0 instructions: 20000003 cycles: 20847135 heartbeat IPC: 0.554042 cumulative IPC: 0.554042 (Simulation time: 0 hr 34 min 50 sec) 
Heartbeat CPU 0 instructions: 30000003 cycles: 36712898 heartbeat IPC: 0.630288 cumulative IPC: 0.589711 (Simulation time: 0 hr 55 min 50 sec) 
Heartbeat CPU 0 instructions: 40000001 cycles: 53104573 heartbeat IPC: 0.610066 cumulative IPC: 0.596343 (Simulation time: 1 hr 17 min 6 sec) 
Heartbeat CPU 0 instructions: 50000000 cycles: 74589970 heartbeat IPC: 0.465432 cumulative IPC: 0.557165 (Simulation time: 1 hr 36 min 36 sec) 
Heartbeat CPU 0 instructions: 60000001 cycles: 93643918 heartbeat IPC: 0.524826 cumulative IPC: 0.550382 (Simulation time: 1 hr 47 min 57 sec) 
Finished CPU 0 instructions: 50000000 cycles: 90845948 cumulative IPC: 0.550382 (Simulation time: 1 hr 47 min 57 sec) 

ChampSim completed all CPUs

Region of Interest Statistics

CPU 0 cumulative IPC: 0.550382 instructions: 50000000 cycles: 90845948
ITLB TOTAL     ACCESS:    8433814  HIT:    8338741  MISS:      95073  HIT %:    98.8727  MISS %:    1.12728   MPKI: 1.90146
ITLB LOAD TRANSLATION ACCESS:    8433814  HIT:    8338741  MISS:      95073  HIT %:    98.8727  MISS %:    1.12728   MPKI: 1.90146
ITLB PREFETCH  REQUESTED:          0  ISSUED:          0  USEFUL:          0  USELESS:          0
ITLB USEFUL LOAD PREFETCHES:          0 PREFETCH ISSUED TO LOWER LEVEL:          0  ACCURACY: -nan
ITLB TIMELY PREFETCHES:          0 LATE PREFETCHES: 0 DROPPED PREFETCHES: 0
ITLB PREFETCHES SAME FILL-ORIGIN LEVEL: 0 DIFFERENT FILL-ORIGIN LEVEL: 0
ITLB AVERAGE MISS LATENCY: 10.8104 cycles
ITLB RQ	ACCESS:    9985352	FORWARD:          0	MERGED:    1527037	TO_CACHE:    8458315

DTLB TOTAL     ACCESS:   10733692  HIT:   10530584  MISS:     203108  HIT %:    98.1078  MISS %:    1.89225   MPKI: 4.06216
DTLB LOAD TRANSLATION ACCESS:   10733692  HIT:   10530584  MISS:     203108  HIT %:    98.1078  MISS %:    1.89225   MPKI: 4.06216
DTLB PREFETCH  REQUESTED:          0  ISSUED:          0  USEFUL:          0  USELESS:          0
DTLB USEFUL LOAD PREFETCHES:          0 PREFETCH ISSUED TO LOWER LEVEL:          0  ACCURACY: -nan
DTLB TIMELY PREFETCHES:          0 LATE PREFETCHES: 0 DROPPED PREFETCHES: 0
DTLB PREFETCHES SAME FILL-ORIGIN LEVEL: 0 DIFFERENT FILL-ORIGIN LEVEL: 0
DTLB AVERAGE MISS LATENCY: 14.5176 cycles
DTLB RQ	ACCESS:   14619375	FORWARD:          0	MERGED:    3858799	TO_CACHE:   10760576

STLB TOTAL     ACCESS:     616717  HIT:     605556  MISS:      11161  HIT %:    98.1903  MISS %:    1.80974   MPKI: 0.22322
STLB LOAD TRANSLATION ACCESS:     298181  HIT:     287020  MISS:      11161  HIT %:     96.257  MISS %:    3.74303   MPKI: 0.22322
STLB TRANSLATION FROM L1D PREFETCHER ACCESS:     318536  HIT:     318536  MISS:          0  HIT %:        100  MISS %:          0   MPKI: 0
STLB PREFETCH  REQUESTED:          0  ISSUED:          0  USEFUL:          0  USELESS:          0
STLB USEFUL LOAD PREFETCHES:          0 PREFETCH ISSUED TO LOWER LEVEL:          0  ACCURACY: -nan
STLB TIMELY PREFETCHES:          0 LATE PREFETCHES: 0 DROPPED PREFETCHES: 0
STLB PREFETCHES SAME FILL-ORIGIN LEVEL: 0 DIFFERENT FILL-ORIGIN LEVEL: 0
STLB AVERAGE MISS LATENCY: 114.121 cycles
STLB RQ	ACCESS:     694914	FORWARD:          0	MERGED:      78197	TO_CACHE:     616717

STLB Hit, L1D data hit: 0
STLB Hit, L2C data hit: 0
STLB Hit, LLC data hit: 0
STLB Hit, LLC data miss: 0
STLB STLB hints to L2: 0
L1D TOTAL     ACCESS:   14517412  HIT:   14044879  MISS:     472533  HIT %:    96.7451  MISS %:    3.25494   MPKI: 9.45066
L1D LOAD      ACCESS:    7323938  HIT:    7151161  MISS:     172777  HIT %:    97.6409  MISS %:    2.35907   MPKI: 3.45554
L1D RFO       ACCESS:    6809958  HIT:    6612892  MISS:     197066  HIT %:    97.1062  MISS %:    2.89379   MPKI: 3.94132
L1D PREFETCH  ACCESS:     383516  HIT:     280826  MISS:     102690  HIT %:    73.2241  MISS %:    26.7759   MPKI: 2.0538
L1D PREFETCH  REQUESTED:     794307  ISSUED:     794287  USEFUL:      34460  USELESS:      68293
L1D USEFUL LOAD PREFETCHES:      34460 PREFETCH ISSUED TO LOWER LEVEL:     108599  ACCURACY: 31.7314
L1D TIMELY PREFETCHES:      34460 LATE PREFETCHES: 5222 DROPPED PREFETCHES: 0
L1D PREFETCHES SAME FILL-ORIGIN LEVEL: 108599 DIFFERENT FILL-ORIGIN LEVEL: 0
L1D AVERAGE MISS LATENCY: 627848 cycles
L1D RQ	ACCESS:   11213528	FORWARD:          0	MERGED:    3679792	TO_CACHE:    7348290
L1D WQ	ACCESS:    7432372	FORWARD:     186267	MERGED:     161287	TO_CACHE:    7271085
L1D PQ	ACCESS:     397554	FORWARD:          0	MERGED:          0	TO_CACHE:     396733

L1D UNIQUE REGIONS ACCESSED: 0
L1D REGIONS CONFLICTS: 0
L1D Cross Page Prefetch Requests: 0
L1D Same Page Prefetch Requests: 517736
L1D ROI Sum of L1D PQ occupancy: 6841198
L1D PREFETCHES PUSHED FROM L2C: 0
L1I TOTAL     ACCESS:    9836649  HIT:    9230115  MISS:     606534  HIT %:    93.8339  MISS %:    6.16606   MPKI: 12.1307
L1I LOAD      ACCESS:    9836649  HIT:    9230115  MISS:     606534  HIT %:    93.8339  MISS %:    6.16606   MPKI: 12.1307
L1I PREFETCH  REQUESTED:          0  ISSUED:          0  USEFUL:          0  USELESS:          0
L1I USEFUL LOAD PREFETCHES:          0 PREFETCH ISSUED TO LOWER LEVEL:          0  ACCURACY: -nan
L1I TIMELY PREFETCHES:          0 LATE PREFETCHES: 0 DROPPED PREFETCHES: 0
L1I PREFETCHES SAME FILL-ORIGIN LEVEL: 0 DIFFERENT FILL-ORIGIN LEVEL: 0
L1I AVERAGE MISS LATENCY: 23.5968 cycles
L1I RQ	ACCESS:   14585435	FORWARD:          0	MERGED:    4600083	TO_CACHE:    9985352

BTB TOTAL     ACCESS:    6893713  HIT:    6283561  MISS:     610152  HIT %:    91.1492  MISS %:    8.85085   MPKI: 12.203
BTB BRANCH_DIRECT_JUMP	ACCESS:     483896  HIT:     465834  MISS:      18062
BTB BRANCH_INDIRECT	ACCESS:      85593  HIT:      43913  MISS:      41680
BTB BRANCH_CONDITIONAL	ACCESS:    3985081  HIT:    3930845  MISS:      54236
BTB BRANCH_DIRECT_CALL	ACCESS:    1028275  HIT:     991419  MISS:      36856
BTB BRANCH_INDIRECT_CALL	ACCESS:     140671  HIT:     104723  MISS:      35948
BTB BRANCH_RETURN	ACCESS:    1170197  HIT:     746827  MISS:     423370
BTB BRANCH_OTHER ACCESS:          0  HIT:          0  MISS:          0

L2C TOTAL     ACCESS:    1439335  HIT:    1042657  MISS:     396678  HIT %:    72.4402  MISS %:    27.5598   MPKI: 7.93356
L2C LOAD      ACCESS:     774082  HIT:     634244  MISS:     139838  HIT %:     81.935  MISS %:     18.065   MPKI: 2.79676
L2C DATA LOAD MPKI: 1.391
L2C INSTRUCTION LOAD MPKI: 1.40576
L2C RFO       ACCESS:     196374  HIT:      35066  MISS:     161308  HIT %:    17.8567  MISS %:    82.1433   MPKI: 3.22616
L2C PREFETCH  ACCESS:     209484  HIT:     118796  MISS:      90688  HIT %:    56.7089  MISS %:    43.2911   MPKI: 1.81376
L2C DATA PREFETCH MPKI: 1.81376
L2C INSTRUCTION PREFETCH MPKI: 0
L2C WRITEBACK ACCESS:     247430  HIT:     246316  MISS:       1114  HIT %:    99.5498  MISS %:   0.450228   MPKI: 0.02228
L2C LOAD TRANSLATION ACCESS:      11965  HIT:       8235  MISS:       3730  HIT %:    68.8257  MISS %:    31.1743   MPKI: 0.0746
L2C PREFETCH  REQUESTED:     109351  ISSUED:     109351  USEFUL:      13012  USELESS:      77479
L2C USEFUL LOAD PREFETCHES:      13012 PREFETCH ISSUED TO LOWER LEVEL:      91620  ACCURACY: 14.2021
L2C TIMELY PREFETCHES:      13012 LATE PREFETCHES: 932 DROPPED PREFETCHES: 0
L2C PREFETCHES SAME FILL-ORIGIN LEVEL: 27433 DIFFERENT FILL-ORIGIN LEVEL: 0
L2C AVERAGE MISS LATENCY: 403.418 cycles
L2C RQ	ACCESS:     982434	FORWARD:          0	MERGED:          0	TO_CACHE:     982422
L2C WQ	ACCESS:     247430	FORWARD:         13	MERGED:          0	TO_CACHE:     247430
L2C PQ	ACCESS:     217950	FORWARD:          0	MERGED:       4891	TO_CACHE:     213058

L2C Instructions Evicting Data 45206
L2C Translations Evicting Data 2772
L2C Data Evicting Data 274439
L2C Instructions Evicting Instructions 24107
L2C Translations Evicting Instructions 881
L2C Data Evicting Instructions 44429
L2C Instructions Evicting Translations 975
L2C Translations Evicting Translations 77
L2C Data Evicting Translations 2678
L2C Dense regions hint from L2: 0
PSCL5 TOTAL     ACCESS:      11161  HIT:      11161  MISS:          0  HIT %:        100  MISS %:          0   MPKI: 0
PSCL5 LOAD TRANSLATION ACCESS:      11161  HIT:      11161  MISS:          0  HIT %:        100  MISS %:          0   MPKI: 0
PSCL5 PREFETCH  REQUESTED:          0  ISSUED:          0  USEFUL:          0  USELESS:          0
PSCL5 USEFUL LOAD PREFETCHES:          0 PREFETCH ISSUED TO LOWER LEVEL:          0  ACCURACY: -nan
PSCL5 TIMELY PREFETCHES:          0 LATE PREFETCHES: 0 DROPPED PREFETCHES: 0
PSCL5 PREFETCHES SAME FILL-ORIGIN LEVEL: 0 DIFFERENT FILL-ORIGIN LEVEL: 0

PSCL4 TOTAL     ACCESS:      11161  HIT:      11161  MISS:          0  HIT %:        100  MISS %:          0   MPKI: 0
PSCL4 LOAD TRANSLATION ACCESS:      11161  HIT:      11161  MISS:          0  HIT %:        100  MISS %:          0   MPKI: 0
PSCL4 PREFETCH  REQUESTED:          0  ISSUED:          0  USEFUL:          0  USELESS:          0
PSCL4 USEFUL LOAD PREFETCHES:          0 PREFETCH ISSUED TO LOWER LEVEL:          0  ACCURACY: -nan
PSCL4 TIMELY PREFETCHES:          0 LATE PREFETCHES: 0 DROPPED PREFETCHES: 0
PSCL4 PREFETCHES SAME FILL-ORIGIN LEVEL: 0 DIFFERENT FILL-ORIGIN LEVEL: 0

PSCL3 TOTAL     ACCESS:      11141  HIT:      11132  MISS:          9  HIT %:    99.9192  MISS %:  0.0807827   MPKI: 0.00018
PSCL3 LOAD TRANSLATION ACCESS:      11141  HIT:      11132  MISS:          9  HIT %:    99.9192  MISS %:  0.0807827   MPKI: 0.00018
PSCL3 PREFETCH  REQUESTED:          0  ISSUED:          0  USEFUL:          0  USELESS:          0
PSCL3 USEFUL LOAD PREFETCHES:          0 PREFETCH ISSUED TO LOWER LEVEL:          0  ACCURACY: -nan
PSCL3 TIMELY PREFETCHES:          0 LATE PREFETCHES: 0 DROPPED PREFETCHES: 0
PSCL3 PREFETCHES SAME FILL-ORIGIN LEVEL: 0 DIFFERENT FILL-ORIGIN LEVEL: 0

PSCL2 TOTAL     ACCESS:      11161  HIT:      10357  MISS:        804  HIT %:    92.7963  MISS %:    7.20366   MPKI: 0.01608
PSCL2 LOAD TRANSLATION ACCESS:      11161  HIT:      10357  MISS:        804  HIT %:    92.7963  MISS %:    7.20366   MPKI: 0.01608
PSCL2 PREFETCH  REQUESTED:          0  ISSUED:          0  USEFUL:          0  USELESS:          0
PSCL2 USEFUL LOAD PREFETCHES:          0 PREFETCH ISSUED TO LOWER LEVEL:          0  ACCURACY: -nan
PSCL2 TIMELY PREFETCHES:          0 LATE PREFETCHES: 0 DROPPED PREFETCHES: 0
PSCL2 PREFETCHES SAME FILL-ORIGIN LEVEL: 0 DIFFERENT FILL-ORIGIN LEVEL: 0

LLC TOTAL     ACCESS:     591315  HIT:     322650  MISS:     268665  HIT %:    54.5648  MISS %:    45.4352   MPKI: 5.3733
LLC LOAD      ACCESS:     139032  HIT:      79538  MISS:      59494  HIT %:    57.2084  MISS %:    42.7916   MPKI: 1.18988
LLC RFO       ACCESS:     161181  HIT:      10946  MISS:     150235  HIT %:    6.79112  MISS %:    93.2089   MPKI: 3.0047
LLC PREFETCH  ACCESS:      91619  HIT:      35400  MISS:      56219  HIT %:    38.6383  MISS %:    61.3617   MPKI: 1.12438
LLC WRITEBACK ACCESS:     195753  HIT:     194945  MISS:        808  HIT %:    99.5872  MISS %:   0.412765   MPKI: 0.01616
LLC LOAD TRANSLATION ACCESS:       3730  HIT:       1821  MISS:       1909  HIT %:    48.8204  MISS %:    51.1796   MPKI: 0.03818
LLC PREFETCH  REQUESTED:          0  ISSUED:          0  USEFUL:       5228  USELESS:      51031
LLC USEFUL LOAD PREFETCHES:       5228 PREFETCH ISSUED TO LOWER LEVEL:      56219  ACCURACY: 9.29935
LLC TIMELY PREFETCHES:       5228 LATE PREFETCHES: 0 DROPPED PREFETCHES: 0
LLC PREFETCHES SAME FILL-ORIGIN LEVEL: 0 DIFFERENT FILL-ORIGIN LEVEL: 0
LLC AVERAGE MISS LATENCY: 551.642 cycles
LLC RQ	ACCESS:     303944	FORWARD:          0	MERGED:          0	TO_CACHE:     303943
LLC WQ	ACCESS:     195753	FORWARD:          2	MERGED:          0	TO_CACHE:     195753
LLC PQ	ACCESS:      91620	FORWARD:          0	MERGED:          0	TO_CACHE:      91619

LLC Dense regions hint to LLC: 0

RAW hits: 1592141
Loads Generated: 12805668
Loads sent to L1D: 11213528
Stores Generated: 7432359
Stores sent to L1D: 7432372
Major fault: 0 Minor fault: 5569
Allocated PAGES: 5569

stream: 
stream:times selected: 759480
stream:pref_filled: 64132
stream:pref_useful: 17324
stream:pref_late: 2127
stream:misses: 7207
stream:misses_by_poll: 0

CS: 
CS:times selected: 108691
CS:pref_filled: 29191
CS:pref_useful: 21430
CS:pref_late: 2357
CS:misses: 6871
CS:misses_by_poll: 35

CPLX: 
CPLX:times selected: 643659
CPLX:pref_filled: 29789
CPLX:pref_useful: 4424
CPLX:pref_late: 218
CPLX:misses: 35980
CPLX:misses_by_poll: 21

NL_L1: 
NL:times selected: 5909
NL:pref_filled: 993
NL:pref_useful: 209
NL:pref_late: 26
NL:misses: 375
NL:misses_by_poll: 0

total selections: 1517739
total_filled: 102690
total_useful: 34460
total_late: 5427
total_polluted: 56
total_misses_after_warmup: 197130
conflicts: 2422297
Degree Incremented Times: 25840
Degree Decremented Times: 76087

L1 IP Table Write Accesses: 4484114
L1 IP Table Read Accesses: 2061817
L1 RST Write Accesses: 592256
L1 RST Read Accesses: 1184512
L1 CSPT Write Accesses: 592256
L1 CSPT Read Accesses: 1107937
L1 RR Filter Tag Write Accesses: 397574
L1 RR Filter Tag Read Accesses: 24851104
L1 IP Table Tag Write Accesses: 7348291
L1 IP Table Tag Read Accesses: 7348291
L1 RST Tag Write Accesses: 0
L1 RST Tag Read Accesses: 5474567
L1 RR Filter Write Accesses: 0
L1 RR Filter Read Accesses: 935991
test: 229190
L2 IP Table Read Accesses: 446636
L2 IP Table Write Accesses: 439558
L2 IP Table Tag Read Accesses: 272548
L2 IP Table Tag Write Accesses: 272548

DRAM Statistics
 CHANNEL 0
 RQ ROW_BUFFER_HIT:      92859  ROW_BUFFER_MISS:     174990
 DBUS_CONGESTED:     334240
 WQ ROW_BUFFER_HIT:      70434  ROW_BUFFER_MISS:     104985  FULL:          0

 AVG_CONGESTED_CYCLE: 71
 All warmup complete: 2
Channel 0 Bank busy for read cycles: 0
Channel 0 Bank busy for write cycles: 0
Channel 0
Rank 0
0banks busy for read cycles: 44685282
0banks busy for write cycles: 29381
1banks busy for read cycles: 12076255
1banks busy for write cycles: 4214061
2banks busy for read cycles: 5236966
2banks busy for write cycles: 2317089
3banks busy for read cycles: 1921407
3banks busy for write cycles: 1313306
4banks busy for read cycles: 924093
4banks busy for write cycles: 852743
5banks busy for read cycles: 525311
5banks busy for write cycles: 734276
6banks busy for read cycles: 381066
6banks busy for write cycles: 816494
7banks busy for read cycles: 601322
7banks busy for write cycles: 1462884
8banks busy for read cycles: 5515370
8banks busy for write cycles: 7238643

CPU 0 Branch Prediction Accuracy: 94.7774% MPKI: 9.54576 Average ROB Occupancy at Mispredict: 40.3252
Branch types
NOT_BRANCH: 40860721 81.7214%
BRANCH_DIRECT_JUMP: 483896 0.967792%
BRANCH_INDIRECT: 85593 0.171186%
BRANCH_CONDITIONAL: 6230321 12.4606%
BRANCH_DIRECT_CALL: 1028275 2.05655%
BRANCH_INDIRECT_CALL: 140671 0.281342%
BRANCH_RETURN: 1170197 2.34039%
BRANCH_OTHER: 0 0%

@sumon_overall_L1D     34460      5222     68293    102690    794287    794307
@Sumon_Early_by_class_L1D     13710     16441      3327        25
@Sumon_Late_by_class_L1D      1988      2329       200        25

@Sumon_Early_by_cycle_L1D      5614      4896      2730      1519      1002      4971      4418      2930      2167      2138      1213       862
@Sumon_Late_by_cycle_L1D      3351      1095       496       145        36        99         0         0         0         0         0         0
@Sumon_Early_stream_L1D      2225      1127      1109       767       491      2617      1251       875       981      1102       670       495
@Sumon_Early_CS_L1D      2980      3567      1347       529       362      1878      2758      1629       667       409       158       157
@Sumon_Early_CPLX_L1D       207       104       216       191       133       380       341       295       377       542       352       189
@Sumon_Late_stream_L1D      1354       459       151        13         8         3         0         0         0         0         0         0
@Sumon_Late_CS_L1D      1210       551       318       128        28        94         0         0         0         0         0         0
@Sumon_Late_CPLX_L1D       119        61        15         4         0         1         0         0         0         0         0         0
@sumon_overall_L2C     13012       932     77479     90688    109351    109351
@Sumon_Early_by_class_L2C      2040      1912       905         0
@Sumon_Late_by_class_L2C         0        37         0         0

@Sumon_Early_by_cycle_L2C       869       517       529       349       341      1013       688       567       558       705       429      6447
@Sumon_Late_by_cycle_L2C       519       290       110        10         3         0         0         0         0         0         0         0
@Sumon_Early_stream_L2C         0         0         0         0         0         0         2         0         4        11        74      1949
@Sumon_Early_CS_L2C        24        51         7         2         6        42        21        14        22        27        33      1663
@Sumon_Early_CPLX_L2C         0         0         0         0         0         0         0         0         4         8        23       870
@Sumon_Late_stream_L2C         0         0         0         0         0         0         0         0         0         0         0         0
@Sumon_Late_CS_L2C        13        12        10         1         1         0         0         0         0         0         0         0
@Sumon_Late_CPLX_L2C         0         0         0         0         0         0         0         0         0         0         0         0
DRAM PAGES: 1048576
Allocated PAGES: 5569
