
*** ChampSim Multicore Out-of-Order Simulator ***

Warmup Instructions: 10000000
Simulation Instructions: 50000000
Number of CPUs: 1
LLC sets: 2048
LLC ways: 16
Off-chip DRAM Size: 4096 MB Channels: 1 Width: 64-bit Data Rate: 400 MT/s
CPU 0 runs traces/clientserver/server_031.champsimtrace.xz
.xz
CPU 0 Bimodal branch predictor
BTB has LRU replacement policy
ITLB has LRU replacement policy
DTLB has LRU replacement policy
STLB has LRU replacement policy
L1I has LRU replacement policy
IP Table Entries: 256
L1D has LRU replacement policy
IP_Table L2 entries: 256
L2C has LRU replacement policy
LLC has LRU replacement policy
Heartbeat CPU 0 instructions: 10000000 cycles: 2889755 heartbeat IPC: 3.4605 cumulative IPC: 3.4605 (Simulation time: 0 hr 18 min 30 sec) 

Warmup complete CPU 0 instructions: 10000004 cycles: 2889756 (Simulation time: 0 hr 18 min 30 sec) 

Heartbeat CPU 0 instructions: 20000003 cycles: 28565903 heartbeat IPC: 0.389467 cumulative IPC: 0.389466 (Simulation time: 0 hr 36 min 47 sec) 
Heartbeat CPU 0 instructions: 30000001 cycles: 54158927 heartbeat IPC: 0.390731 cumulative IPC: 0.390098 (Simulation time: 0 hr 54 min 44 sec) 
Heartbeat CPU 0 instructions: 40000002 cycles: 79695828 heartbeat IPC: 0.39159 cumulative IPC: 0.390594 (Simulation time: 1 hr 12 min 36 sec) 
Heartbeat CPU 0 instructions: 50000001 cycles: 105220026 heartbeat IPC: 0.391785 cumulative IPC: 0.390891 (Simulation time: 1 hr 30 min 31 sec) 
Heartbeat CPU 0 instructions: 60000002 cycles: 130932703 heartbeat IPC: 0.388913 cumulative IPC: 0.390494 (Simulation time: 1 hr 45 min 58 sec) 
Finished CPU 0 instructions: 50000002 cycles: 128042948 cumulative IPC: 0.390494 (Simulation time: 1 hr 45 min 58 sec) 

ChampSim completed all CPUs

Region of Interest Statistics

CPU 0 cumulative IPC: 0.390494 instructions: 50000002 cycles: 128042948
ITLB TOTAL     ACCESS:    8597807  HIT:    8045767  MISS:     552040  HIT %:    93.5793  MISS %:    6.42071   MPKI: 11.0408
ITLB LOAD TRANSLATION ACCESS:    8597807  HIT:    8045767  MISS:     552040  HIT %:    93.5793  MISS %:    6.42071   MPKI: 11.0408
ITLB PREFETCH  REQUESTED:          0  ISSUED:          0  USEFUL:          0  USELESS:          0
ITLB USEFUL LOAD PREFETCHES:          0 PREFETCH ISSUED TO LOWER LEVEL:          0  ACCURACY: -nan
ITLB TIMELY PREFETCHES:          0 LATE PREFETCHES: 0 DROPPED PREFETCHES: 0
ITLB PREFETCHES SAME FILL-ORIGIN LEVEL: 0 DIFFERENT FILL-ORIGIN LEVEL: 0
ITLB AVERAGE MISS LATENCY: 9.16447 cycles
ITLB RQ	ACCESS:   10318008	FORWARD:          0	MERGED:    1581114	TO_CACHE:    8736894

DTLB TOTAL     ACCESS:   12566708  HIT:   12006182  MISS:     560526  HIT %:    95.5396  MISS %:     4.4604   MPKI: 11.2105
DTLB LOAD TRANSLATION ACCESS:   12566708  HIT:   12006182  MISS:     560526  HIT %:    95.5396  MISS %:     4.4604   MPKI: 11.2105
DTLB PREFETCH  REQUESTED:          0  ISSUED:          0  USEFUL:          0  USELESS:          0
DTLB USEFUL LOAD PREFETCHES:          0 PREFETCH ISSUED TO LOWER LEVEL:          0  ACCURACY: -nan
DTLB TIMELY PREFETCHES:          0 LATE PREFETCHES: 0 DROPPED PREFETCHES: 0
DTLB PREFETCHES SAME FILL-ORIGIN LEVEL: 0 DIFFERENT FILL-ORIGIN LEVEL: 0
DTLB AVERAGE MISS LATENCY: 11.6577 cycles
DTLB RQ	ACCESS:   15698228	FORWARD:          0	MERGED:    3112995	TO_CACHE:   12585233

STLB TOTAL     ACCESS:    1492192  HIT:    1478221  MISS:      13971  HIT %:    99.0637  MISS %:   0.936274   MPKI: 0.27942
STLB LOAD TRANSLATION ACCESS:    1112566  HIT:    1098595  MISS:      13971  HIT %:    98.7443  MISS %:    1.25575   MPKI: 0.27942
STLB TRANSLATION FROM L1D PREFETCHER ACCESS:     379626  HIT:     379626  MISS:          0  HIT %:        100  MISS %:          0   MPKI: 0
STLB PREFETCH  REQUESTED:          0  ISSUED:          0  USEFUL:          0  USELESS:          0
STLB USEFUL LOAD PREFETCHES:          0 PREFETCH ISSUED TO LOWER LEVEL:          0  ACCURACY: -nan
STLB TIMELY PREFETCHES:          0 LATE PREFETCHES: 0 DROPPED PREFETCHES: 0
STLB PREFETCHES SAME FILL-ORIGIN LEVEL: 0 DIFFERENT FILL-ORIGIN LEVEL: 0
STLB AVERAGE MISS LATENCY: 112.124 cycles
STLB RQ	ACCESS:    1595331	FORWARD:          0	MERGED:     103139	TO_CACHE:    1492192

STLB Hit, L1D data hit: 0
STLB Hit, L2C data hit: 0
STLB Hit, LLC data hit: 0
STLB Hit, LLC data miss: 0
STLB STLB hints to L2: 0
L1D TOTAL     ACCESS:   15607885  HIT:   14191457  MISS:    1416428  HIT %:    90.9249  MISS %:    9.07508   MPKI: 28.3286
L1D LOAD      ACCESS:    8710498  HIT:    7794192  MISS:     916306  HIT %:    89.4804  MISS %:    10.5196   MPKI: 18.3261
L1D RFO       ACCESS:    6487869  HIT:    6178208  MISS:     309661  HIT %:    95.2271  MISS %:    4.77292   MPKI: 6.19322
L1D PREFETCH  ACCESS:     409518  HIT:     219057  MISS:     190461  HIT %:    53.4914  MISS %:    46.5086   MPKI: 3.80922
L1D PREFETCH  REQUESTED:     965813  ISSUED:     965810  USEFUL:      56750  USELESS:     133715
L1D USEFUL LOAD PREFETCHES:      56750 PREFETCH ISSUED TO LOWER LEVEL:     244270  ACCURACY: 23.2325
L1D TIMELY PREFETCHES:      56750 LATE PREFETCHES: 53359 DROPPED PREFETCHES: 0
L1D PREFETCHES SAME FILL-ORIGIN LEVEL: 244270 DIFFERENT FILL-ORIGIN LEVEL: 0
L1D AVERAGE MISS LATENCY: 2.46168e+06 cycles
L1D RQ	ACCESS:   11883318	FORWARD:          0	MERGED:    3009068	TO_CACHE:    8753546
L1D WQ	ACCESS:    6988846	FORWARD:     120984	MERGED:      44164	TO_CACHE:    6944682
L1D PQ	ACCESS:     483045	FORWARD:          0	MERGED:          0	TO_CACHE:     482765

L1D UNIQUE REGIONS ACCESSED: 0
L1D REGIONS CONFLICTS: 0
L1D Cross Page Prefetch Requests: 0
L1D Same Page Prefetch Requests: 573699
L1D ROI Sum of L1D PQ occupancy: 6235052
L1D PREFETCHES PUSHED FROM L2C: 0
L1I TOTAL     ACCESS:    9783025  HIT:    6775749  MISS:    3007276  HIT %:    69.2603  MISS %:    30.7397   MPKI: 60.1455
L1I LOAD      ACCESS:    9783025  HIT:    6775749  MISS:    3007276  HIT %:    69.2603  MISS %:    30.7397   MPKI: 60.1455
L1I PREFETCH  REQUESTED:          0  ISSUED:          0  USEFUL:          0  USELESS:          0
L1I USEFUL LOAD PREFETCHES:          0 PREFETCH ISSUED TO LOWER LEVEL:          0  ACCURACY: -nan
L1I TIMELY PREFETCHES:          0 LATE PREFETCHES: 0 DROPPED PREFETCHES: 0
L1I PREFETCHES SAME FILL-ORIGIN LEVEL: 0 DIFFERENT FILL-ORIGIN LEVEL: 0
L1I AVERAGE MISS LATENCY: 17.7476 cycles
L1I RQ	ACCESS:   14056255	FORWARD:          0	MERGED:    3738247	TO_CACHE:   10318008

BTB TOTAL     ACCESS:    6102276  HIT:    4206282  MISS:    1895994  HIT %:    68.9297  MISS %:    31.0703   MPKI: 37.9199
BTB BRANCH_DIRECT_JUMP	ACCESS:     546758  HIT:     394739  MISS:     152019
BTB BRANCH_INDIRECT	ACCESS:     172660  HIT:     135870  MISS:      36790
BTB BRANCH_CONDITIONAL	ACCESS:    2968197  HIT:    2446713  MISS:     521484
BTB BRANCH_DIRECT_CALL	ACCESS:    1018538  HIT:     647411  MISS:     371127
BTB BRANCH_INDIRECT_CALL	ACCESS:     188789  HIT:     117745  MISS:      71044
BTB BRANCH_RETURN	ACCESS:    1207334  HIT:     463804  MISS:     743530
BTB BRANCH_OTHER ACCESS:          0  HIT:          0  MISS:          0

L2C TOTAL     ACCESS:    5746140  HIT:    5042672  MISS:     703468  HIT %:    87.7576  MISS %:    12.2424   MPKI: 14.0694
L2C LOAD      ACCESS:    3870216  HIT:    3380661  MISS:     489555  HIT %:    87.3507  MISS %:    12.6493   MPKI: 9.7911
L2C DATA LOAD MPKI: 2.58144
L2C INSTRUCTION LOAD MPKI: 7.20966
L2C RFO       ACCESS:     309211  HIT:     256148  MISS:      53063  HIT %:    82.8392  MISS %:    17.1608   MPKI: 1.06126
L2C PREFETCH  ACCESS:     950938  HIT:     808235  MISS:     142703  HIT %:    84.9934  MISS %:    15.0066   MPKI: 2.85406
L2C DATA PREFETCH MPKI: 2.85406
L2C INSTRUCTION PREFETCH MPKI: 0
L2C WRITEBACK ACCESS:     594598  HIT:     588782  MISS:       5816  HIT %:    99.0219  MISS %:    0.97814   MPKI: 0.11632
L2C LOAD TRANSLATION ACCESS:      21177  HIT:       8846  MISS:      12331  HIT %:    41.7717  MISS %:    58.2283   MPKI: 0.24662
L2C PREFETCH  REQUESTED:     724746  ISSUED:     724746  USEFUL:      18718  USELESS:     124327
L2C USEFUL LOAD PREFETCHES:      18718 PREFETCH ISSUED TO LOWER LEVEL:     147376  ACCURACY: 12.7008
L2C TIMELY PREFETCHES:      18718 LATE PREFETCHES: 4673 DROPPED PREFETCHES: 0
L2C PREFETCHES SAME FILL-ORIGIN LEVEL: 80829 DIFFERENT FILL-ORIGIN LEVEL: 0
L2C AVERAGE MISS LATENCY: 51.4127 cycles
L2C RQ	ACCESS:    4200610	FORWARD:          0	MERGED:          0	TO_CACHE:    4200604
L2C WQ	ACCESS:     594598	FORWARD:          6	MERGED:          0	TO_CACHE:     594598
L2C PQ	ACCESS:     969016	FORWARD:          0	MERGED:       6366	TO_CACHE:     962650

L2C Instructions Evicting Data 138519
L2C Translations Evicting Data 8316
L2C Data Evicting Data 181736
L2C Instructions Evicting Instructions 218588
L2C Translations Evicting Instructions 3218
L2C Data Evicting Instructions 134939
L2C Instructions Evicting Translations 3376
L2C Translations Evicting Translations 797
L2C Data Evicting Translations 8163
L2C Dense regions hint from L2: 0
PSCL5 TOTAL     ACCESS:      13971  HIT:      13971  MISS:          0  HIT %:        100  MISS %:          0   MPKI: 0
PSCL5 LOAD TRANSLATION ACCESS:      13971  HIT:      13971  MISS:          0  HIT %:        100  MISS %:          0   MPKI: 0
PSCL5 PREFETCH  REQUESTED:          0  ISSUED:          0  USEFUL:          0  USELESS:          0
PSCL5 USEFUL LOAD PREFETCHES:          0 PREFETCH ISSUED TO LOWER LEVEL:          0  ACCURACY: -nan
PSCL5 TIMELY PREFETCHES:          0 LATE PREFETCHES: 0 DROPPED PREFETCHES: 0
PSCL5 PREFETCHES SAME FILL-ORIGIN LEVEL: 0 DIFFERENT FILL-ORIGIN LEVEL: 0

PSCL4 TOTAL     ACCESS:      13315  HIT:      13146  MISS:        169  HIT %:    98.7308  MISS %:    1.26925   MPKI: 0.00338
PSCL4 LOAD TRANSLATION ACCESS:      13315  HIT:      13146  MISS:        169  HIT %:    98.7308  MISS %:    1.26925   MPKI: 0.00338
PSCL4 PREFETCH  REQUESTED:          0  ISSUED:          0  USEFUL:          0  USELESS:          0
PSCL4 USEFUL LOAD PREFETCHES:          0 PREFETCH ISSUED TO LOWER LEVEL:          0  ACCURACY: -nan
PSCL4 TIMELY PREFETCHES:          0 LATE PREFETCHES: 0 DROPPED PREFETCHES: 0
PSCL4 PREFETCHES SAME FILL-ORIGIN LEVEL: 0 DIFFERENT FILL-ORIGIN LEVEL: 0

PSCL3 TOTAL     ACCESS:      13938  HIT:      13769  MISS:        169  HIT %:    98.7875  MISS %:    1.21251   MPKI: 0.00338
PSCL3 LOAD TRANSLATION ACCESS:      13938  HIT:      13769  MISS:        169  HIT %:    98.7875  MISS %:    1.21251   MPKI: 0.00338
PSCL3 PREFETCH  REQUESTED:          0  ISSUED:          0  USEFUL:          0  USELESS:          0
PSCL3 USEFUL LOAD PREFETCHES:          0 PREFETCH ISSUED TO LOWER LEVEL:          0  ACCURACY: -nan
PSCL3 TIMELY PREFETCHES:          0 LATE PREFETCHES: 0 DROPPED PREFETCHES: 0
PSCL3 PREFETCHES SAME FILL-ORIGIN LEVEL: 0 DIFFERENT FILL-ORIGIN LEVEL: 0

PSCL2 TOTAL     ACCESS:      13971  HIT:       7097  MISS:       6874  HIT %:    50.7981  MISS %:    49.2019   MPKI: 0.13748
PSCL2 LOAD TRANSLATION ACCESS:      13971  HIT:       7097  MISS:       6874  HIT %:    50.7981  MISS %:    49.2019   MPKI: 0.13748
PSCL2 PREFETCH  REQUESTED:          0  ISSUED:          0  USEFUL:          0  USELESS:          0
PSCL2 USEFUL LOAD PREFETCHES:          0 PREFETCH ISSUED TO LOWER LEVEL:          0  ACCURACY: -nan
PSCL2 TIMELY PREFETCHES:          0 LATE PREFETCHES: 0 DROPPED PREFETCHES: 0
PSCL2 PREFETCHES SAME FILL-ORIGIN LEVEL: 0 DIFFERENT FILL-ORIGIN LEVEL: 0

LLC TOTAL     ACCESS:     788211  HIT:     732053  MISS:      56158  HIT %:    92.8753  MISS %:    7.12474   MPKI: 1.12316
LLC LOAD      ACCESS:     484961  HIT:     466834  MISS:      18127  HIT %:    96.2622  MISS %:    3.73783   MPKI: 0.36254
LLC RFO       ACCESS:      52984  HIT:      50320  MISS:       2664  HIT %:    94.9721  MISS %:    5.02793   MPKI: 0.05328
LLC PREFETCH  ACCESS:     147376  HIT:     114458  MISS:      32918  HIT %:    77.6639  MISS %:    22.3361   MPKI: 0.65836
LLC WRITEBACK ACCESS:      90559  HIT:      90320  MISS:        239  HIT %:    99.7361  MISS %:   0.263916   MPKI: 0.00478
LLC LOAD TRANSLATION ACCESS:      12331  HIT:      10121  MISS:       2210  HIT %:    82.0777  MISS %:    17.9223   MPKI: 0.0442
LLC PREFETCH  REQUESTED:          0  ISSUED:          0  USEFUL:       1512  USELESS:      26957
LLC USEFUL LOAD PREFETCHES:       1512 PREFETCH ISSUED TO LOWER LEVEL:      32918  ACCURACY: 4.59323
LLC TIMELY PREFETCHES:       1512 LATE PREFETCHES: 0 DROPPED PREFETCHES: 0
LLC PREFETCHES SAME FILL-ORIGIN LEVEL: 0 DIFFERENT FILL-ORIGIN LEVEL: 0
LLC AVERAGE MISS LATENCY: 273.342 cycles
LLC RQ	ACCESS:     550276	FORWARD:          0	MERGED:          0	TO_CACHE:     550276
LLC WQ	ACCESS:      90559	FORWARD:          0	MERGED:          0	TO_CACHE:      90559
LLC PQ	ACCESS:     147376	FORWARD:          0	MERGED:          0	TO_CACHE:     147376

LLC Dense regions hint to LLC: 0

RAW hits: 573666
Loads Generated: 12456984
Loads sent to L1D: 11883318
Stores Generated: 6988845
Stores sent to L1D: 6988846
Major fault: 0 Minor fault: 5588
Allocated PAGES: 5588

stream: 
stream:times selected: 848538
stream:pref_filled: 131632
stream:pref_useful: 24747
stream:pref_late: 44142
stream:misses: 11881
stream:misses_by_poll: 0

CS: 
CS:times selected: 102581
CS:pref_filled: 58885
CS:pref_useful: 40012
CS:pref_late: 5867
CS:misses: 9086
CS:misses_by_poll: 2

CPLX: 
CPLX:times selected: 743327
CPLX:pref_filled: 36836
CPLX:pref_useful: 5797
CPLX:pref_late: 3277
CPLX:misses: 135420
CPLX:misses_by_poll: 15

NL_L1: 
NL:times selected: 2651
NL:pref_filled: 787
NL:pref_useful: 36
NL:pref_late: 71
NL:misses: 288
NL:misses_by_poll: 0

total selections: 1697097
total_filled: 190461
total_useful: 56750
total_late: 55573
total_polluted: 17
total_misses_after_warmup: 959353
conflicts: 3383488
Degree Incremented Times: 0
Degree Decremented Times: 125915

L1 IP Table Write Accesses: 5089950
L1 IP Table Read Accesses: 1706462
L1 RST Write Accesses: 716523
L1 RST Read Accesses: 1433046
L1 CSPT Write Accesses: 716523
L1 CSPT Read Accesses: 1342887
L1 RR Filter Tag Write Accesses: 483048
L1 RR Filter Tag Read Accesses: 34400702
L1 IP Table Tag Write Accesses: 8753545
L1 IP Table Tag Read Accesses: 8753545
L1 RST Tag Write Accesses: 0
L1 RST Tag Read Accesses: 7008801
L1 RR Filter Write Accesses: 0
L1 RR Filter Read Accesses: 1233981
test: 175357
L2 IP Table Read Accesses: 1469860
L2 IP Table Write Accesses: 1976502
L2 IP Table Tag Read Accesses: 1101731
L2 IP Table Tag Write Accesses: 1101731

DRAM Statistics
 CHANNEL 0
 RQ ROW_BUFFER_HIT:      16735  ROW_BUFFER_MISS:      39184
 DBUS_CONGESTED:      38759
 WQ ROW_BUFFER_HIT:        279  ROW_BUFFER_MISS:       1319  FULL:          0

 AVG_CONGESTED_CYCLE: 68
 All warmup complete: 2
Channel 0 Bank busy for read cycles: 0
Channel 0 Bank busy for write cycles: 0
Channel 0
Rank 0
0banks busy for read cycles: 122352122
0banks busy for write cycles: 1073
1banks busy for read cycles: 2012132
1banks busy for write cycles: 215834
2banks busy for read cycles: 1534019
2banks busy for write cycles: 59755
3banks busy for read cycles: 916946
3banks busy for write cycles: 16980
4banks busy for read cycles: 449095
4banks busy for write cycles: 6196
5banks busy for read cycles: 233110
5banks busy for write cycles: 1772
6banks busy for read cycles: 69841
6banks busy for write cycles: 606
7banks busy for read cycles: 33444
7banks busy for write cycles: 586
8banks busy for read cycles: 133952
8banks busy for write cycles: 5486

CPU 0 Branch Prediction Accuracy: 91.8928% MPKI: 15.1591 Average ROB Occupancy at Mispredict: 19.4065
Branch types
NOT_BRANCH: 40650646 81.3013%
BRANCH_DIRECT_JUMP: 546758 1.09352%
BRANCH_INDIRECT: 172660 0.34532%
BRANCH_CONDITIONAL: 6215044 12.4301%
BRANCH_DIRECT_CALL: 1018538 2.03708%
BRANCH_INDIRECT_CALL: 188789 0.377578%
BRANCH_RETURN: 1207334 2.41467%
BRANCH_OTHER: 0 0%

@sumon_overall_L1D     56750     53359    133715    190461    965810    965813
@Sumon_Early_by_class_L1D     18603     33219      3848        61
@Sumon_Late_by_class_L1D     42979      5487      2815        61

@Sumon_Early_by_cycle_L1D     39368      4653      3294      1571       223      1433       791       710      1886      2125       691         5
@Sumon_Late_by_cycle_L1D     50412      1917       970        56         3         1         0         0         0         0         0         0
@Sumon_Early_stream_L1D      7005      2456      1896      1063       200      1304       650       647      1289      1670       419         4
@Sumon_Early_CS_L1D     30065      1850       881       366         2         0         0         0         0        55         0         0
@Sumon_Early_CPLX_L1D      2130       165       428       130        20       126       133        61        89       293       272         1
@Sumon_Late_stream_L1D     41463      1006       472        34         3         1         0         0         0         0         0         0
@Sumon_Late_CS_L1D      4281       761       425        20         0         0         0         0         0         0         0         0
@Sumon_Late_CPLX_L1D      2667        96        50         2         0         0         0         0         0         0         0         0
@sumon_overall_L2C     18718      4673    124327    142703    724746    724746
@Sumon_Early_by_class_L2C       964        56       211         0
@Sumon_Late_by_class_L2C         0         0         0         0

@Sumon_Early_by_cycle_L2C      4805      2868       835       256      1344      2681       859      1101      1044       594       447      1884
@Sumon_Late_by_cycle_L2C      3955       673        44         1         0         0         0         0         0         0         0         0
@Sumon_Early_stream_L2C         0         0         0         0         0         0         0         0         0        18        55       891
@Sumon_Early_CS_L2C         0         0         0         0         0         0         0         0         0         0         1        55
@Sumon_Early_CPLX_L2C         0         0         0         0         0         0         0         0         0         1        24       186
@Sumon_Late_stream_L2C         0         0         0         0         0         0         0         0         0         0         0         0
@Sumon_Late_CS_L2C         0         0         0         0         0         0         0         0         0         0         0         0
@Sumon_Late_CPLX_L2C         0         0         0         0         0         0         0         0         0         0         0         0
DRAM PAGES: 1048576
Allocated PAGES: 5588
