
*** ChampSim Multicore Out-of-Order Simulator ***

Warmup Instructions: 10000000
Simulation Instructions: 50000000
Number of CPUs: 1
LLC sets: 2048
LLC ways: 16
Off-chip DRAM Size: 4096 MB Channels: 1 Width: 64-bit Data Rate: 400 MT/s
CPU 0 runs traces/clientserver/server_014.champsimtrace.xz
.xz
CPU 0 Bimodal branch predictor
BTB has LRU replacement policy
ITLB has LRU replacement policy
DTLB has LRU replacement policy
STLB has LRU replacement policy
L1I has LRU replacement policy
IP Table Entries: 256
L1D has LRU replacement policy
IP_Table L2 entries: 256
L2C has LRU replacement policy
LLC has LRU replacement policy
Heartbeat CPU 0 instructions: 10000003 cycles: 2819127 heartbeat IPC: 3.5472 cumulative IPC: 3.5472 (Simulation time: 0 hr 17 min 56 sec) 

Warmup complete CPU 0 instructions: 10000003 cycles: 2819127 (Simulation time: 0 hr 17 min 56 sec) 

Heartbeat CPU 0 instructions: 20000000 cycles: 23347258 heartbeat IPC: 0.487136 cumulative IPC: 0.487136 (Simulation time: 0 hr 39 min 16 sec) 
Heartbeat CPU 0 instructions: 30000002 cycles: 39784329 heartbeat IPC: 0.608381 cumulative IPC: 0.541049 (Simulation time: 0 hr 56 min 8 sec) 
Heartbeat CPU 0 instructions: 40000000 cycles: 55834071 heartbeat IPC: 0.623063 cumulative IPC: 0.565878 (Simulation time: 1 hr 12 min 56 sec) 
Heartbeat CPU 0 instructions: 50000000 cycles: 71884902 heartbeat IPC: 0.623021 cumulative IPC: 0.579158 (Simulation time: 1 hr 29 min 28 sec) 
Heartbeat CPU 0 instructions: 60000000 cycles: 87940877 heartbeat IPC: 0.622821 cumulative IPC: 0.587394 (Simulation time: 1 hr 44 min 32 sec) 
Finished CPU 0 instructions: 50000001 cycles: 85121756 cumulative IPC: 0.587394 (Simulation time: 1 hr 44 min 32 sec) 

ChampSim completed all CPUs

Region of Interest Statistics

CPU 0 cumulative IPC: 0.587394 instructions: 50000001 cycles: 85121756
ITLB TOTAL     ACCESS:    8667330  HIT:    8339232  MISS:     328098  HIT %:    96.2145  MISS %:    3.78546   MPKI: 6.56196
ITLB LOAD TRANSLATION ACCESS:    8667330  HIT:    8339232  MISS:     328098  HIT %:    96.2145  MISS %:    3.78546   MPKI: 6.56196
ITLB PREFETCH  REQUESTED:          0  ISSUED:          0  USEFUL:          0  USELESS:          0
ITLB USEFUL LOAD PREFETCHES:          0 PREFETCH ISSUED TO LOWER LEVEL:          0  ACCURACY: -nan
ITLB TIMELY PREFETCHES:          0 LATE PREFETCHES: 0 DROPPED PREFETCHES: 0
ITLB PREFETCHES SAME FILL-ORIGIN LEVEL: 0 DIFFERENT FILL-ORIGIN LEVEL: 0
ITLB AVERAGE MISS LATENCY: 9.24142 cycles
ITLB RQ	ACCESS:   10147555	FORWARD:          0	MERGED:    1359228	TO_CACHE:    8788327

DTLB TOTAL     ACCESS:   11655296  HIT:   11476336  MISS:     178960  HIT %:    98.4646  MISS %:    1.53544   MPKI: 3.5792
DTLB LOAD TRANSLATION ACCESS:   11655296  HIT:   11476336  MISS:     178960  HIT %:    98.4646  MISS %:    1.53544   MPKI: 3.5792
DTLB PREFETCH  REQUESTED:          0  ISSUED:          0  USEFUL:          0  USELESS:          0
DTLB USEFUL LOAD PREFETCHES:          0 PREFETCH ISSUED TO LOWER LEVEL:          0  ACCURACY: -nan
DTLB TIMELY PREFETCHES:          0 LATE PREFETCHES: 0 DROPPED PREFETCHES: 0
DTLB PREFETCHES SAME FILL-ORIGIN LEVEL: 0 DIFFERENT FILL-ORIGIN LEVEL: 0
DTLB AVERAGE MISS LATENCY: 11.1299 cycles
DTLB RQ	ACCESS:   16194788	FORWARD:          0	MERGED:    4530197	TO_CACHE:   11664591

STLB TOTAL     ACCESS:     904369  HIT:     902817  MISS:       1552  HIT %:    99.8284  MISS %:   0.171611   MPKI: 0.03104
STLB LOAD TRANSLATION ACCESS:     507058  HIT:     505506  MISS:       1552  HIT %:    99.6939  MISS %:   0.306079   MPKI: 0.03104
STLB TRANSLATION FROM L1D PREFETCHER ACCESS:     397311  HIT:     397311  MISS:          0  HIT %:        100  MISS %:          0   MPKI: 0
STLB PREFETCH  REQUESTED:          0  ISSUED:          0  USEFUL:          0  USELESS:          0
STLB USEFUL LOAD PREFETCHES:          0 PREFETCH ISSUED TO LOWER LEVEL:          0  ACCURACY: -nan
STLB TIMELY PREFETCHES:          0 LATE PREFETCHES: 0 DROPPED PREFETCHES: 0
STLB PREFETCHES SAME FILL-ORIGIN LEVEL: 0 DIFFERENT FILL-ORIGIN LEVEL: 0
STLB AVERAGE MISS LATENCY: 288.514 cycles
STLB RQ	ACCESS:    1003151	FORWARD:          0	MERGED:      98782	TO_CACHE:     904369

STLB Hit, L1D data hit: 0
STLB Hit, L2C data hit: 0
STLB Hit, LLC data hit: 0
STLB Hit, LLC data miss: 0
STLB STLB hints to L2: 0
L1D TOTAL     ACCESS:   16630821  HIT:   16573292  MISS:      57529  HIT %:    99.6541  MISS %:   0.345918   MPKI: 1.15058
L1D LOAD      ACCESS:    7588431  HIT:    7568042  MISS:      20389  HIT %:    99.7313  MISS %:   0.268685   MPKI: 0.40778
L1D RFO       ACCESS:    8557230  HIT:    8527542  MISS:      29688  HIT %:    99.6531  MISS %:   0.346935   MPKI: 0.59376
L1D PREFETCH  ACCESS:     485160  HIT:     477708  MISS:       7452  HIT %:     98.464  MISS %:    1.53599   MPKI: 0.14904
L1D PREFETCH  REQUESTED:     994262  ISSUED:     994220  USEFUL:       3762  USELESS:       3826
L1D USEFUL LOAD PREFETCHES:       3762 PREFETCH ISSUED TO LOWER LEVEL:      12198  ACCURACY: 30.8411
L1D TIMELY PREFETCHES:       3762 LATE PREFETCHES: 4725 DROPPED PREFETCHES: 0
L1D PREFETCHES SAME FILL-ORIGIN LEVEL: 12198 DIFFERENT FILL-ORIGIN LEVEL: 0
L1D AVERAGE MISS LATENCY: 601116 cycles
L1D RQ	ACCESS:   11663698	FORWARD:          0	MERGED:    3878692	TO_CACHE:    7591364
L1D WQ	ACCESS:    8709360	FORWARD:     195676	MERGED:     105936	TO_CACHE:    8603424
L1D PQ	ACCESS:     498127	FORWARD:          0	MERGED:          0	TO_CACHE:     496093

L1D UNIQUE REGIONS ACCESSED: 0
L1D REGIONS CONFLICTS: 0
L1D Cross Page Prefetch Requests: 0
L1D Same Page Prefetch Requests: 669210
L1D ROI Sum of L1D PQ occupancy: 13925636
L1D PREFETCHES PUSHED FROM L2C: 0
L1I TOTAL     ACCESS:    9759443  HIT:    8173037  MISS:    1586406  HIT %:    83.7449  MISS %:    16.2551   MPKI: 31.7281
L1I LOAD      ACCESS:    9759443  HIT:    8173037  MISS:    1586406  HIT %:    83.7449  MISS %:    16.2551   MPKI: 31.7281
L1I PREFETCH  REQUESTED:          0  ISSUED:          0  USEFUL:          0  USELESS:          0
L1I USEFUL LOAD PREFETCHES:          0 PREFETCH ISSUED TO LOWER LEVEL:          0  ACCURACY: -nan
L1I TIMELY PREFETCHES:          0 LATE PREFETCHES: 0 DROPPED PREFETCHES: 0
L1I PREFETCHES SAME FILL-ORIGIN LEVEL: 0 DIFFERENT FILL-ORIGIN LEVEL: 0
L1I AVERAGE MISS LATENCY: 15.0163 cycles
L1I RQ	ACCESS:   14003538	FORWARD:          0	MERGED:    3855983	TO_CACHE:   10147555

BTB TOTAL     ACCESS:    5716816  HIT:    5260996  MISS:     455820  HIT %:    92.0267  MISS %:    7.97332   MPKI: 9.1164
BTB BRANCH_DIRECT_JUMP	ACCESS:     441887  HIT:     440766  MISS:       1121
BTB BRANCH_INDIRECT	ACCESS:       2325  HIT:       2200  MISS:        125
BTB BRANCH_CONDITIONAL	ACCESS:    2696688  HIT:    2692752  MISS:       3936
BTB BRANCH_DIRECT_CALL	ACCESS:    1164143  HIT:    1161178  MISS:       2965
BTB BRANCH_INDIRECT_CALL	ACCESS:     123824  HIT:     109162  MISS:      14662
BTB BRANCH_RETURN	ACCESS:    1287949  HIT:     854938  MISS:     433011
BTB BRANCH_OTHER ACCESS:          0  HIT:          0  MISS:          0

L2C TOTAL     ACCESS:    1688590  HIT:    1626844  MISS:      61746  HIT %:    96.3433  MISS %:    3.65666   MPKI: 1.23492
L2C LOAD      ACCESS:    1602070  HIT:    1583012  MISS:      19058  HIT %:    98.8104  MISS %:    1.18959   MPKI: 0.38116
L2C DATA LOAD MPKI: 0.2043
L2C INSTRUCTION LOAD MPKI: 0.17686
L2C RFO       ACCESS:      29675  HIT:        961  MISS:      28714  HIT %:    3.23842  MISS %:    96.7616   MPKI: 0.57428
L2C PREFETCH  ACCESS:      21181  HIT:       7890  MISS:      13291  HIT %:    37.2504  MISS %:    62.7496   MPKI: 0.26582
L2C DATA PREFETCH MPKI: 0.26582
L2C INSTRUCTION PREFETCH MPKI: 0
L2C WRITEBACK ACCESS:      33993  HIT:      33983  MISS:         10  HIT %:    99.9706  MISS %:  0.0294178   MPKI: 0.0002
L2C LOAD TRANSLATION ACCESS:       1671  HIT:        998  MISS:        673  HIT %:    59.7247  MISS %:    40.2753   MPKI: 0.01346
L2C PREFETCH  REQUESTED:      30353  ISSUED:      30323  USEFUL:       1461  USELESS:      13750
L2C USEFUL LOAD PREFETCHES:       1461 PREFETCH ISSUED TO LOWER LEVEL:      17703  ACCURACY: 8.25284
L2C TIMELY PREFETCHES:       1461 LATE PREFETCHES: 4412 DROPPED PREFETCHES: 0
L2C PREFETCHES SAME FILL-ORIGIN LEVEL: 11998 DIFFERENT FILL-ORIGIN LEVEL: 0
L2C AVERAGE MISS LATENCY: 973.515 cycles
L2C RQ	ACCESS:    1633416	FORWARD:          0	MERGED:          0	TO_CACHE:    1633416
L2C WQ	ACCESS:      33993	FORWARD:          0	MERGED:          0	TO_CACHE:      33993
L2C PQ	ACCESS:      42513	FORWARD:          0	MERGED:       3744	TO_CACHE:      38769

L2C Instructions Evicting Data 7542
L2C Translations Evicting Data 563
L2C Data Evicting Data 44698
L2C Instructions Evicting Instructions 1161
L2C Translations Evicting Instructions 96
L2C Data Evicting Instructions 7013
L2C Instructions Evicting Translations 94
L2C Translations Evicting Translations 5
L2C Data Evicting Translations 486
L2C Dense regions hint from L2: 0
PSCL5 TOTAL     ACCESS:       1552  HIT:       1552  MISS:          0  HIT %:        100  MISS %:          0   MPKI: 0
PSCL5 LOAD TRANSLATION ACCESS:       1552  HIT:       1552  MISS:          0  HIT %:        100  MISS %:          0   MPKI: 0
PSCL5 PREFETCH  REQUESTED:          0  ISSUED:          0  USEFUL:          0  USELESS:          0
PSCL5 USEFUL LOAD PREFETCHES:          0 PREFETCH ISSUED TO LOWER LEVEL:          0  ACCURACY: -nan
PSCL5 TIMELY PREFETCHES:          0 LATE PREFETCHES: 0 DROPPED PREFETCHES: 0
PSCL5 PREFETCHES SAME FILL-ORIGIN LEVEL: 0 DIFFERENT FILL-ORIGIN LEVEL: 0

PSCL4 TOTAL     ACCESS:       1113  HIT:       1103  MISS:         10  HIT %:    99.1015  MISS %:   0.898473   MPKI: 0.0002
PSCL4 LOAD TRANSLATION ACCESS:       1113  HIT:       1103  MISS:         10  HIT %:    99.1015  MISS %:   0.898473   MPKI: 0.0002
PSCL4 PREFETCH  REQUESTED:          0  ISSUED:          0  USEFUL:          0  USELESS:          0
PSCL4 USEFUL LOAD PREFETCHES:          0 PREFETCH ISSUED TO LOWER LEVEL:          0  ACCURACY: -nan
PSCL4 TIMELY PREFETCHES:          0 LATE PREFETCHES: 0 DROPPED PREFETCHES: 0
PSCL4 PREFETCHES SAME FILL-ORIGIN LEVEL: 0 DIFFERENT FILL-ORIGIN LEVEL: 0

PSCL3 TOTAL     ACCESS:       1438  HIT:       1427  MISS:         11  HIT %:     99.235  MISS %:   0.764951   MPKI: 0.00022
PSCL3 LOAD TRANSLATION ACCESS:       1438  HIT:       1427  MISS:         11  HIT %:     99.235  MISS %:   0.764951   MPKI: 0.00022
PSCL3 PREFETCH  REQUESTED:          0  ISSUED:          0  USEFUL:          0  USELESS:          0
PSCL3 USEFUL LOAD PREFETCHES:          0 PREFETCH ISSUED TO LOWER LEVEL:          0  ACCURACY: -nan
PSCL3 TIMELY PREFETCHES:          0 LATE PREFETCHES: 0 DROPPED PREFETCHES: 0
PSCL3 PREFETCHES SAME FILL-ORIGIN LEVEL: 0 DIFFERENT FILL-ORIGIN LEVEL: 0

PSCL2 TOTAL     ACCESS:       1552  HIT:       1393  MISS:        159  HIT %:    89.7552  MISS %:    10.2448   MPKI: 0.00318
PSCL2 LOAD TRANSLATION ACCESS:       1552  HIT:       1393  MISS:        159  HIT %:    89.7552  MISS %:    10.2448   MPKI: 0.00318
PSCL2 PREFETCH  REQUESTED:          0  ISSUED:          0  USEFUL:          0  USELESS:          0
PSCL2 USEFUL LOAD PREFETCHES:          0 PREFETCH ISSUED TO LOWER LEVEL:          0  ACCURACY: -nan
PSCL2 TIMELY PREFETCHES:          0 LATE PREFETCHES: 0 DROPPED PREFETCHES: 0
PSCL2 PREFETCHES SAME FILL-ORIGIN LEVEL: 0 DIFFERENT FILL-ORIGIN LEVEL: 0

LLC TOTAL     ACCESS:      92778  HIT:      41827  MISS:      50951  HIT %:    45.0829  MISS %:    54.9171   MPKI: 1.01902
LLC LOAD      ACCESS:      14658  HIT:       3505  MISS:      11153  HIT %:    23.9119  MISS %:    76.0881   MPKI: 0.22306
LLC RFO       ACCESS:      28702  HIT:       5498  MISS:      23204  HIT %:    19.1555  MISS %:    80.8445   MPKI: 0.46408
LLC PREFETCH  ACCESS:      17703  HIT:       1655  MISS:      16048  HIT %:     9.3487  MISS %:    90.6513   MPKI: 0.32096
LLC WRITEBACK ACCESS:      31042  HIT:      31004  MISS:         38  HIT %:    99.8776  MISS %:   0.122415   MPKI: 0.00076
LLC LOAD TRANSLATION ACCESS:        673  HIT:        165  MISS:        508  HIT %:    24.5171  MISS %:    75.4829   MPKI: 0.01016
LLC PREFETCH  REQUESTED:          0  ISSUED:          0  USEFUL:       3835  USELESS:      10661
LLC USEFUL LOAD PREFETCHES:       3835 PREFETCH ISSUED TO LOWER LEVEL:      16048  ACCURACY: 23.8971
LLC TIMELY PREFETCHES:       3835 LATE PREFETCHES: 0 DROPPED PREFETCHES: 0
LLC PREFETCHES SAME FILL-ORIGIN LEVEL: 0 DIFFERENT FILL-ORIGIN LEVEL: 0
LLC AVERAGE MISS LATENCY: 1203.11 cycles
LLC RQ	ACCESS:      44033	FORWARD:          0	MERGED:          0	TO_CACHE:      44033
LLC WQ	ACCESS:      31042	FORWARD:          0	MERGED:          0	TO_CACHE:      31042
LLC PQ	ACCESS:      17703	FORWARD:          0	MERGED:          0	TO_CACHE:      17703

LLC Dense regions hint to LLC: 0

RAW hits: 1147723
Loads Generated: 12811420
Loads sent to L1D: 11663698
Stores Generated: 8709360
Stores sent to L1D: 8709360
Major fault: 0 Minor fault: 1998
Allocated PAGES: 1998

stream: 
stream:times selected: 1196630
stream:pref_filled: 9075
stream:pref_useful: 3175
stream:pref_late: 270
stream:misses: 1037
stream:misses_by_poll: 0

CS: 
CS:times selected: 906052
CS:pref_filled: 3124
CS:pref_useful: 2948
CS:pref_late: 4547
CS:misses: 10861
CS:misses_by_poll: 4

CPLX: 
CPLX:times selected: 287549
CPLX:pref_filled: 1867
CPLX:pref_useful: 279
CPLX:pref_late: 32
CPLX:misses: 3612
CPLX:misses_by_poll: 1

NL_L1: 
NL:times selected: 4246
NL:pref_filled: 57
NL:pref_useful: 4
NL:pref_late: 1
NL:misses: 45
NL:misses_by_poll: 0

total selections: 2394477
total_filled: 7452
total_useful: 3762
total_late: 4889
total_polluted: 5
total_misses_after_warmup: 23326
conflicts: 3137188
Degree Incremented Times: 54
Degree Decremented Times: 54613

L1 IP Table Write Accesses: 4340057
L1 IP Table Read Accesses: 1202869
L1 RST Write Accesses: 1027462
L1 RST Read Accesses: 2054924
L1 CSPT Write Accesses: 1027462
L1 CSPT Read Accesses: 1267330
L1 RR Filter Tag Write Accesses: 498169
L1 RR Filter Tag Read Accesses: 108417236
L1 IP Table Tag Write Accesses: 7591368
L1 IP Table Tag Read Accesses: 7591368
L1 RST Tag Write Accesses: 0
L1 RST Tag Read Accesses: 7136074
L1 RR Filter Write Accesses: 0
L1 RR Filter Read Accesses: 3514348
test: 140473
L2 IP Table Read Accesses: 39821
L2 IP Table Write Accesses: 34388
L2 IP Table Tag Read Accesses: 22939
L2 IP Table Tag Write Accesses: 22939

DRAM Statistics
 CHANNEL 0
 RQ ROW_BUFFER_HIT:      28989  ROW_BUFFER_MISS:      21923
 DBUS_CONGESTED:      58203
 WQ ROW_BUFFER_HIT:       4727  ROW_BUFFER_MISS:       9424  FULL:          0

 AVG_CONGESTED_CYCLE: 75
 All warmup complete: 2
Channel 0 Bank busy for read cycles: 0
Channel 0 Bank busy for write cycles: 0
Channel 0
Rank 0
0banks busy for read cycles: 79050240
0banks busy for write cycles: 454
1banks busy for read cycles: 946053
1banks busy for write cycles: 85500
2banks busy for read cycles: 461651
2banks busy for write cycles: 58618
3banks busy for read cycles: 204887
3banks busy for write cycles: 50964
4banks busy for read cycles: 117672
4banks busy for write cycles: 52731
5banks busy for read cycles: 82185
5banks busy for write cycles: 45685
6banks busy for read cycles: 79515
6banks busy for write cycles: 89402
7banks busy for read cycles: 163465
7banks busy for write cycles: 209339
8banks busy for read cycles: 2533280
8banks busy for write cycles: 890116

CPU 0 Branch Prediction Accuracy: 97.4648% MPKI: 4.28304 Average ROB Occupancy at Mispredict: 41.4861
Branch types
NOT_BRANCH: 41552502 83.105%
BRANCH_DIRECT_JUMP: 441887 0.883774%
BRANCH_INDIRECT: 2325 0.00465%
BRANCH_CONDITIONAL: 5427045 10.8541%
BRANCH_DIRECT_CALL: 1164143 2.32829%
BRANCH_INDIRECT_CALL: 123824 0.247648%
BRANCH_RETURN: 1287949 2.5759%
BRANCH_OTHER: 0 0%

@sumon_overall_L1D      3762      4725      3826      7452    994220    994262
@Sumon_Early_by_class_L1D       625      2892       217         0
@Sumon_Late_by_class_L1D       115      4541        32         0

@Sumon_Early_by_cycle_L1D       432       864       683       304       273       576       149       120       105       130        65        61
@Sumon_Late_by_cycle_L1D       577       498       672       596       578      1474       317        13         0         0         0         0
@Sumon_Early_stream_L1D        84        58        64        22        21        75        44        55        43        88        28        43
@Sumon_Early_CS_L1D       334       797       610       267       249       466        86        36        27         8        11         1
@Sumon_Early_CPLX_L1D         8         7         5        12         3        30        16        28        32        33        26        17
@Sumon_Late_stream_L1D        54        36         8         4         1        11         1         0         0         0         0         0
@Sumon_Late_CS_L1D       485       446       656       589       576      1463       313        13         0         0         0         0
@Sumon_Late_CPLX_L1D         9        10         7         2         1         0         3         0         0         0         0         0
@sumon_overall_L2C      1461      4412     13750     13291     30323     30353
@Sumon_Early_by_class_L2C       173       657        66         0
@Sumon_Late_by_class_L2C         0      4316         0         0

@Sumon_Early_by_cycle_L2C        84       138       201        83        76       175        49        38        28        56        77       456
@Sumon_Late_by_cycle_L2C       185       202       278       629       725      2042       351         0         0         0         0         0
@Sumon_Early_stream_L2C         0         0         0         0         0         0         0         0         0         0         3       170
@Sumon_Early_CS_L2C        40        94       171        64        66       123        15         3         7        10        29        35
@Sumon_Early_CPLX_L2C         0         0         0         0         0         0         0         0         0         0         3        63
@Sumon_Late_stream_L2C         0         0         0         0         0         0         0         0         0         0         0         0
@Sumon_Late_CS_L2C       144       169       264       623       723      2042       351         0         0         0         0         0
@Sumon_Late_CPLX_L2C         0         0         0         0         0         0         0         0         0         0         0         0
DRAM PAGES: 1048576
Allocated PAGES: 1998
