
*** ChampSim Multicore Out-of-Order Simulator ***

Warmup Instructions: 10000000
Simulation Instructions: 50000000
Number of CPUs: 1
LLC sets: 2048
LLC ways: 16
Off-chip DRAM Size: 4096 MB Channels: 1 Width: 64-bit Data Rate: 400 MT/s
CPU 0 runs traces/clientserver/server_021.champsimtrace.xz
.xz
CPU 0 Bimodal branch predictor
BTB has LRU replacement policy
ITLB has LRU replacement policy
DTLB has LRU replacement policy
STLB has LRU replacement policy
L1I has LRU replacement policy
IP Table Entries: 256
L1D has LRU replacement policy
IP_Table L2 entries: 256
L2C has LRU replacement policy
LLC has LRU replacement policy
Heartbeat CPU 0 instructions: 10000000 cycles: 3158774 heartbeat IPC: 3.16579 cumulative IPC: 3.16579 (Simulation time: 0 hr 19 min 38 sec) 

Warmup complete CPU 0 instructions: 10000004 cycles: 3158775 (Simulation time: 0 hr 19 min 38 sec) 

Heartbeat CPU 0 instructions: 20000000 cycles: 48190084 heartbeat IPC: 0.222068 cumulative IPC: 0.222068 (Simulation time: 1 hr 10 min 22 sec) 
Heartbeat CPU 0 instructions: 30000003 cycles: 93500658 heartbeat IPC: 0.220699 cumulative IPC: 0.221381 (Simulation time: 1 hr 49 min 43 sec) 
Heartbeat CPU 0 instructions: 40000000 cycles: 138057009 heartbeat IPC: 0.224435 cumulative IPC: 0.22239 (Simulation time: 1 hr 57 min 52 sec) 
Heartbeat CPU 0 instructions: 50000002 cycles: 183090157 heartbeat IPC: 0.222059 cumulative IPC: 0.222307 (Simulation time: 2 hr 5 min 55 sec) 
Heartbeat CPU 0 instructions: 60000001 cycles: 228077570 heartbeat IPC: 0.222284 cumulative IPC: 0.222302 (Simulation time: 2 hr 13 min 31 sec) 
Finished CPU 0 instructions: 50000001 cycles: 224918796 cumulative IPC: 0.222302 (Simulation time: 2 hr 13 min 31 sec) 

ChampSim completed all CPUs

Region of Interest Statistics

CPU 0 cumulative IPC: 0.222302 instructions: 50000001 cycles: 224918796
ITLB TOTAL     ACCESS:    9228302  HIT:    8846013  MISS:     382289  HIT %:    95.8574  MISS %:    4.14257   MPKI: 7.64578
ITLB LOAD TRANSLATION ACCESS:    9228302  HIT:    8846013  MISS:     382289  HIT %:    95.8574  MISS %:    4.14257   MPKI: 7.64578
ITLB PREFETCH  REQUESTED:          0  ISSUED:          0  USEFUL:          0  USELESS:          0
ITLB USEFUL LOAD PREFETCHES:          0 PREFETCH ISSUED TO LOWER LEVEL:          0  ACCURACY: -nan
ITLB TIMELY PREFETCHES:          0 LATE PREFETCHES: 0 DROPPED PREFETCHES: 0
ITLB PREFETCHES SAME FILL-ORIGIN LEVEL: 0 DIFFERENT FILL-ORIGIN LEVEL: 0
ITLB AVERAGE MISS LATENCY: 9.41504 cycles
ITLB RQ	ACCESS:   10841516	FORWARD:          0	MERGED:    1490658	TO_CACHE:    9350858

DTLB TOTAL     ACCESS:   11942799  HIT:   11541721  MISS:     401078  HIT %:    96.6417  MISS %:    3.35832   MPKI: 8.02156
DTLB LOAD TRANSLATION ACCESS:   11942799  HIT:   11541721  MISS:     401078  HIT %:    96.6417  MISS %:    3.35832   MPKI: 8.02156
DTLB PREFETCH  REQUESTED:          0  ISSUED:          0  USEFUL:          0  USELESS:          0
DTLB USEFUL LOAD PREFETCHES:          0 PREFETCH ISSUED TO LOWER LEVEL:          0  ACCURACY: -nan
DTLB TIMELY PREFETCHES:          0 LATE PREFETCHES: 0 DROPPED PREFETCHES: 0
DTLB PREFETCHES SAME FILL-ORIGIN LEVEL: 0 DIFFERENT FILL-ORIGIN LEVEL: 0
DTLB AVERAGE MISS LATENCY: 20.4555 cycles
DTLB RQ	ACCESS:   16788334	FORWARD:          0	MERGED:    4787483	TO_CACHE:   12000851

STLB TOTAL     ACCESS:    1447588  HIT:    1427760  MISS:      19828  HIT %:    98.6303  MISS %:    1.36973   MPKI: 0.39656
STLB LOAD TRANSLATION ACCESS:     783367  HIT:     763539  MISS:      19828  HIT %:    97.4689  MISS %:    2.53113   MPKI: 0.39656
STLB TRANSLATION FROM L1D PREFETCHER ACCESS:     664221  HIT:     664221  MISS:          0  HIT %:        100  MISS %:          0   MPKI: 0
STLB PREFETCH  REQUESTED:          0  ISSUED:          0  USEFUL:          0  USELESS:          0
STLB USEFUL LOAD PREFETCHES:          0 PREFETCH ISSUED TO LOWER LEVEL:          0  ACCURACY: -nan
STLB TIMELY PREFETCHES:          0 LATE PREFETCHES: 0 DROPPED PREFETCHES: 0
STLB PREFETCHES SAME FILL-ORIGIN LEVEL: 0 DIFFERENT FILL-ORIGIN LEVEL: 0
STLB AVERAGE MISS LATENCY: 239.265 cycles
STLB RQ	ACCESS:    1970254	FORWARD:          0	MERGED:     522666	TO_CACHE:    1447588

STLB Hit, L1D data hit: 0
STLB Hit, L2C data hit: 0
STLB Hit, LLC data hit: 0
STLB Hit, LLC data miss: 0
STLB STLB hints to L2: 0
L1D TOTAL     ACCESS:   15067281  HIT:   12937136  MISS:    2130145  HIT %:    85.8624  MISS %:    14.1376   MPKI: 42.6029
L1D LOAD      ACCESS:    7981264  HIT:    7280383  MISS:     700881  HIT %:    91.2184  MISS %:    8.78158   MPKI: 14.0176
L1D RFO       ACCESS:    6081556  HIT:    5098857  MISS:     982699  HIT %:    83.8413  MISS %:    16.1587   MPKI: 19.654
L1D PREFETCH  ACCESS:    1004461  HIT:     557896  MISS:     446565  HIT %:    55.5418  MISS %:    44.4582   MPKI: 8.9313
L1D PREFETCH  REQUESTED:    2458126  ISSUED:    2373909  USEFUL:     165711  USELESS:     280823
L1D USEFUL LOAD PREFETCHES:     165711 PREFETCH ISSUED TO LOWER LEVEL:     603038  ACCURACY: 27.4794
L1D TIMELY PREFETCHES:     165711 LATE PREFETCHES: 156454 DROPPED PREFETCHES: 0
L1D PREFETCHES SAME FILL-ORIGIN LEVEL: 603038 DIFFERENT FILL-ORIGIN LEVEL: 0
L1D AVERAGE MISS LATENCY: 8.42629e+06 cycles
L1D RQ	ACCESS:   11505873	FORWARD:          0	MERGED:    3355648	TO_CACHE:    8026579
L1D WQ	ACCESS:    8825676	FORWARD:     123704	MERGED:      63921	TO_CACHE:    8761755
L1D PQ	ACCESS:    1187022	FORWARD:          0	MERGED:         77	TO_CACHE:    1186887

L1D UNIQUE REGIONS ACCESSED: 0
L1D REGIONS CONFLICTS: 0
L1D Cross Page Prefetch Requests: 0
L1D Same Page Prefetch Requests: 1429058
L1D ROI Sum of L1D PQ occupancy: 141031196
L1D PREFETCHES PUSHED FROM L2C: 0
L1I TOTAL     ACCESS:   10107692  HIT:    7670104  MISS:    2437588  HIT %:    75.8838  MISS %:    24.1162   MPKI: 48.7518
L1I LOAD      ACCESS:   10107692  HIT:    7670104  MISS:    2437588  HIT %:    75.8838  MISS %:    24.1162   MPKI: 48.7518
L1I PREFETCH  REQUESTED:          0  ISSUED:          0  USEFUL:          0  USELESS:          0
L1I USEFUL LOAD PREFETCHES:          0 PREFETCH ISSUED TO LOWER LEVEL:          0  ACCURACY: -nan
L1I TIMELY PREFETCHES:          0 LATE PREFETCHES: 0 DROPPED PREFETCHES: 0
L1I PREFETCHES SAME FILL-ORIGIN LEVEL: 0 DIFFERENT FILL-ORIGIN LEVEL: 0
L1I AVERAGE MISS LATENCY: 17.7509 cycles
L1I RQ	ACCESS:   14766778	FORWARD:          0	MERGED:    3925262	TO_CACHE:   10841516

BTB TOTAL     ACCESS:    5338422  HIT:    5079378  MISS:     259044  HIT %:    95.1476  MISS %:    4.85245   MPKI: 5.18088
BTB BRANCH_DIRECT_JUMP	ACCESS:     443771  HIT:     441817  MISS:       1954
BTB BRANCH_INDIRECT	ACCESS:      50297  HIT:      50199  MISS:         98
BTB BRANCH_CONDITIONAL	ACCESS:    3011244  HIT:    3005231  MISS:       6013
BTB BRANCH_DIRECT_CALL	ACCESS:     756237  HIT:     752212  MISS:       4025
BTB BRANCH_INDIRECT_CALL	ACCESS:     160309  HIT:     130600  MISS:      29709
BTB BRANCH_RETURN	ACCESS:     916564  HIT:     699319  MISS:     217245
BTB BRANCH_OTHER ACCESS:          0  HIT:          0  MISS:          0

L2C TOTAL     ACCESS:    6084209  HIT:    4147889  MISS:    1936320  HIT %:    68.1747  MISS %:    31.8253   MPKI: 38.7264
L2C LOAD      ACCESS:    2981992  HIT:    2559569  MISS:     422423  HIT %:    85.8342  MISS %:    14.1658   MPKI: 8.44846
L2C DATA LOAD MPKI: 5.55346
L2C INSTRUCTION LOAD MPKI: 2.895
L2C RFO       ACCESS:     982676  HIT:      31890  MISS:     950786  HIT %:    3.24522  MISS %:    96.7548   MPKI: 19.0157
L2C PREFETCH  ACCESS:     930794  HIT:     377474  MISS:     553320  HIT %:     40.554  MISS %:     59.446   MPKI: 11.0664
L2C DATA PREFETCH MPKI: 11.0664
L2C INSTRUCTION PREFETCH MPKI: 0
L2C WRITEBACK ACCESS:    1167420  HIT:    1166375  MISS:       1045  HIT %:    99.9105  MISS %:  0.0895136   MPKI: 0.0209
L2C LOAD TRANSLATION ACCESS:      21327  HIT:      12581  MISS:       8746  HIT %:     58.991  MISS %:     41.009   MPKI: 0.17492
L2C PREFETCH  REQUESTED:     374289  ISSUED:     374289  USEFUL:      56493  USELESS:     496406
L2C USEFUL LOAD PREFETCHES:      56493 PREFETCH ISSUED TO LOWER LEVEL:     560891  ACCURACY: 10.072
L2C TIMELY PREFETCHES:      56493 LATE PREFETCHES: 7571 DROPPED PREFETCHES: 0
L2C PREFETCHES SAME FILL-ORIGIN LEVEL: 143474 DIFFERENT FILL-ORIGIN LEVEL: 0
L2C AVERAGE MISS LATENCY: 1001.59 cycles
L2C RQ	ACCESS:    3986030	FORWARD:          0	MERGED:          0	TO_CACHE:    3986003
L2C WQ	ACCESS:    1167420	FORWARD:         31	MERGED:          0	TO_CACHE:    1167420
L2C PQ	ACCESS:     977327	FORWARD:          0	MERGED:      17282	TO_CACHE:     960041

L2C Instructions Evicting Data 134743
L2C Translations Evicting Data 8054
L2C Data Evicting Data 1638721
L2C Instructions Evicting Instructions 9237
L2C Translations Evicting Instructions 640
L2C Data Evicting Instructions 135109
L2C Instructions Evicting Translations 770
L2C Translations Evicting Translations 52
L2C Data Evicting Translations 7949
L2C Dense regions hint from L2: 0
PSCL5 TOTAL     ACCESS:      19828  HIT:      19828  MISS:          0  HIT %:        100  MISS %:          0   MPKI: 0
PSCL5 LOAD TRANSLATION ACCESS:      19828  HIT:      19828  MISS:          0  HIT %:        100  MISS %:          0   MPKI: 0
PSCL5 PREFETCH  REQUESTED:          0  ISSUED:          0  USEFUL:          0  USELESS:          0
PSCL5 USEFUL LOAD PREFETCHES:          0 PREFETCH ISSUED TO LOWER LEVEL:          0  ACCURACY: -nan
PSCL5 TIMELY PREFETCHES:          0 LATE PREFETCHES: 0 DROPPED PREFETCHES: 0
PSCL5 PREFETCHES SAME FILL-ORIGIN LEVEL: 0 DIFFERENT FILL-ORIGIN LEVEL: 0

PSCL4 TOTAL     ACCESS:      19290  HIT:      19242  MISS:         48  HIT %:    99.7512  MISS %:   0.248834   MPKI: 0.00096
PSCL4 LOAD TRANSLATION ACCESS:      19290  HIT:      19242  MISS:         48  HIT %:    99.7512  MISS %:   0.248834   MPKI: 0.00096
PSCL4 PREFETCH  REQUESTED:          0  ISSUED:          0  USEFUL:          0  USELESS:          0
PSCL4 USEFUL LOAD PREFETCHES:          0 PREFETCH ISSUED TO LOWER LEVEL:          0  ACCURACY: -nan
PSCL4 TIMELY PREFETCHES:          0 LATE PREFETCHES: 0 DROPPED PREFETCHES: 0
PSCL4 PREFETCHES SAME FILL-ORIGIN LEVEL: 0 DIFFERENT FILL-ORIGIN LEVEL: 0

PSCL3 TOTAL     ACCESS:      19524  HIT:      19476  MISS:         48  HIT %:    99.7541  MISS %:   0.245851   MPKI: 0.00096
PSCL3 LOAD TRANSLATION ACCESS:      19524  HIT:      19476  MISS:         48  HIT %:    99.7541  MISS %:   0.245851   MPKI: 0.00096
PSCL3 PREFETCH  REQUESTED:          0  ISSUED:          0  USEFUL:          0  USELESS:          0
PSCL3 USEFUL LOAD PREFETCHES:          0 PREFETCH ISSUED TO LOWER LEVEL:          0  ACCURACY: -nan
PSCL3 TIMELY PREFETCHES:          0 LATE PREFETCHES: 0 DROPPED PREFETCHES: 0
PSCL3 PREFETCHES SAME FILL-ORIGIN LEVEL: 0 DIFFERENT FILL-ORIGIN LEVEL: 0

PSCL2 TOTAL     ACCESS:      19828  HIT:      18400  MISS:       1428  HIT %:    92.7981  MISS %:    7.20194   MPKI: 0.02856
PSCL2 LOAD TRANSLATION ACCESS:      19828  HIT:      18400  MISS:       1428  HIT %:    92.7981  MISS %:    7.20194   MPKI: 0.02856
PSCL2 PREFETCH  REQUESTED:          0  ISSUED:          0  USEFUL:          0  USELESS:          0
PSCL2 USEFUL LOAD PREFETCHES:          0 PREFETCH ISSUED TO LOWER LEVEL:          0  ACCURACY: -nan
PSCL2 TIMELY PREFETCHES:          0 LATE PREFETCHES: 0 DROPPED PREFETCHES: 0
PSCL2 PREFETCHES SAME FILL-ORIGIN LEVEL: 0 DIFFERENT FILL-ORIGIN LEVEL: 0

LLC TOTAL     ACCESS:    3042248  HIT:    1721845  MISS:    1320403  HIT %:    56.5978  MISS %:    43.4022   MPKI: 26.4081
LLC LOAD      ACCESS:     415156  HIT:     302332  MISS:     112824  HIT %:    72.8237  MISS %:    27.1763   MPKI: 2.25648
LLC RFO       ACCESS:     950480  HIT:     142679  MISS:     807801  HIT %:    15.0113  MISS %:    84.9887   MPKI: 16.156
LLC PREFETCH  ACCESS:     560891  HIT:     168739  MISS:     392152  HIT %:    30.0841  MISS %:    69.9159   MPKI: 7.84304
LLC WRITEBACK ACCESS:    1106975  HIT:    1105779  MISS:       1196  HIT %:     99.892  MISS %:   0.108042   MPKI: 0.02392
LLC LOAD TRANSLATION ACCESS:       8746  HIT:       2316  MISS:       6430  HIT %:    26.4807  MISS %:    73.5193   MPKI: 0.1286
LLC PREFETCH  REQUESTED:          0  ISSUED:          0  USEFUL:      10818  USELESS:     381403
LLC USEFUL LOAD PREFETCHES:      10818 PREFETCH ISSUED TO LOWER LEVEL:     392152  ACCURACY: 2.75862
LLC TIMELY PREFETCHES:      10818 LATE PREFETCHES: 0 DROPPED PREFETCHES: 0
LLC PREFETCHES SAME FILL-ORIGIN LEVEL: 0 DIFFERENT FILL-ORIGIN LEVEL: 0
LLC AVERAGE MISS LATENCY: 1425.56 cycles
LLC RQ	ACCESS:    1374392	FORWARD:          0	MERGED:          0	TO_CACHE:    1374390
LLC WQ	ACCESS:    1106975	FORWARD:          2	MERGED:          0	TO_CACHE:    1106975
LLC PQ	ACCESS:     560891	FORWARD:          0	MERGED:          0	TO_CACHE:     560891

LLC Dense regions hint to LLC: 0

RAW hits: 913959
Loads Generated: 12419836
Loads sent to L1D: 11505873
Stores Generated: 8825673
Stores sent to L1D: 8825676
Major fault: 0 Minor fault: 14275
Allocated PAGES: 14275

stream: 
stream:times selected: 2340635
stream:pref_filled: 544417
stream:pref_useful: 228789
stream:pref_late: 134927
stream:misses: 16057
stream:misses_by_poll: 0

CS: 
CS:times selected: 2057207
CS:pref_filled: 3325
CS:pref_useful: 3069
CS:pref_late: 3098
CS:misses: 165604
CS:misses_by_poll: 4

CPLX: 
CPLX:times selected: 278770
CPLX:pref_filled: 21071
CPLX:pref_useful: 1307
CPLX:pref_late: 237
CPLX:misses: 51475
CPLX:misses_by_poll: 17

NL_L1: 
NL:times selected: 906
NL:pref_filled: 310
NL:pref_useful: 5
NL:pref_late: 15
NL:misses: 436
NL:misses_by_poll: 0

total selections: 4677518
total_filled: 446565
total_useful: 165711
total_late: 157200
total_polluted: 21
total_misses_after_warmup: 746197
conflicts: 2684638
Degree Incremented Times: 57358
Degree Decremented Times: 118447

L1 IP Table Write Accesses: 5173656
L1 IP Table Read Accesses: 2489018
L1 RST Write Accesses: 1941685
L1 RST Read Accesses: 3883370
L1 CSPT Write Accesses: 1941685
L1 CSPT Read Accesses: 2172176
L1 RR Filter Tag Write Accesses: 1271239
L1 RR Filter Tag Read Accesses: 471478032
L1 IP Table Tag Write Accesses: 8026580
L1 IP Table Tag Read Accesses: 8026580
L1 RST Tag Write Accesses: 0
L1 RST Tag Read Accesses: 17552490
L1 RR Filter Write Accesses: 0
L1 RR Filter Read Accesses: 16269614
test: 134424
L2 IP Table Read Accesses: 1907268
L2 IP Table Write Accesses: 2021113
L2 IP Table Tag Read Accesses: 1138147
L2 IP Table Tag Write Accesses: 1138147

DRAM Statistics
 CHANNEL 0
 RQ ROW_BUFFER_HIT:     419434  ROW_BUFFER_MISS:     899491
 DBUS_CONGESTED:    2045267
 WQ ROW_BUFFER_HIT:     189381  ROW_BUFFER_MISS:     691175  FULL:          0

 AVG_CONGESTED_CYCLE: 77
 All warmup complete: 2
Channel 0 Bank busy for read cycles: 0
Channel 0 Bank busy for write cycles: 0
Channel 0
Rank 0
0banks busy for read cycles: 25015543
0banks busy for write cycles: 19496
1banks busy for read cycles: 13753286
1banks busy for write cycles: 2943528
2banks busy for read cycles: 7757270
2banks busy for write cycles: 1806713
3banks busy for read cycles: 4797059
3banks busy for write cycles: 1530900
4banks busy for read cycles: 5070537
4banks busy for write cycles: 1547737
5banks busy for read cycles: 8069974
5banks busy for write cycles: 1675590
6banks busy for read cycles: 6368822
6banks busy for write cycles: 2201061
7banks busy for read cycles: 8719393
7banks busy for write cycles: 4789132
8banks busy for read cycles: 64071708
8banks busy for write cycles: 64781048

CPU 0 Branch Prediction Accuracy: 96.6284% MPKI: 5.54662 Average ROB Occupancy at Mispredict: 50.861
Branch types
NOT_BRANCH: 41774097 83.5482%
BRANCH_DIRECT_JUMP: 443771 0.887542%
BRANCH_INDIRECT: 50297 0.100594%
BRANCH_CONDITIONAL: 5898380 11.7968%
BRANCH_DIRECT_CALL: 756237 1.51247%
BRANCH_INDIRECT_CALL: 160309 0.320618%
BRANCH_RETURN: 916564 1.83313%
BRANCH_OTHER: 0 0%

@sumon_overall_L1D    165711    156454    280823    446565   2373909   2458126
@Sumon_Early_by_class_L1D    161540      2296      1113        15
@Sumon_Late_by_class_L1D    134232      3087       210        15

@Sumon_Early_by_cycle_L1D     45066     36617     34608     21589      5452     11595       912       753       557      6690       894       978
@Sumon_Late_by_cycle_L1D    116951      9370      4938      1778      6194     16819       403         1         0         0         0         0
@Sumon_Early_stream_L1D     43577     35793     34054     21379      5383     11104       758       628       481      6561       854       968
@Sumon_Early_CS_L1D      1122       543       350        88         9       182         0         0         0         2         0         0
@Sumon_Early_CPLX_L1D       112        73        93        59        35       226       150       123        76       120        39         7
@Sumon_Late_stream_L1D     95680      9121      4686      1695      6107     16558       384         1         0         0         0         0
@Sumon_Late_CS_L1D      2692        82       127        23        47       113         3         0         0         0         0         0
@Sumon_Late_CPLX_L1D        81        31        70        14         3        11         0         0         0         0         0         0
@sumon_overall_L2C     56493      7571    496406    553320    374289    374289
@Sumon_Early_by_class_L2C      6761        27       422         0
@Sumon_Late_by_class_L2C         0         1         0         0

@Sumon_Early_by_cycle_L2C      3197      6005      5616      1958      2331     11993      3145       723      3756      3451      1255     13063
@Sumon_Late_by_cycle_L2C      6295       958       286         8         8        16         0         0         0         0         0         0
@Sumon_Early_stream_L2C         0         0         0         0         0         4       175       306       594       639       299      4744
@Sumon_Early_CS_L2C         3         0         0         0         0         0         0         0         0        22         0         2
@Sumon_Early_CPLX_L2C         0         0         0         0         0         2         7        22        94        43        10       244
@Sumon_Late_stream_L2C         0         0         0         0         0         0         0         0         0         0         0         0
@Sumon_Late_CS_L2C         0         0         0         0         0         1         0         0         0         0         0         0
@Sumon_Late_CPLX_L2C         0         0         0         0         0         0         0         0         0         0         0         0
DRAM PAGES: 1048576
Allocated PAGES: 14275
