
*** ChampSim Multicore Out-of-Order Simulator ***

Warmup Instructions: 10000000
Simulation Instructions: 50000000
Number of CPUs: 1
LLC sets: 2048
LLC ways: 16
Off-chip DRAM Size: 4096 MB Channels: 1 Width: 64-bit Data Rate: 400 MT/s
CPU 0 runs traces/clientserver/server_027.champsimtrace.xz
.xz
CPU 0 Bimodal branch predictor
BTB has LRU replacement policy
ITLB has LRU replacement policy
DTLB has LRU replacement policy
STLB has LRU replacement policy
L1I has LRU replacement policy
IP Table Entries: 256
L1D has LRU replacement policy
IP_Table L2 entries: 256
L2C has LRU replacement policy
LLC has LRU replacement policy
Heartbeat CPU 0 instructions: 10000000 cycles: 2886850 heartbeat IPC: 3.46398 cumulative IPC: 3.46398 (Simulation time: 0 hr 18 min 48 sec) 

Warmup complete CPU 0 instructions: 10000004 cycles: 2886851 (Simulation time: 0 hr 18 min 48 sec) 

Heartbeat CPU 0 instructions: 20000001 cycles: 28280309 heartbeat IPC: 0.393802 cumulative IPC: 0.393802 (Simulation time: 0 hr 36 min 22 sec) 
Heartbeat CPU 0 instructions: 30000001 cycles: 53427514 heartbeat IPC: 0.397658 cumulative IPC: 0.395721 (Simulation time: 0 hr 54 min 4 sec) 
Heartbeat CPU 0 instructions: 40000001 cycles: 78697001 heartbeat IPC: 0.395734 cumulative IPC: 0.395725 (Simulation time: 1 hr 11 min 50 sec) 
Heartbeat CPU 0 instructions: 50000000 cycles: 103826512 heartbeat IPC: 0.397938 cumulative IPC: 0.396276 (Simulation time: 1 hr 29 min 29 sec) 
Heartbeat CPU 0 instructions: 60000002 cycles: 129208967 heartbeat IPC: 0.393973 cumulative IPC: 0.395813 (Simulation time: 1 hr 45 min 19 sec) 
Finished CPU 0 instructions: 50000001 cycles: 126322122 cumulative IPC: 0.395813 (Simulation time: 1 hr 45 min 19 sec) 

ChampSim completed all CPUs

Region of Interest Statistics

CPU 0 cumulative IPC: 0.395813 instructions: 50000001 cycles: 126322122
ITLB TOTAL     ACCESS:    8427204  HIT:    7936384  MISS:     490820  HIT %:    94.1758  MISS %:    5.82423   MPKI: 9.8164
ITLB LOAD TRANSLATION ACCESS:    8427204  HIT:    7936384  MISS:     490820  HIT %:    94.1758  MISS %:    5.82423   MPKI: 9.8164
ITLB PREFETCH  REQUESTED:          0  ISSUED:          0  USEFUL:          0  USELESS:          0
ITLB USEFUL LOAD PREFETCHES:          0 PREFETCH ISSUED TO LOWER LEVEL:          0  ACCURACY: -nan
ITLB TIMELY PREFETCHES:          0 LATE PREFETCHES: 0 DROPPED PREFETCHES: 0
ITLB PREFETCHES SAME FILL-ORIGIN LEVEL: 0 DIFFERENT FILL-ORIGIN LEVEL: 0
ITLB AVERAGE MISS LATENCY: 9.06424 cycles
ITLB RQ	ACCESS:   10063226	FORWARD:          0	MERGED:    1512366	TO_CACHE:    8550860

DTLB TOTAL     ACCESS:   12624206  HIT:   12148942  MISS:     475264  HIT %:    96.2353  MISS %:     3.7647   MPKI: 9.50528
DTLB LOAD TRANSLATION ACCESS:   12624206  HIT:   12148942  MISS:     475264  HIT %:    96.2353  MISS %:     3.7647   MPKI: 9.50528
DTLB PREFETCH  REQUESTED:          0  ISSUED:          0  USEFUL:          0  USELESS:          0
DTLB USEFUL LOAD PREFETCHES:          0 PREFETCH ISSUED TO LOWER LEVEL:          0  ACCURACY: -nan
DTLB TIMELY PREFETCHES:          0 LATE PREFETCHES: 0 DROPPED PREFETCHES: 0
DTLB PREFETCHES SAME FILL-ORIGIN LEVEL: 0 DIFFERENT FILL-ORIGIN LEVEL: 0
DTLB AVERAGE MISS LATENCY: 9.42332 cycles
DTLB RQ	ACCESS:   15744622	FORWARD:          0	MERGED:    3100389	TO_CACHE:   12644233

STLB TOTAL     ACCESS:    1384434  HIT:    1382124  MISS:       2310  HIT %:    99.8331  MISS %:   0.166855   MPKI: 0.0462
STLB LOAD TRANSLATION ACCESS:     966084  HIT:     963774  MISS:       2310  HIT %:    99.7609  MISS %:    0.23911   MPKI: 0.0462
STLB TRANSLATION FROM L1D PREFETCHER ACCESS:     418350  HIT:     418350  MISS:          0  HIT %:        100  MISS %:          0   MPKI: 0
STLB PREFETCH  REQUESTED:          0  ISSUED:          0  USEFUL:          0  USELESS:          0
STLB USEFUL LOAD PREFETCHES:          0 PREFETCH ISSUED TO LOWER LEVEL:          0  ACCURACY: -nan
STLB TIMELY PREFETCHES:          0 LATE PREFETCHES: 0 DROPPED PREFETCHES: 0
STLB PREFETCHES SAME FILL-ORIGIN LEVEL: 0 DIFFERENT FILL-ORIGIN LEVEL: 0
STLB AVERAGE MISS LATENCY: 96.8732 cycles
STLB RQ	ACCESS:    1499350	FORWARD:          0	MERGED:     114916	TO_CACHE:    1384434

STLB Hit, L1D data hit: 0
STLB Hit, L2C data hit: 0
STLB Hit, LLC data hit: 0
STLB Hit, LLC data miss: 0
STLB STLB hints to L2: 0
L1D TOTAL     ACCESS:   15757637  HIT:   14601519  MISS:    1156118  HIT %:    92.6631  MISS %:    7.33687   MPKI: 23.1224
L1D LOAD      ACCESS:    8820943  HIT:    8104603  MISS:     716340  HIT %:    91.8791  MISS %:     8.1209   MPKI: 14.3268
L1D RFO       ACCESS:    6441229  HIT:    6146779  MISS:     294450  HIT %:    95.4287  MISS %:    4.57133   MPKI: 5.889
L1D PREFETCH  ACCESS:     495465  HIT:     350137  MISS:     145328  HIT %:    70.6684  MISS %:    29.3316   MPKI: 2.90656
L1D PREFETCH  REQUESTED:    1066830  ISSUED:    1066738  USEFUL:      41700  USELESS:     103646
L1D USEFUL LOAD PREFETCHES:      41700 PREFETCH ISSUED TO LOWER LEVEL:     167719  ACCURACY: 24.863
L1D TIMELY PREFETCHES:      41700 LATE PREFETCHES: 21858 DROPPED PREFETCHES: 0
L1D PREFETCHES SAME FILL-ORIGIN LEVEL: 167719 DIFFERENT FILL-ORIGIN LEVEL: 0
L1D AVERAGE MISS LATENCY: 1.2555e+06 cycles
L1D RQ	ACCESS:   12112901	FORWARD:          0	MERGED:    3146581	TO_CACHE:    8852400
L1D WQ	ACCESS:    6938884	FORWARD:     114126	MERGED:      46662	TO_CACHE:    6892222
L1D PQ	ACCESS:     533472	FORWARD:          0	MERGED:          0	TO_CACHE:     533266

L1D UNIQUE REGIONS ACCESSED: 0
L1D REGIONS CONFLICTS: 0
L1D Cross Page Prefetch Requests: 0
L1D Same Page Prefetch Requests: 637605
L1D ROI Sum of L1D PQ occupancy: 8634743
L1D PREFETCHES PUSHED FROM L2C: 0
L1I TOTAL     ACCESS:    9603814  HIT:    6855252  MISS:    2748562  HIT %:    71.3805  MISS %:    28.6195   MPKI: 54.9712
L1I LOAD      ACCESS:    9603814  HIT:    6855252  MISS:    2748562  HIT %:    71.3805  MISS %:    28.6195   MPKI: 54.9712
L1I PREFETCH  REQUESTED:          0  ISSUED:          0  USEFUL:          0  USELESS:          0
L1I USEFUL LOAD PREFETCHES:          0 PREFETCH ISSUED TO LOWER LEVEL:          0  ACCURACY: -nan
L1I TIMELY PREFETCHES:          0 LATE PREFETCHES: 0 DROPPED PREFETCHES: 0
L1I PREFETCHES SAME FILL-ORIGIN LEVEL: 0 DIFFERENT FILL-ORIGIN LEVEL: 0
L1I AVERAGE MISS LATENCY: 18.7417 cycles
L1I RQ	ACCESS:   13834578	FORWARD:          0	MERGED:    3771352	TO_CACHE:   10063226

BTB TOTAL     ACCESS:    5994310  HIT:    3988077  MISS:    2006233  HIT %:     66.531  MISS %:     33.469   MPKI: 40.1247
BTB BRANCH_DIRECT_JUMP	ACCESS:     527013  HIT:     350195  MISS:     176818
BTB BRANCH_INDIRECT	ACCESS:     206168  HIT:     168860  MISS:      37308
BTB BRANCH_CONDITIONAL	ACCESS:    3044122  HIT:    2482259  MISS:     561863
BTB BRANCH_DIRECT_CALL	ACCESS:     934907  HIT:     527457  MISS:     407450
BTB BRANCH_INDIRECT_CALL	ACCESS:     173595  HIT:      94867  MISS:      78728
BTB BRANCH_RETURN	ACCESS:    1108505  HIT:     364439  MISS:     744066
BTB BRANCH_OTHER ACCESS:          0  HIT:          0  MISS:          0

L2C TOTAL     ACCESS:    5019042  HIT:    4251376  MISS:     767666  HIT %:    84.7049  MISS %:    15.2951   MPKI: 15.3533
L2C LOAD      ACCESS:    3443039  HIT:    2907056  MISS:     535983  HIT %:    84.4329  MISS %:    15.5671   MPKI: 10.7197
L2C DATA LOAD MPKI: 2.29776
L2C INSTRUCTION LOAD MPKI: 8.4219
L2C RFO       ACCESS:     293917  HIT:     207771  MISS:      86146  HIT %:    70.6904  MISS %:    29.3096   MPKI: 1.72292
L2C PREFETCH  ACCESS:     754682  HIT:     617673  MISS:     137009  HIT %:    81.8455  MISS %:    18.1545   MPKI: 2.74018
L2C DATA PREFETCH MPKI: 2.74018
L2C INSTRUCTION PREFETCH MPKI: 0
L2C WRITEBACK ACCESS:     524920  HIT:     518232  MISS:       6688  HIT %:    98.7259  MISS %:     1.2741   MPKI: 0.13376
L2C LOAD TRANSLATION ACCESS:       2484  HIT:        644  MISS:       1840  HIT %:    25.9259  MISS %:    74.0741   MPKI: 0.0368
L2C PREFETCH  REQUESTED:     601469  ISSUED:     601469  USEFUL:      25487  USELESS:     111608
L2C USEFUL LOAD PREFETCHES:      25487 PREFETCH ISSUED TO LOWER LEVEL:     140684  ACCURACY: 18.1165
L2C TIMELY PREFETCHES:      25487 LATE PREFETCHES: 3675 DROPPED PREFETCHES: 0
L2C PREFETCHES SAME FILL-ORIGIN LEVEL: 91901 DIFFERENT FILL-ORIGIN LEVEL: 0
L2C AVERAGE MISS LATENCY: 54.4597 cycles
L2C RQ	ACCESS:    3739446	FORWARD:          0	MERGED:          0	TO_CACHE:    3739441
L2C WQ	ACCESS:     524920	FORWARD:         11	MERGED:          0	TO_CACHE:     524920
L2C PQ	ACCESS:     769188	FORWARD:          0	MERGED:       5650	TO_CACHE:     763532

L2C Instructions Evicting Data 167784
L2C Translations Evicting Data 1274
L2C Data Evicting Data 173367
L2C Instructions Evicting Instructions 252666
L2C Translations Evicting Instructions 560
L2C Data Evicting Instructions 163498
L2C Instructions Evicting Translations 645
L2C Translations Evicting Translations 6
L2C Data Evicting Translations 1174
L2C Dense regions hint from L2: 0
PSCL5 TOTAL     ACCESS:       2310  HIT:       2310  MISS:          0  HIT %:        100  MISS %:          0   MPKI: 0
PSCL5 LOAD TRANSLATION ACCESS:       2310  HIT:       2310  MISS:          0  HIT %:        100  MISS %:          0   MPKI: 0
PSCL5 PREFETCH  REQUESTED:          0  ISSUED:          0  USEFUL:          0  USELESS:          0
PSCL5 USEFUL LOAD PREFETCHES:          0 PREFETCH ISSUED TO LOWER LEVEL:          0  ACCURACY: -nan
PSCL5 TIMELY PREFETCHES:          0 LATE PREFETCHES: 0 DROPPED PREFETCHES: 0
PSCL5 PREFETCHES SAME FILL-ORIGIN LEVEL: 0 DIFFERENT FILL-ORIGIN LEVEL: 0

PSCL4 TOTAL     ACCESS:       2074  HIT:       2051  MISS:         23  HIT %:     98.891  MISS %:    1.10897   MPKI: 0.00046
PSCL4 LOAD TRANSLATION ACCESS:       2074  HIT:       2051  MISS:         23  HIT %:     98.891  MISS %:    1.10897   MPKI: 0.00046
PSCL4 PREFETCH  REQUESTED:          0  ISSUED:          0  USEFUL:          0  USELESS:          0
PSCL4 USEFUL LOAD PREFETCHES:          0 PREFETCH ISSUED TO LOWER LEVEL:          0  ACCURACY: -nan
PSCL4 TIMELY PREFETCHES:          0 LATE PREFETCHES: 0 DROPPED PREFETCHES: 0
PSCL4 PREFETCHES SAME FILL-ORIGIN LEVEL: 0 DIFFERENT FILL-ORIGIN LEVEL: 0

PSCL3 TOTAL     ACCESS:       2130  HIT:       2106  MISS:         24  HIT %:    98.8732  MISS %:    1.12676   MPKI: 0.00048
PSCL3 LOAD TRANSLATION ACCESS:       2130  HIT:       2106  MISS:         24  HIT %:    98.8732  MISS %:    1.12676   MPKI: 0.00048
PSCL3 PREFETCH  REQUESTED:          0  ISSUED:          0  USEFUL:          0  USELESS:          0
PSCL3 USEFUL LOAD PREFETCHES:          0 PREFETCH ISSUED TO LOWER LEVEL:          0  ACCURACY: -nan
PSCL3 TIMELY PREFETCHES:          0 LATE PREFETCHES: 0 DROPPED PREFETCHES: 0
PSCL3 PREFETCHES SAME FILL-ORIGIN LEVEL: 0 DIFFERENT FILL-ORIGIN LEVEL: 0

PSCL2 TOTAL     ACCESS:       2310  HIT:       2175  MISS:        135  HIT %:    94.1558  MISS %:    5.84416   MPKI: 0.0027
PSCL2 LOAD TRANSLATION ACCESS:       2310  HIT:       2175  MISS:        135  HIT %:    94.1558  MISS %:    5.84416   MPKI: 0.0027
PSCL2 PREFETCH  REQUESTED:          0  ISSUED:          0  USEFUL:          0  USELESS:          0
PSCL2 USEFUL LOAD PREFETCHES:          0 PREFETCH ISSUED TO LOWER LEVEL:          0  ACCURACY: -nan
PSCL2 TIMELY PREFETCHES:          0 LATE PREFETCHES: 0 DROPPED PREFETCHES: 0
PSCL2 PREFETCHES SAME FILL-ORIGIN LEVEL: 0 DIFFERENT FILL-ORIGIN LEVEL: 0

LLC TOTAL     ACCESS:     898969  HIT:     867911  MISS:      31058  HIT %:    96.5452  MISS %:    3.45485   MPKI: 0.62116
LLC LOAD      ACCESS:     532494  HIT:     528251  MISS:       4243  HIT %:    99.2032  MISS %:   0.796816   MPKI: 0.08486
LLC RFO       ACCESS:      85960  HIT:      70451  MISS:      15509  HIT %:    81.9579  MISS %:    18.0421   MPKI: 0.31018
LLC PREFETCH  ACCESS:     140684  HIT:     129614  MISS:      11070  HIT %:    92.1313  MISS %:     7.8687   MPKI: 0.2214
LLC WRITEBACK ACCESS:     137991  HIT:     137928  MISS:         63  HIT %:    99.9543  MISS %:  0.0456552   MPKI: 0.00126
LLC LOAD TRANSLATION ACCESS:       1840  HIT:       1667  MISS:        173  HIT %:    90.5978  MISS %:    9.40217   MPKI: 0.00346
LLC PREFETCH  REQUESTED:          0  ISSUED:          0  USEFUL:       1060  USELESS:       6329
LLC USEFUL LOAD PREFETCHES:       1060 PREFETCH ISSUED TO LOWER LEVEL:      11070  ACCURACY: 9.57543
LLC TIMELY PREFETCHES:       1060 LATE PREFETCHES: 0 DROPPED PREFETCHES: 0
LLC PREFETCHES SAME FILL-ORIGIN LEVEL: 0 DIFFERENT FILL-ORIGIN LEVEL: 0
LLC AVERAGE MISS LATENCY: 612.733 cycles
LLC RQ	ACCESS:     620294	FORWARD:          0	MERGED:          0	TO_CACHE:     620294
LLC WQ	ACCESS:     137991	FORWARD:          0	MERGED:          0	TO_CACHE:     137991
LLC PQ	ACCESS:     140684	FORWARD:          0	MERGED:          0	TO_CACHE:     140684

LLC Dense regions hint to LLC: 0

RAW hits: 527686
Loads Generated: 12640584
Loads sent to L1D: 12112901
Stores Generated: 6938885
Stores sent to L1D: 6938884
Major fault: 0 Minor fault: 2251
Allocated PAGES: 2251

stream: 
stream:times selected: 1020148
stream:pref_filled: 102089
stream:pref_useful: 18414
stream:pref_late: 16225
stream:misses: 5522
stream:misses_by_poll: 0

CS: 
CS:times selected: 129876
CS:pref_filled: 45566
CS:pref_useful: 27227
CS:pref_late: 4282
CS:misses: 10955
CS:misses_by_poll: 9

CPLX: 
CPLX:times selected: 888234
CPLX:pref_filled: 22681
CPLX:pref_useful: 4078
CPLX:pref_late: 1424
CPLX:misses: 63563
CPLX:misses_by_poll: 0

NL_L1: 
NL:times selected: 5826
NL:pref_filled: 579
NL:pref_useful: 75
NL:pref_late: 14
NL:misses: 117
NL:misses_by_poll: 0

total selections: 2044084
total_filled: 145328
total_useful: 41700
total_late: 23130
total_polluted: 9
total_misses_after_warmup: 747799
conflicts: 3255962
Degree Incremented Times: 0
Degree Decremented Times: 116440

L1 IP Table Write Accesses: 5298783
L1 IP Table Read Accesses: 2042821
L1 RST Write Accesses: 857692
L1 RST Read Accesses: 1715384
L1 CSPT Write Accesses: 857692
L1 CSPT Read Accesses: 1603733
L1 RR Filter Tag Write Accesses: 533564
L1 RR Filter Tag Read Accesses: 38018290
L1 IP Table Tag Write Accesses: 8852402
L1 IP Table Tag Read Accesses: 8852402
L1 RST Tag Write Accesses: 0
L1 RST Tag Read Accesses: 7550744
L1 RR Filter Write Accesses: 0
L1 RR Filter Read Accesses: 1401944
test: 148640
L2 IP Table Read Accesses: 1105695
L2 IP Table Write Accesses: 1538956
L2 IP Table Tag Read Accesses: 856930
L2 IP Table Tag Write Accesses: 856930

DRAM Statistics
 CHANNEL 0
 RQ ROW_BUFFER_HIT:      16748  ROW_BUFFER_MISS:      14239
 DBUS_CONGESTED:      28413
 WQ ROW_BUFFER_HIT:        594  ROW_BUFFER_MISS:       5940  FULL:          0

 AVG_CONGESTED_CYCLE: 75
 All warmup complete: 2
Channel 0 Bank busy for read cycles: 0
Channel 0 Bank busy for write cycles: 0
Channel 0
Rank 0
0banks busy for read cycles: 122787875
0banks busy for write cycles: 1854
1banks busy for read cycles: 815767
1banks busy for write cycles: 248568
2banks busy for read cycles: 475455
2banks busy for write cycles: 113126
3banks busy for read cycles: 222347
3banks busy for write cycles: 63063
4banks busy for read cycles: 152832
4banks busy for write cycles: 50345
5banks busy for read cycles: 100576
5banks busy for write cycles: 43385
6banks busy for read cycles: 74964
6banks busy for write cycles: 43036
7banks busy for read cycles: 103983
7banks busy for write cycles: 33476
8banks busy for read cycles: 865762
8banks busy for write cycles: 125709

CPU 0 Branch Prediction Accuracy: 91.5131% MPKI: 15.508 Average ROB Occupancy at Mispredict: 17.2625
Branch types
NOT_BRANCH: 40863273 81.7265%
BRANCH_DIRECT_JUMP: 527013 1.05403%
BRANCH_INDIRECT: 206168 0.412336%
BRANCH_CONDITIONAL: 6186185 12.3724%
BRANCH_DIRECT_CALL: 934907 1.86981%
BRANCH_INDIRECT_CALL: 173595 0.34719%
BRANCH_RETURN: 1108505 2.21701%
BRANCH_OTHER: 0 0%

@sumon_overall_L1D     41700     21858    103646    145328   1066738   1066830
@Sumon_Early_by_class_L1D     14832     22557      3311        11
@Sumon_Late_by_class_L1D     15490      4034      1195        11

@Sumon_Early_by_cycle_L1D     27807      2538      2133       847       333      1388       928      1469      1140      2290       739        88
@Sumon_Late_by_cycle_L1D     20473       855       287       127        43        73         0         0         0         0         0         0
@Sumon_Early_stream_L1D      5822      1583      1257       683       176       969       560       928       773      1398       597        86
@Sumon_Early_CS_L1D     20653       707       700        85        32        62         8       279         0        27         4         0
@Sumon_Early_CPLX_L1D      1196       193       131        64       123       347       251       228       211       428       137         2
@Sumon_Late_stream_L1D     15020       375        93         2         0         0         0         0         0         0         0         0
@Sumon_Late_CS_L1D      3135       466       192       125        43        73         0         0         0         0         0         0
@Sumon_Late_CPLX_L1D      1186         7         2         0         0         0         0         0         0         0         0         0
@sumon_overall_L2C     25487      3675    111608    137009    601469    601469
@Sumon_Early_by_class_L2C      1917       127       485         0
@Sumon_Late_by_class_L2C         0         0         0         0

@Sumon_Early_by_cycle_L2C      4584      2759      1962      1488       714      2328      2617      1379       915       395      1235      5111
@Sumon_Late_by_cycle_L2C      3353       321         1         0         0         0         0         0         0         0         0         0
@Sumon_Early_stream_L2C         0         0         0         0         0         0         0         0         0        14       142      1761
@Sumon_Early_CS_L2C         0         0         0         0         0         0         0         0         0         0         0       127
@Sumon_Early_CPLX_L2C         0         0         0         0         0         0         0         0         0         2        29       454
@Sumon_Late_stream_L2C         0         0         0         0         0         0         0         0         0         0         0         0
@Sumon_Late_CS_L2C         0         0         0         0         0         0         0         0         0         0         0         0
@Sumon_Late_CPLX_L2C         0         0         0         0         0         0         0         0         0         0         0         0
DRAM PAGES: 1048576
Allocated PAGES: 2251
