
*** ChampSim Multicore Out-of-Order Simulator ***

Warmup Instructions: 10000000
Simulation Instructions: 50000000
Number of CPUs: 1
LLC sets: 2048
LLC ways: 16
Off-chip DRAM Size: 4096 MB Channels: 1 Width: 64-bit Data Rate: 400 MT/s
CPU 0 runs traces/clientserver/server_018.champsimtrace.xz
.xz
CPU 0 Bimodal branch predictor
BTB has LRU replacement policy
ITLB has LRU replacement policy
DTLB has LRU replacement policy
STLB has LRU replacement policy
L1I has LRU replacement policy
IP Table Entries: 256
L1D has LRU replacement policy
IP_Table L2 entries: 256
L2C has LRU replacement policy
LLC has LRU replacement policy
Heartbeat CPU 0 instructions: 10000003 cycles: 3151194 heartbeat IPC: 3.1734 cumulative IPC: 3.1734 (Simulation time: 0 hr 19 min 44 sec) 

Warmup complete CPU 0 instructions: 10000003 cycles: 3151194 (Simulation time: 0 hr 19 min 44 sec) 

Heartbeat CPU 0 instructions: 20000000 cycles: 50122813 heartbeat IPC: 0.212894 cumulative IPC: 0.212894 (Simulation time: 1 hr 9 min 58 sec) 
Heartbeat CPU 0 instructions: 30000000 cycles: 95667361 heartbeat IPC: 0.219565 cumulative IPC: 0.216178 (Simulation time: 1 hr 47 min 41 sec) 
Heartbeat CPU 0 instructions: 40000000 cycles: 141214424 heartbeat IPC: 0.219553 cumulative IPC: 0.217292 (Simulation time: 1 hr 55 min 50 sec) 
Heartbeat CPU 0 instructions: 50000000 cycles: 186352279 heartbeat IPC: 0.221544 cumulative IPC: 0.218339 (Simulation time: 2 hr 3 min 46 sec) 
Heartbeat CPU 0 instructions: 60000000 cycles: 231662196 heartbeat IPC: 0.220702 cumulative IPC: 0.218808 (Simulation time: 2 hr 11 min 36 sec) 
Finished CPU 0 instructions: 50000003 cycles: 228511016 cumulative IPC: 0.218808 (Simulation time: 2 hr 11 min 36 sec) 

ChampSim completed all CPUs

Region of Interest Statistics

CPU 0 cumulative IPC: 0.218808 instructions: 50000003 cycles: 228511016
ITLB TOTAL     ACCESS:    9009609  HIT:    8674299  MISS:     335310  HIT %:    96.2783  MISS %:    3.72169   MPKI: 6.7062
ITLB LOAD TRANSLATION ACCESS:    9009609  HIT:    8674299  MISS:     335310  HIT %:    96.2783  MISS %:    3.72169   MPKI: 6.7062
ITLB PREFETCH  REQUESTED:          0  ISSUED:          0  USEFUL:          0  USELESS:          0
ITLB USEFUL LOAD PREFETCHES:          0 PREFETCH ISSUED TO LOWER LEVEL:          0  ACCURACY: -nan
ITLB TIMELY PREFETCHES:          0 LATE PREFETCHES: 0 DROPPED PREFETCHES: 0
ITLB PREFETCHES SAME FILL-ORIGIN LEVEL: 0 DIFFERENT FILL-ORIGIN LEVEL: 0
ITLB AVERAGE MISS LATENCY: 9.74746 cycles
ITLB RQ	ACCESS:   10504506	FORWARD:          0	MERGED:    1387714	TO_CACHE:    9116792

DTLB TOTAL     ACCESS:   11587399  HIT:   11150708  MISS:     436691  HIT %:    96.2313  MISS %:    3.76867   MPKI: 8.73382
DTLB LOAD TRANSLATION ACCESS:   11587399  HIT:   11150708  MISS:     436691  HIT %:    96.2313  MISS %:    3.76867   MPKI: 8.73382
DTLB PREFETCH  REQUESTED:          0  ISSUED:          0  USEFUL:          0  USELESS:          0
DTLB USEFUL LOAD PREFETCHES:          0 PREFETCH ISSUED TO LOWER LEVEL:          0  ACCURACY: -nan
DTLB TIMELY PREFETCHES:          0 LATE PREFETCHES: 0 DROPPED PREFETCHES: 0
DTLB PREFETCHES SAME FILL-ORIGIN LEVEL: 0 DIFFERENT FILL-ORIGIN LEVEL: 0
DTLB AVERAGE MISS LATENCY: 24.7282 cycles
DTLB RQ	ACCESS:   15949364	FORWARD:          0	MERGED:    4309902	TO_CACHE:   11639462

STLB TOTAL     ACCESS:    1474932  HIT:    1432535  MISS:      42397  HIT %:    97.1255  MISS %:    2.87451   MPKI: 0.84794
STLB LOAD TRANSLATION ACCESS:     772001  HIT:     729604  MISS:      42397  HIT %:    94.5082  MISS %:    5.49183   MPKI: 0.84794
STLB TRANSLATION FROM L1D PREFETCHER ACCESS:     702931  HIT:     702931  MISS:          0  HIT %:        100  MISS %:          0   MPKI: 0
STLB PREFETCH  REQUESTED:          0  ISSUED:          0  USEFUL:          0  USELESS:          0
STLB USEFUL LOAD PREFETCHES:          0 PREFETCH ISSUED TO LOWER LEVEL:          0  ACCURACY: -nan
STLB TIMELY PREFETCHES:          0 LATE PREFETCHES: 0 DROPPED PREFETCHES: 0
STLB PREFETCHES SAME FILL-ORIGIN LEVEL: 0 DIFFERENT FILL-ORIGIN LEVEL: 0
STLB AVERAGE MISS LATENCY: 167.726 cycles
STLB RQ	ACCESS:    1694977	FORWARD:          0	MERGED:     220044	TO_CACHE:    1474933

STLB Hit, L1D data hit: 0
STLB Hit, L2C data hit: 0
STLB Hit, LLC data hit: 0
STLB Hit, LLC data miss: 0
STLB STLB hints to L2: 0
L1D TOTAL     ACCESS:   14272146  HIT:   12297314  MISS:    1974832  HIT %:     86.163  MISS %:     13.837   MPKI: 39.4966
L1D LOAD      ACCESS:    7855409  HIT:    7089282  MISS:     766127  HIT %:    90.2471  MISS %:    9.75286   MPKI: 15.3225
L1D RFO       ACCESS:    5706299  HIT:    4843448  MISS:     862851  HIT %:     84.879  MISS %:     15.121   MPKI: 17.257
L1D PREFETCH  ACCESS:     710438  HIT:     364584  MISS:     345854  HIT %:    51.3182  MISS %:    48.6818   MPKI: 6.91708
L1D PREFETCH  REQUESTED:    1863168  ISSUED:    1845997  USEFUL:     125868  USELESS:     220115
L1D USEFUL LOAD PREFETCHES:     125868 PREFETCH ISSUED TO LOWER LEVEL:     518106  ACCURACY: 24.2939
L1D TIMELY PREFETCHES:     125868 LATE PREFETCHES: 172211 DROPPED PREFETCHES: 0
L1D PREFETCHES SAME FILL-ORIGIN LEVEL: 518106 DIFFERENT FILL-ORIGIN LEVEL: 0
L1D AVERAGE MISS LATENCY: 1.08512e+07 cycles
L1D RQ	ACCESS:   11172206	FORWARD:          0	MERGED:    3164248	TO_CACHE:    7896374
L1D WQ	ACCESS:    8124999	FORWARD:     111624	MERGED:      72009	TO_CACHE:    8052990
L1D PQ	ACCESS:     923022	FORWARD:          0	MERGED:          7	TO_CACHE:     922975

L1D UNIQUE REGIONS ACCESSED: 0
L1D REGIONS CONFLICTS: 0
L1D Cross Page Prefetch Requests: 0
L1D Same Page Prefetch Requests: 1182940
L1D ROI Sum of L1D PQ occupancy: 68750672
L1D PREFETCHES PUSHED FROM L2C: 0
L1I TOTAL     ACCESS:    9858144  HIT:    7697990  MISS:    2160154  HIT %:    78.0876  MISS %:    21.9124   MPKI: 43.2031
L1I LOAD      ACCESS:    9858144  HIT:    7697990  MISS:    2160154  HIT %:    78.0876  MISS %:    21.9124   MPKI: 43.2031
L1I PREFETCH  REQUESTED:          0  ISSUED:          0  USEFUL:          0  USELESS:          0
L1I USEFUL LOAD PREFETCHES:          0 PREFETCH ISSUED TO LOWER LEVEL:          0  ACCURACY: -nan
L1I TIMELY PREFETCHES:          0 LATE PREFETCHES: 0 DROPPED PREFETCHES: 0
L1I PREFETCHES SAME FILL-ORIGIN LEVEL: 0 DIFFERENT FILL-ORIGIN LEVEL: 0
L1I AVERAGE MISS LATENCY: 17.9249 cycles
L1I RQ	ACCESS:   14527002	FORWARD:          0	MERGED:    4022496	TO_CACHE:   10504506

BTB TOTAL     ACCESS:    5422120  HIT:    5181249  MISS:     240871  HIT %:    95.5576  MISS %:    4.44238   MPKI: 4.81742
BTB BRANCH_DIRECT_JUMP	ACCESS:     465584  HIT:     463773  MISS:       1811
BTB BRANCH_INDIRECT	ACCESS:      44299  HIT:      44128  MISS:        171
BTB BRANCH_CONDITIONAL	ACCESS:    3164088  HIT:    3158244  MISS:       5844
BTB BRANCH_DIRECT_CALL	ACCESS:     670381  HIT:     666525  MISS:       3856
BTB BRANCH_INDIRECT_CALL	ACCESS:     203693  HIT:     177595  MISS:      26098
BTB BRANCH_RETURN	ACCESS:     874075  HIT:     670984  MISS:     203091
BTB BRANCH_OTHER ACCESS:          0  HIT:          0  MISS:          0

L2C TOTAL     ACCESS:    5654394  HIT:    3754476  MISS:    1899918  HIT %:    66.3993  MISS %:    33.6007   MPKI: 37.9984
L2C LOAD      ACCESS:    2754049  HIT:    2262099  MISS:     491950  HIT %:    82.1372  MISS %:    17.8628   MPKI: 9.839
L2C DATA LOAD MPKI: 7.33048
L2C INSTRUCTION LOAD MPKI: 2.50852
L2C RFO       ACCESS:     862793  HIT:      26244  MISS:     836549  HIT %:    3.04175  MISS %:    96.9583   MPKI: 16.731
L2C PREFETCH  ACCESS:     877945  HIT:     332793  MISS:     545152  HIT %:    37.9059  MISS %:    62.0941   MPKI: 10.903
L2C DATA PREFETCH MPKI: 10.903
L2C INSTRUCTION PREFETCH MPKI: 0
L2C WRITEBACK ACCESS:    1109916  HIT:    1107199  MISS:       2717  HIT %:    99.7552  MISS %:   0.244793   MPKI: 0.05434
L2C LOAD TRANSLATION ACCESS:      49691  HIT:      26141  MISS:      23550  HIT %:    52.6071  MISS %:    47.3929   MPKI: 0.471
L2C PREFETCH  REQUESTED:     556908  ISSUED:     556906  USEFUL:      51111  USELESS:     494745
L2C USEFUL LOAD PREFETCHES:      51111 PREFETCH ISSUED TO LOWER LEVEL:     551776  ACCURACY: 9.263
L2C TIMELY PREFETCHES:      51111 LATE PREFETCHES: 6624 DROPPED PREFETCHES: 0
L2C PREFETCHES SAME FILL-ORIGIN LEVEL: 282286 DIFFERENT FILL-ORIGIN LEVEL: 0
L2C AVERAGE MISS LATENCY: 873.958 cycles
L2C RQ	ACCESS:    3666571	FORWARD:          0	MERGED:          0	TO_CACHE:    3666533
L2C WQ	ACCESS:    1109916	FORWARD:         39	MERGED:          0	TO_CACHE:    1109916
L2C PQ	ACCESS:    1075012	FORWARD:          0	MERGED:      35184	TO_CACHE:    1039827

L2C Instructions Evicting Data 116145
L2C Translations Evicting Data 21859
L2C Data Evicting Data 1611393
L2C Instructions Evicting Instructions 7607
L2C Translations Evicting Instructions 1455
L2C Data Evicting Instructions 115261
L2C Instructions Evicting Translations 1674
L2C Translations Evicting Translations 236
L2C Data Evicting Translations 21571
L2C Dense regions hint from L2: 0
PSCL5 TOTAL     ACCESS:      42397  HIT:      42397  MISS:          0  HIT %:        100  MISS %:          0   MPKI: 0
PSCL5 LOAD TRANSLATION ACCESS:      42397  HIT:      42397  MISS:          0  HIT %:        100  MISS %:          0   MPKI: 0
PSCL5 PREFETCH  REQUESTED:          0  ISSUED:          0  USEFUL:          0  USELESS:          0
PSCL5 USEFUL LOAD PREFETCHES:          0 PREFETCH ISSUED TO LOWER LEVEL:          0  ACCURACY: -nan
PSCL5 TIMELY PREFETCHES:          0 LATE PREFETCHES: 0 DROPPED PREFETCHES: 0
PSCL5 PREFETCHES SAME FILL-ORIGIN LEVEL: 0 DIFFERENT FILL-ORIGIN LEVEL: 0

PSCL4 TOTAL     ACCESS:      40315  HIT:      40217  MISS:         98  HIT %:    99.7569  MISS %:   0.243086   MPKI: 0.00196
PSCL4 LOAD TRANSLATION ACCESS:      40315  HIT:      40217  MISS:         98  HIT %:    99.7569  MISS %:   0.243086   MPKI: 0.00196
PSCL4 PREFETCH  REQUESTED:          0  ISSUED:          0  USEFUL:          0  USELESS:          0
PSCL4 USEFUL LOAD PREFETCHES:          0 PREFETCH ISSUED TO LOWER LEVEL:          0  ACCURACY: -nan
PSCL4 TIMELY PREFETCHES:          0 LATE PREFETCHES: 0 DROPPED PREFETCHES: 0
PSCL4 PREFETCHES SAME FILL-ORIGIN LEVEL: 0 DIFFERENT FILL-ORIGIN LEVEL: 0

PSCL3 TOTAL     ACCESS:      42374  HIT:      42272  MISS:        102  HIT %:    99.7593  MISS %:   0.240714   MPKI: 0.00204
PSCL3 LOAD TRANSLATION ACCESS:      42374  HIT:      42272  MISS:        102  HIT %:    99.7593  MISS %:   0.240714   MPKI: 0.00204
PSCL3 PREFETCH  REQUESTED:          0  ISSUED:          0  USEFUL:          0  USELESS:          0
PSCL3 USEFUL LOAD PREFETCHES:          0 PREFETCH ISSUED TO LOWER LEVEL:          0  ACCURACY: -nan
PSCL3 TIMELY PREFETCHES:          0 LATE PREFETCHES: 0 DROPPED PREFETCHES: 0
PSCL3 PREFETCHES SAME FILL-ORIGIN LEVEL: 0 DIFFERENT FILL-ORIGIN LEVEL: 0

PSCL2 TOTAL     ACCESS:      42397  HIT:      35270  MISS:       7127  HIT %:    83.1898  MISS %:    16.8102   MPKI: 0.14254
PSCL2 LOAD TRANSLATION ACCESS:      42397  HIT:      35270  MISS:       7127  HIT %:    83.1898  MISS %:    16.8102   MPKI: 0.14254
PSCL2 PREFETCH  REQUESTED:          0  ISSUED:          0  USEFUL:          0  USELESS:          0
PSCL2 USEFUL LOAD PREFETCHES:          0 PREFETCH ISSUED TO LOWER LEVEL:          0  ACCURACY: -nan
PSCL2 TIMELY PREFETCHES:          0 LATE PREFETCHES: 0 DROPPED PREFETCHES: 0
PSCL2 PREFETCHES SAME FILL-ORIGIN LEVEL: 0 DIFFERENT FILL-ORIGIN LEVEL: 0

LLC TOTAL     ACCESS:    2959290  HIT:    1598630  MISS:    1360660  HIT %:    54.0207  MISS %:    45.9793   MPKI: 27.2132
LLC LOAD      ACCESS:     485587  HIT:     277338  MISS:     208249  HIT %:     57.114  MISS %:     42.886   MPKI: 4.16498
LLC RFO       ACCESS:     836285  HIT:     119989  MISS:     716296  HIT %:    14.3479  MISS %:    85.6521   MPKI: 14.3259
LLC PREFETCH  ACCESS:     551775  HIT:     129196  MISS:     422579  HIT %:    23.4146  MISS %:    76.5854   MPKI: 8.45158
LLC WRITEBACK ACCESS:    1062093  HIT:    1060444  MISS:       1649  HIT %:    99.8447  MISS %:   0.155259   MPKI: 0.03298
LLC LOAD TRANSLATION ACCESS:      23550  HIT:      11663  MISS:      11887  HIT %:    49.5244  MISS %:    50.4756   MPKI: 0.23774
LLC PREFETCH  REQUESTED:          0  ISSUED:          0  USEFUL:      14820  USELESS:     409442
LLC USEFUL LOAD PREFETCHES:      14820 PREFETCH ISSUED TO LOWER LEVEL:     422579  ACCURACY: 3.50704
LLC TIMELY PREFETCHES:      14820 LATE PREFETCHES: 0 DROPPED PREFETCHES: 0
LLC PREFETCHES SAME FILL-ORIGIN LEVEL: 0 DIFFERENT FILL-ORIGIN LEVEL: 0
LLC AVERAGE MISS LATENCY: 1179.16 cycles
LLC RQ	ACCESS:    1345425	FORWARD:          0	MERGED:          0	TO_CACHE:    1345422
LLC WQ	ACCESS:    1062093	FORWARD:          4	MERGED:          0	TO_CACHE:    1062093
LLC PQ	ACCESS:     551776	FORWARD:          0	MERGED:          0	TO_CACHE:     551775

LLC Dense regions hint to LLC: 0

RAW hits: 868629
Loads Generated: 12040837
Loads sent to L1D: 11172206
Stores Generated: 8124995
Stores sent to L1D: 8124999
Major fault: 0 Minor fault: 14638
Allocated PAGES: 14638

stream: 
stream:times selected: 2325736
stream:pref_filled: 359758
stream:pref_useful: 106956
stream:pref_late: 40157
stream:misses: 41649
stream:misses_by_poll: 0

CS: 
CS:times selected: 1841021
CS:pref_filled: 90431
CS:pref_useful: 83115
CS:pref_late: 126491
CS:misses: 172176
CS:misses_by_poll: 213

CPLX: 
CPLX:times selected: 477648
CPLX:pref_filled: 33772
CPLX:pref_useful: 1436
CPLX:pref_late: 230
CPLX:misses: 127045
CPLX:misses_by_poll: 30

NL_L1: 
NL:times selected: 2807
NL:pref_filled: 1131
NL:pref_useful: 25
NL:pref_late: 25
NL:misses: 1441
NL:misses_by_poll: 0

total selections: 4647212
total_filled: 345854
total_useful: 125868
total_late: 172964
total_polluted: 243
total_misses_after_warmup: 807093
conflicts: 2430271
Degree Incremented Times: 127067
Degree Decremented Times: 90954

L1 IP Table Write Accesses: 5263472
L1 IP Table Read Accesses: 2833201
L1 RST Write Accesses: 1928889
L1 RST Read Accesses: 3857778
L1 CSPT Write Accesses: 1928889
L1 CSPT Read Accesses: 2349004
L1 RR Filter Tag Write Accesses: 940193
L1 RR Filter Tag Read Accesses: 254049310
L1 IP Table Tag Write Accesses: 7896375
L1 IP Table Tag Read Accesses: 7896375
L1 RST Tag Write Accesses: 0
L1 RST Tag Read Accesses: 17567126
L1 RR Filter Write Accesses: 0
L1 RR Filter Read Accesses: 8468290
test: 284895
L2 IP Table Read Accesses: 1606374
L2 IP Table Write Accesses: 1577565
L2 IP Table Tag Read Accesses: 960677
L2 IP Table Tag Write Accesses: 960677

DRAM Statistics
 CHANNEL 0
 RQ ROW_BUFFER_HIT:     361753  ROW_BUFFER_MISS:     996993
 DBUS_CONGESTED:    2029208
 WQ ROW_BUFFER_HIT:     234678  ROW_BUFFER_MISS:     629429  FULL:          0

 AVG_CONGESTED_CYCLE: 76
 All warmup complete: 2
Channel 0 Bank busy for read cycles: 0
Channel 0 Bank busy for write cycles: 0
Channel 0
Rank 0
0banks busy for read cycles: 21911739
0banks busy for write cycles: 17309
1banks busy for read cycles: 20311817
1banks busy for write cycles: 2725458
2banks busy for read cycles: 15661957
2banks busy for write cycles: 1658123
3banks busy for read cycles: 10087317
3banks busy for write cycles: 1416711
4banks busy for read cycles: 8485020
4banks busy for write cycles: 1440715
5banks busy for read cycles: 7126918
5banks busy for write cycles: 1566762
6banks busy for read cycles: 6068697
6banks busy for write cycles: 2289303
7banks busy for read cycles: 6644531
7banks busy for write cycles: 6365594
8banks busy for read cycles: 50816039
8banks busy for write cycles: 63917007

CPU 0 Branch Prediction Accuracy: 95.5125% MPKI: 7.55984 Average ROB Occupancy at Mispredict: 66.0913
Branch types
NOT_BRANCH: 41576625 83.1532%
BRANCH_DIRECT_JUMP: 465584 0.931168%
BRANCH_INDIRECT: 44299 0.088598%
BRANCH_CONDITIONAL: 6165096 12.3302%
BRANCH_DIRECT_CALL: 670381 1.34076%
BRANCH_INDIRECT_CALL: 203693 0.407386%
BRANCH_RETURN: 874075 1.74815%
BRANCH_OTHER: 0 0%

@sumon_overall_L1D    125868    172211    220115    345854   1845997   1863168
@Sumon_Early_by_class_L1D     42239     81957      1196        22
@Sumon_Late_by_class_L1D     39466    126485       196        22

@Sumon_Early_by_cycle_L1D     33516     30691     29017      8439      2401      9136       885      3550      3663      3075      1213       282
@Sumon_Late_by_cycle_L1D    125570     13378      9876      2893      5432     14911       151         0         0         0         0         0
@Sumon_Early_stream_L1D     12607      8698      8202      4660      1383      2798       570       307       185      1446      1115       268
@Sumon_Early_CS_L1D     20544     21829     20706      3699       960      6074       106      3064      3439      1532         2         2
@Sumon_Early_CPLX_L1D       160        86        54        51        45       229       196       167        28        86        82        12
@Sumon_Late_stream_L1D     27126      4948      1679       478      1220      3918        97         0         0         0         0         0
@Sumon_Late_CS_L1D     92619      8171      8114      2391      4191     10947        52         0         0         0         0         0
@Sumon_Late_CPLX_L1D        71        80        33         7         2         3         0         0         0         0         0         0
@sumon_overall_L2C     51111      6624    494745    545152    556906    556908
@Sumon_Early_by_class_L2C      5225       963       621         0
@Sumon_Late_by_class_L2C         0       619         0         0

@Sumon_Early_by_cycle_L2C      3187      5432      5013      1644      1985     10335      2928       658      2769      2459      1759     12942
@Sumon_Late_by_cycle_L2C      4987       896       421       160        15       144         1         0         0         0         0         0
@Sumon_Early_stream_L2C         0         0         0         0         0         1        31        87       140       163       232      4571
@Sumon_Early_CS_L2C       374        50        25        10         0         2         3         2         0       109         8       380
@Sumon_Early_CPLX_L2C         0         0         0         0         0         0         6        73        40         8        33       461
@Sumon_Late_stream_L2C         0         0         0         0         0         0         0         0         0         0         0         0
@Sumon_Late_CS_L2C        33        88       204       153        11       130         0         0         0         0         0         0
@Sumon_Late_CPLX_L2C         0         0         0         0         0         0         0         0         0         0         0         0
DRAM PAGES: 1048576
Allocated PAGES: 14638
