
*** ChampSim Multicore Out-of-Order Simulator ***

Warmup Instructions: 10000000
Simulation Instructions: 50000000
Number of CPUs: 1
LLC sets: 2048
LLC ways: 16
Off-chip DRAM Size: 4096 MB Channels: 1 Width: 64-bit Data Rate: 400 MT/s
CPU 0 runs traces/clientserver/server_035.champsimtrace.xz
.xz
CPU 0 Bimodal branch predictor
BTB has LRU replacement policy
ITLB has LRU replacement policy
DTLB has LRU replacement policy
STLB has LRU replacement policy
L1I has LRU replacement policy
IP Table Entries: 256
L1D has LRU replacement policy
IP_Table L2 entries: 256
L2C has LRU replacement policy
LLC has LRU replacement policy
Heartbeat CPU 0 instructions: 10000001 cycles: 2770422 heartbeat IPC: 3.60956 cumulative IPC: 3.60956 (Simulation time: 0 hr 17 min 45 sec) 

Warmup complete CPU 0 instructions: 10000001 cycles: 2770422 (Simulation time: 0 hr 17 min 45 sec) 

Heartbeat CPU 0 instructions: 20000000 cycles: 26447356 heartbeat IPC: 0.422352 cumulative IPC: 0.422352 (Simulation time: 0 hr 36 min 25 sec) 
Heartbeat CPU 0 instructions: 30000000 cycles: 48082061 heartbeat IPC: 0.46222 cumulative IPC: 0.441388 (Simulation time: 0 hr 53 min 43 sec) 
Heartbeat CPU 0 instructions: 40000000 cycles: 71659754 heartbeat IPC: 0.42413 cumulative IPC: 0.435481 (Simulation time: 1 hr 11 min 46 sec) 
Heartbeat CPU 0 instructions: 50000000 cycles: 93119730 heartbeat IPC: 0.465984 cumulative IPC: 0.442726 (Simulation time: 1 hr 29 min 8 sec) 
Heartbeat CPU 0 instructions: 60000001 cycles: 116720004 heartbeat IPC: 0.423724 cumulative IPC: 0.438791 (Simulation time: 1 hr 45 min 27 sec) 
Finished CPU 0 instructions: 50000000 cycles: 113949582 cumulative IPC: 0.438791 (Simulation time: 1 hr 45 min 27 sec) 

ChampSim completed all CPUs

Region of Interest Statistics

CPU 0 cumulative IPC: 0.438791 instructions: 50000000 cycles: 113949582
ITLB TOTAL     ACCESS:    8923515  HIT:    8419851  MISS:     503664  HIT %:    94.3558  MISS %:    5.64423   MPKI: 10.0733
ITLB LOAD TRANSLATION ACCESS:    8923515  HIT:    8419851  MISS:     503664  HIT %:    94.3558  MISS %:    5.64423   MPKI: 10.0733
ITLB PREFETCH  REQUESTED:          0  ISSUED:          0  USEFUL:          0  USELESS:          0
ITLB USEFUL LOAD PREFETCHES:          0 PREFETCH ISSUED TO LOWER LEVEL:          0  ACCURACY: -nan
ITLB TIMELY PREFETCHES:          0 LATE PREFETCHES: 0 DROPPED PREFETCHES: 0
ITLB PREFETCHES SAME FILL-ORIGIN LEVEL: 0 DIFFERENT FILL-ORIGIN LEVEL: 0
ITLB AVERAGE MISS LATENCY: 9.15677 cycles
ITLB RQ	ACCESS:   10588009	FORWARD:          0	MERGED:    1540898	TO_CACHE:    9047111

DTLB TOTAL     ACCESS:   10591128  HIT:   10141182  MISS:     449946  HIT %:    95.7517  MISS %:    4.24833   MPKI: 8.99892
DTLB LOAD TRANSLATION ACCESS:   10591128  HIT:   10141182  MISS:     449946  HIT %:    95.7517  MISS %:    4.24833   MPKI: 8.99892
DTLB PREFETCH  REQUESTED:          0  ISSUED:          0  USEFUL:          0  USELESS:          0
DTLB USEFUL LOAD PREFETCHES:          0 PREFETCH ISSUED TO LOWER LEVEL:          0  ACCURACY: -nan
DTLB TIMELY PREFETCHES:          0 LATE PREFETCHES: 0 DROPPED PREFETCHES: 0
DTLB PREFETCHES SAME FILL-ORIGIN LEVEL: 0 DIFFERENT FILL-ORIGIN LEVEL: 0
DTLB AVERAGE MISS LATENCY: 11.6237 cycles
DTLB RQ	ACCESS:   14193379	FORWARD:          0	MERGED:    3590776	TO_CACHE:   10602603

STLB TOTAL     ACCESS:    1204557  HIT:    1195612  MISS:       8945  HIT %:    99.2574  MISS %:   0.742597   MPKI: 0.1789
STLB LOAD TRANSLATION ACCESS:     953610  HIT:     944665  MISS:       8945  HIT %:     99.062  MISS %:   0.938014   MPKI: 0.1789
STLB TRANSLATION FROM L1D PREFETCHER ACCESS:     250947  HIT:     250947  MISS:          0  HIT %:        100  MISS %:          0   MPKI: 0
STLB PREFETCH  REQUESTED:          0  ISSUED:          0  USEFUL:          0  USELESS:          0
STLB USEFUL LOAD PREFETCHES:          0 PREFETCH ISSUED TO LOWER LEVEL:          0  ACCURACY: -nan
STLB TIMELY PREFETCHES:          0 LATE PREFETCHES: 0 DROPPED PREFETCHES: 0
STLB PREFETCHES SAME FILL-ORIGIN LEVEL: 0 DIFFERENT FILL-ORIGIN LEVEL: 0
STLB AVERAGE MISS LATENCY: 138.448 cycles
STLB RQ	ACCESS:    1322781	FORWARD:          0	MERGED:     118224	TO_CACHE:    1204557

STLB Hit, L1D data hit: 0
STLB Hit, L2C data hit: 0
STLB Hit, LLC data hit: 0
STLB Hit, LLC data miss: 0
STLB STLB hints to L2: 0
L1D TOTAL     ACCESS:   14397714  HIT:   13458488  MISS:     939226  HIT %:    93.4766  MISS %:    6.52344   MPKI: 18.7845
L1D LOAD      ACCESS:    7738905  HIT:    7103143  MISS:     635762  HIT %:    91.7849  MISS %:    8.21514   MPKI: 12.7152
L1D RFO       ACCESS:    6305965  HIT:    6189571  MISS:     116394  HIT %:    98.1542  MISS %:    1.84578   MPKI: 2.32788
L1D PREFETCH  ACCESS:     352844  HIT:     165774  MISS:     187070  HIT %:    46.9822  MISS %:    53.0178   MPKI: 3.7414
L1D PREFETCH  REQUESTED:     739310  ISSUED:     738849  USEFUL:      24878  USELESS:     162196
L1D USEFUL LOAD PREFETCHES:      24878 PREFETCH ISSUED TO LOWER LEVEL:     190609  ACCURACY: 13.0518
L1D TIMELY PREFETCHES:      24878 LATE PREFETCHES: 3069 DROPPED PREFETCHES: 0
L1D PREFETCHES SAME FILL-ORIGIN LEVEL: 190609 DIFFERENT FILL-ORIGIN LEVEL: 0
L1D AVERAGE MISS LATENCY: 292017 cycles
L1D RQ	ACCESS:   11102894	FORWARD:          0	MERGED:    3183345	TO_CACHE:    7770926
L1D WQ	ACCESS:    6513311	FORWARD:     149130	MERGED:      90858	TO_CACHE:    6422453
L1D PQ	ACCESS:     369678	FORWARD:          0	MERGED:          0	TO_CACHE:     369171

L1D UNIQUE REGIONS ACCESSED: 0
L1D REGIONS CONFLICTS: 0
L1D Cross Page Prefetch Requests: 0
L1D Same Page Prefetch Requests: 426910
L1D ROI Sum of L1D PQ occupancy: 13104103
L1D PREFETCHES PUSHED FROM L2C: 0
L1I TOTAL     ACCESS:    9856129  HIT:    6516622  MISS:    3339507  HIT %:    66.1175  MISS %:    33.8825   MPKI: 66.7901
L1I LOAD      ACCESS:    9856129  HIT:    6516622  MISS:    3339507  HIT %:    66.1175  MISS %:    33.8825   MPKI: 66.7901
L1I PREFETCH  REQUESTED:          0  ISSUED:          0  USEFUL:          0  USELESS:          0
L1I USEFUL LOAD PREFETCHES:          0 PREFETCH ISSUED TO LOWER LEVEL:          0  ACCURACY: -nan
L1I TIMELY PREFETCHES:          0 LATE PREFETCHES: 0 DROPPED PREFETCHES: 0
L1I PREFETCHES SAME FILL-ORIGIN LEVEL: 0 DIFFERENT FILL-ORIGIN LEVEL: 0
L1I AVERAGE MISS LATENCY: 14.9412 cycles
L1I RQ	ACCESS:   14703536	FORWARD:          0	MERGED:    4115527	TO_CACHE:   10588009

BTB TOTAL     ACCESS:    6340916  HIT:    5350576  MISS:     990340  HIT %:    84.3818  MISS %:    15.6182   MPKI: 19.8068
BTB BRANCH_DIRECT_JUMP	ACCESS:     773568  HIT:     696055  MISS:      77513
BTB BRANCH_INDIRECT	ACCESS:     108366  HIT:      73637  MISS:      34729
BTB BRANCH_CONDITIONAL	ACCESS:    2912413  HIT:    2697483  MISS:     214930
BTB BRANCH_DIRECT_CALL	ACCESS:    1062756  HIT:     948426  MISS:     114330
BTB BRANCH_INDIRECT_CALL	ACCESS:     210540  HIT:     143969  MISS:      66571
BTB BRANCH_RETURN	ACCESS:    1273273  HIT:     791006  MISS:     482267
BTB BRANCH_OTHER ACCESS:          0  HIT:          0  MISS:          0

L2C TOTAL     ACCESS:    5100093  HIT:    4813605  MISS:     286488  HIT %:    94.3827  MISS %:    5.61731   MPKI: 5.72976
L2C LOAD      ACCESS:    3972138  HIT:    3836336  MISS:     135802  HIT %:    96.5811  MISS %:    3.41886   MPKI: 2.71604
L2C DATA LOAD MPKI: 2.32036
L2C INSTRUCTION LOAD MPKI: 0.39568
L2C RFO       ACCESS:     115924  HIT:      95434  MISS:      20490  HIT %:    82.3246  MISS %:    17.6754   MPKI: 0.4098
L2C PREFETCH  ACCESS:     723973  HIT:     599556  MISS:     124417  HIT %:    82.8147  MISS %:    17.1853   MPKI: 2.48834
L2C DATA PREFETCH MPKI: 2.48834
L2C INSTRUCTION PREFETCH MPKI: 0
L2C WRITEBACK ACCESS:     278456  HIT:     276735  MISS:       1721  HIT %:    99.3819  MISS %:   0.618051   MPKI: 0.03442
L2C LOAD TRANSLATION ACCESS:       9602  HIT:       5544  MISS:       4058  HIT %:     57.738  MISS %:     42.262   MPKI: 0.08116
L2C PREFETCH  REQUESTED:     554007  ISSUED:     554007  USEFUL:      47219  USELESS:      77319
L2C USEFUL LOAD PREFETCHES:      47219 PREFETCH ISSUED TO LOWER LEVEL:     131813  ACCURACY: 35.8227
L2C TIMELY PREFETCHES:      47219 LATE PREFETCHES: 7395 DROPPED PREFETCHES: 0
L2C PREFETCHES SAME FILL-ORIGIN LEVEL: 91903 DIFFERENT FILL-ORIGIN LEVEL: 0
L2C AVERAGE MISS LATENCY: 395.245 cycles
L2C RQ	ACCESS:    4097728	FORWARD:          0	MERGED:          0	TO_CACHE:    4097665
L2C WQ	ACCESS:     278457	FORWARD:         63	MERGED:          0	TO_CACHE:     278457
L2C PQ	ACCESS:     744616	FORWARD:          0	MERGED:       4577	TO_CACHE:     740039

L2C Instructions Evicting Data 14214
L2C Translations Evicting Data 3873
L2C Data Evicting Data 243163
L2C Instructions Evicting Instructions 5404
L2C Translations Evicting Instructions 140
L2C Data Evicting Instructions 13944
L2C Instructions Evicting Translations 166
L2C Translations Evicting Translations 45
L2C Data Evicting Translations 3818
L2C Dense regions hint from L2: 0
PSCL5 TOTAL     ACCESS:       8945  HIT:       8945  MISS:          0  HIT %:        100  MISS %:          0   MPKI: 0
PSCL5 LOAD TRANSLATION ACCESS:       8945  HIT:       8945  MISS:          0  HIT %:        100  MISS %:          0   MPKI: 0
PSCL5 PREFETCH  REQUESTED:          0  ISSUED:          0  USEFUL:          0  USELESS:          0
PSCL5 USEFUL LOAD PREFETCHES:          0 PREFETCH ISSUED TO LOWER LEVEL:          0  ACCURACY: -nan
PSCL5 TIMELY PREFETCHES:          0 LATE PREFETCHES: 0 DROPPED PREFETCHES: 0
PSCL5 PREFETCHES SAME FILL-ORIGIN LEVEL: 0 DIFFERENT FILL-ORIGIN LEVEL: 0

PSCL4 TOTAL     ACCESS:       8529  HIT:       8493  MISS:         36  HIT %:    99.5779  MISS %:   0.422089   MPKI: 0.00072
PSCL4 LOAD TRANSLATION ACCESS:       8529  HIT:       8493  MISS:         36  HIT %:    99.5779  MISS %:   0.422089   MPKI: 0.00072
PSCL4 PREFETCH  REQUESTED:          0  ISSUED:          0  USEFUL:          0  USELESS:          0
PSCL4 USEFUL LOAD PREFETCHES:          0 PREFETCH ISSUED TO LOWER LEVEL:          0  ACCURACY: -nan
PSCL4 TIMELY PREFETCHES:          0 LATE PREFETCHES: 0 DROPPED PREFETCHES: 0
PSCL4 PREFETCHES SAME FILL-ORIGIN LEVEL: 0 DIFFERENT FILL-ORIGIN LEVEL: 0

PSCL3 TOTAL     ACCESS:       8697  HIT:       8661  MISS:         36  HIT %:    99.5861  MISS %:   0.413936   MPKI: 0.00072
PSCL3 LOAD TRANSLATION ACCESS:       8697  HIT:       8661  MISS:         36  HIT %:    99.5861  MISS %:   0.413936   MPKI: 0.00072
PSCL3 PREFETCH  REQUESTED:          0  ISSUED:          0  USEFUL:          0  USELESS:          0
PSCL3 USEFUL LOAD PREFETCHES:          0 PREFETCH ISSUED TO LOWER LEVEL:          0  ACCURACY: -nan
PSCL3 TIMELY PREFETCHES:          0 LATE PREFETCHES: 0 DROPPED PREFETCHES: 0
PSCL3 PREFETCHES SAME FILL-ORIGIN LEVEL: 0 DIFFERENT FILL-ORIGIN LEVEL: 0

PSCL2 TOTAL     ACCESS:       8945  HIT:       8355  MISS:        590  HIT %:    93.4041  MISS %:    6.59586   MPKI: 0.0118
PSCL2 LOAD TRANSLATION ACCESS:       8945  HIT:       8355  MISS:        590  HIT %:    93.4041  MISS %:    6.59586   MPKI: 0.0118
PSCL2 PREFETCH  REQUESTED:          0  ISSUED:          0  USEFUL:          0  USELESS:          0
PSCL2 USEFUL LOAD PREFETCHES:          0 PREFETCH ISSUED TO LOWER LEVEL:          0  ACCURACY: -nan
PSCL2 TIMELY PREFETCHES:          0 LATE PREFETCHES: 0 DROPPED PREFETCHES: 0
PSCL2 PREFETCHES SAME FILL-ORIGIN LEVEL: 0 DIFFERENT FILL-ORIGIN LEVEL: 0

LLC TOTAL     ACCESS:     384052  HIT:     154007  MISS:     230045  HIT %:    40.1006  MISS %:    59.8994   MPKI: 4.6009
LLC LOAD      ACCESS:     128822  HIT:      26831  MISS:     101991  HIT %:     20.828  MISS %:     79.172   MPKI: 2.03982
LLC RFO       ACCESS:      20075  HIT:       6698  MISS:      13377  HIT %:    33.3649  MISS %:    66.6351   MPKI: 0.26754
LLC PREFETCH  ACCESS:     131812  HIT:      19903  MISS:     111909  HIT %:    15.0995  MISS %:    84.9005   MPKI: 2.23818
LLC WRITEBACK ACCESS:      99285  HIT:      98461  MISS:        824  HIT %:    99.1701  MISS %:   0.829934   MPKI: 0.01648
LLC LOAD TRANSLATION ACCESS:       4058  HIT:       2114  MISS:       1944  HIT %:    52.0946  MISS %:    47.9054   MPKI: 0.03888
LLC PREFETCH  REQUESTED:          0  ISSUED:          0  USEFUL:       3381  USELESS:     106853
LLC USEFUL LOAD PREFETCHES:       3381 PREFETCH ISSUED TO LOWER LEVEL:     111910  ACCURACY: 3.02118
LLC TIMELY PREFETCHES:       3381 LATE PREFETCHES: 0 DROPPED PREFETCHES: 0
LLC PREFETCHES SAME FILL-ORIGIN LEVEL: 0 DIFFERENT FILL-ORIGIN LEVEL: 0
LLC AVERAGE MISS LATENCY: 461.18 cycles
LLC RQ	ACCESS:     152955	FORWARD:          0	MERGED:          0	TO_CACHE:     152955
LLC WQ	ACCESS:      99286	FORWARD:          0	MERGED:          0	TO_CACHE:      99286
LLC PQ	ACCESS:     131813	FORWARD:          0	MERGED:          0	TO_CACHE:     131813

LLC Dense regions hint to LLC: 0

RAW hits: 977995
Loads Generated: 12080891
Loads sent to L1D: 11102894
Stores Generated: 6513315
Stores sent to L1D: 6513311
Major fault: 0 Minor fault: 5429
Allocated PAGES: 5429

stream: 
stream:times selected: 451168
stream:pref_filled: 121378
stream:pref_useful: 14754
stream:pref_late: 813
stream:misses: 12004
stream:misses_by_poll: 0

CS: 
CS:times selected: 20117
CS:pref_filled: 8634
CS:pref_useful: 3313
CS:pref_late: 1545
CS:misses: 765
CS:misses_by_poll: 29

CPLX: 
CPLX:times selected: 437272
CPLX:pref_filled: 81971
CPLX:pref_useful: 8824
CPLX:pref_late: 614
CPLX:misses: 54448
CPLX:misses_by_poll: 24

NL_L1: 
NL:times selected: 2215
NL:pref_filled: 1639
NL:pref_useful: 11
NL:pref_late: 2
NL:misses: 271
NL:misses_by_poll: 0

total selections: 910772
total_filled: 187070
total_useful: 24878
total_late: 3488
total_polluted: 53
total_misses_after_warmup: 667783
conflicts: 3228808
Degree Incremented Times: 0
Degree Decremented Times: 137013

L1 IP Table Write Accesses: 4315254
L1 IP Table Read Accesses: 1086446
L1 RST Write Accesses: 394144
L1 RST Read Accesses: 788288
L1 CSPT Write Accesses: 394144
L1 CSPT Read Accesses: 777705
L1 RR Filter Tag Write Accesses: 370139
L1 RR Filter Tag Read Accesses: 17561887
L1 IP Table Tag Write Accesses: 7770926
L1 IP Table Tag Read Accesses: 7770926
L1 RST Tag Write Accesses: 0
L1 RST Tag Read Accesses: 3970523
L1 RR Filter Write Accesses: 0
L1 RR Filter Read Accesses: 612410
test: 204612
L2 IP Table Read Accesses: 1076683
L2 IP Table Write Accesses: 1465730
L2 IP Table Tag Read Accesses: 817678
L2 IP Table Tag Write Accesses: 817678

DRAM Statistics
 CHANNEL 0
 RQ ROW_BUFFER_HIT:      56880  ROW_BUFFER_MISS:     172338
 DBUS_CONGESTED:     237417
 WQ ROW_BUFFER_HIT:      22132  ROW_BUFFER_MISS:      63608  FULL:          0

 AVG_CONGESTED_CYCLE: 70
 All warmup complete: 2
Channel 0 Bank busy for read cycles: 0
Channel 0 Bank busy for write cycles: 0
Channel 0
Rank 0
0banks busy for read cycles: 81424934
0banks busy for write cycles: 18479
1banks busy for read cycles: 8109478
1banks busy for write cycles: 2611635
2banks busy for read cycles: 5816634
2banks busy for write cycles: 1459531
3banks busy for read cycles: 3022106
3banks busy for write cycles: 1046411
4banks busy for read cycles: 1641617
4banks busy for write cycles: 803500
5banks busy for read cycles: 1106221
5banks busy for write cycles: 679532
6banks busy for read cycles: 844402
6banks busy for write cycles: 711744
7banks busy for read cycles: 1018243
7banks busy for write cycles: 1070713
8banks busy for read cycles: 878862
8banks busy for write cycles: 1685541

CPU 0 Branch Prediction Accuracy: 93.023% MPKI: 13.5823 Average ROB Occupancy at Mispredict: 22.1295
Branch types
NOT_BRANCH: 40266107 80.5322%
BRANCH_DIRECT_JUMP: 773568 1.54714%
BRANCH_INDIRECT: 108366 0.216732%
BRANCH_CONDITIONAL: 6305104 12.6102%
BRANCH_DIRECT_CALL: 1062756 2.12551%
BRANCH_INDIRECT_CALL: 210540 0.42108%
BRANCH_RETURN: 1273273 2.54655%
BRANCH_OTHER: 0 0%

@sumon_overall_L1D     24878      3069    162196    187070    738849    739310
@Sumon_Early_by_class_L1D     12434      3103      7757         0
@Sumon_Late_by_class_L1D       622      1528       417         0

@Sumon_Early_by_cycle_L1D      5603      4222      3990      1682      2374      2631      1534       803       232      1225       454       128
@Sumon_Late_by_cycle_L1D      1775       887       193        30        24       132        28         0         0         0         0         0
@Sumon_Early_stream_L1D      3404      3318      3246       503        73       169       515        32        60       722       312        80
@Sumon_Early_CS_L1D       215       129       181       258       218       988       695       349        49        15         6         0
@Sumon_Early_CPLX_L1D      1948       466       228       135      2080      1463       229       422       122       487       135        42
@Sumon_Late_stream_L1D       369        77        33        20        17        84        22         0         0         0         0         0
@Sumon_Late_CS_L1D       547       775       148         9         5        39         5         0         0         0         0         0
@Sumon_Late_CPLX_L1D       359        33        12         1         2         9         1         0         0         0         0         0
@sumon_overall_L2C     47219      7395     77319    124417    554007    554007
@Sumon_Early_by_class_L2C      1176        37      1121         0
@Sumon_Late_by_class_L2C         0         0         0         0

@Sumon_Early_by_cycle_L2C      2925      4198      4553      1813      2718      6921      1995       622      1461      5304     10588      4121
@Sumon_Late_by_cycle_L2C      4113      1994       965       319         4         0         0         0         0         0         0         0
@Sumon_Early_stream_L2C         0         0         0         0         0         0         0         0         0         5       687       484
@Sumon_Early_CS_L2C         0         0         0         0         0         0         0         0         0         0         1        36
@Sumon_Early_CPLX_L2C         0         0         0         0         0         0         0         0         0        20       216       885
@Sumon_Late_stream_L2C         0         0         0         0         0         0         0         0         0         0         0         0
@Sumon_Late_CS_L2C         0         0         0         0         0         0         0         0         0         0         0         0
@Sumon_Late_CPLX_L2C         0         0         0         0         0         0         0         0         0         0         0         0
DRAM PAGES: 1048576
Allocated PAGES: 5429
