
*** ChampSim Multicore Out-of-Order Simulator ***

Warmup Instructions: 50000000
Simulation Instructions: 50000000
Number of CPUs: 1
LLC sets: 2048
LLC ways: 16
Off-chip DRAM Size: 4096 MB Channels: 1 Width: 64-bit Data Rate: 6400 MT/s
CPU 0 runs ../../biswa/SPEC2017Traces/602.gcc_s-734B.champsimtrace.xz
.xz
CPU 0 Bimodal branch predictor
BTB has LRU replacement policy
ITLB has LRU replacement policy
DTLB has LRU replacement policy
STLB has LRU replacement policy
L1I has LRU replacement policy
L1D has LRU replacement policy
Bingo PHT WAYS: 16 and PHT_SIZE: 16384
Initialize DRRIP state for L2C
epoch: 1000
next table: 3451
cur table: 16277
epoch: 1000
next table: 2915
cur table: 3451
epoch: 1000
next table: 3114
cur table: 2915
epoch: 1000
next table: 2967
cur table: 3114
epoch: 1000
next table: 2858
cur table: 2967
epoch: 1000
next table: 2942
cur table: 2858
epoch: 1000
next table: 2871
cur table: 2942
epoch: 1000
next table: 2792
cur table: 2871
epoch: 1000
next table: 2748
cur table: 2792
epoch: 1000
next table: 2986
cur table: 2748
epoch: 1000
next table: 2914
cur table: 2986
epoch: 1000
next table: 2851
cur table: 2914
epoch: 1000
next table: 2930
cur table: 2851
epoch: 1000
next table: 2958
cur table: 2930
epoch: 1000
next table: 2770
cur table: 2958
epoch: 1000
next table: 2925
cur table: 2770
epoch: 1000
next table: 2888
cur table: 2925
epoch: 1000
next table: 2903
cur table: 2888
epoch: 1000
next table: 2910
cur table: 2903
epoch: 1000
next table: 2944
cur table: 2910
epoch: 1000
next table: 2950
cur table: 2944
epoch: 1000
next table: 2858
cur table: 2950
epoch: 1000
next table: 2883
cur table: 2858
epoch: 1000
next table: 1196
cur table: 4530
epoch: 1000
next table: 2913
cur table: 2883
epoch: 1000
next table: 2954
cur table: 2913
epoch: 1000
next table: 1091
cur table: 1196
epoch: 1000
next table: 2897
cur table: 2954
epoch: 1000
next table: 1109
cur table: 1091
epoch: 1000
next table: 2776
cur table: 2897
epoch: 1000
next table: 2861
cur table: 2776
epoch: 1000
next table: 1093
cur table: 1109
epoch: 1000
next table: 2872
cur table: 2861
epoch: 1000
next table: 1086
cur table: 1093
epoch: 1000
next table: 2973
cur table: 2872
epoch: 1000
next table: 1065
cur table: 1086
epoch: 1000
next table: 2920
cur table: 2973
epoch: 1000
next table: 1074
cur table: 1065
epoch: 1000
next table: 2816
cur table: 2920
epoch: 1000
next table: 1048
cur table: 1074
epoch: 1000
next table: 2918
cur table: 2816
epoch: 1000
next table: 1045
cur table: 1048
epoch: 1000
next table: 2984
cur table: 2918
epoch: 1000
next table: 1053
cur table: 1045
epoch: 1000
next table: 2992
cur table: 2984
epoch: 1000
next table: 1061
cur table: 1053
epoch: 1000
next table: 2915
cur table: 2992
epoch: 1000
next table: 1087
cur table: 1061
epoch: 1000
next table: 2827
cur table: 2915
epoch: 1000
next table: 2887
cur table: 2827
epoch: 1000
next table: 1052
cur table: 1087
epoch: 1000
next table: 2882
cur table: 2887
epoch: 1000
next table: 1053
cur table: 1052
epoch: 1000
next table: 2988
cur table: 2882
epoch: 1000
next table: 1048
cur table: 1053
epoch: 1000
next table: 2975
cur table: 2988
epoch: 1000
next table: 1052
cur table: 1048
epoch: 1000
next table: 2864
cur table: 2975
epoch: 1000
next table: 1048
cur table: 1052
epoch: 1000
next table: 2843
cur table: 2864
epoch: 1000
next table: 1054
cur table: 1048
epoch: 1000
next table: 2949
cur table: 2843
epoch: 1000
next table: 1047
cur table: 1054
epoch: 1000
next table: 2862
cur table: 2949
epoch: 1000
next table: 1066
cur table: 1047
epoch: 1000
next table: 2883
cur table: 2862
epoch: 1000
next table: 1066
cur table: 1066
epoch: 1000
next table: 2995
cur table: 2883
epoch: 1000
next table: 1039
cur table: 1066
epoch: 1000
next table: 2967
cur table: 2995
epoch: 1000
next table: 1048
cur table: 1039
epoch: 1000
next table: 2792
cur table: 2967
epoch: 1000
next table: 1099
cur table: 1048
epoch: 1000
next table: 2820
cur table: 2792
epoch: 1000
next table: 1067
cur table: 1099
epoch: 1000
next table: 2835
cur table: 2820
epoch: 1000
next table: 1084
cur table: 1067
epoch: 1000
next table: 2773
cur table: 2835
epoch: 1000
next table: 1079
cur table: 1084
epoch: 1000
next table: 2612
cur table: 2773
epoch: 1000
next table: 1099
cur table: 1079
epoch: 1000
next table: 3013
cur table: 2612
epoch: 1000
next table: 1057
cur table: 1099
epoch: 1000
next table: 2475
cur table: 3013
epoch: 1000
next table: 1122
cur table: 1057
epoch: 1000
next table: 2930
cur table: 2475
epoch: 1000
next table: 1041
cur table: 1122
epoch: 1000
next table: 2916
cur table: 2930
epoch: 1000
next table: 1051
cur table: 1041
epoch: 1000
next table: 2788
cur table: 2916
epoch: 1000
next table: 1103
cur table: 1051
epoch: 1000
next table: 2803
cur table: 2788
epoch: 1000
next table: 1062
cur table: 1103
epoch: 1000
next table: 2660
cur table: 2803
epoch: 1000
next table: 1110
cur table: 1062
epoch: 1000
next table: 2739
cur table: 2660
epoch: 1000
next table: 1077
cur table: 1110
epoch: 1000
next table: 2781
cur table: 2739
epoch: 1000
next table: 1133
cur table: 1077
epoch: 1000
next table: 2780
cur table: 2781
epoch: 1000
next table: 1040
cur table: 1133
epoch: 1000
next table: 3001
cur table: 2780
epoch: 1000
next table: 1047
cur table: 1040
epoch: 1000
next table: 2518
cur table: 3001
epoch: 1000
next table: 1186
cur table: 1047
epoch: 1000
next table: 2749
cur table: 2518
epoch: 1000
next table: 1062
cur table: 1186
epoch: 1000
next table: 2902
cur table: 2749
epoch: 1000
next table: 1053
cur table: 1062
epoch: 1000
next table: 2658
cur table: 2902
epoch: 1000
next table: 1137
cur table: 1053
epoch: 1000
next table: 2771
cur table: 2658
epoch: 1000
next table: 1047
cur table: 1137
epoch: 1000
next table: 2782
cur table: 2771
epoch: 1000
next table: 1075
cur table: 1047
epoch: 1000
next table: 2903
cur table: 2782
epoch: 1000
next table: 1053
cur table: 1075
epoch: 1000
next table: 2836
cur table: 2903
epoch: 1000
next table: 1057
cur table: 1053
epoch: 1000
next table: 2689
cur table: 2836
epoch: 1000
next table: 1079
cur table: 1057
epoch: 1000
next table: 2942
cur table: 2689
epoch: 1000
next table: 1043
cur table: 1079
epoch: 1000
next table: 2878
cur table: 2942
epoch: 1000
next table: 1066
cur table: 1043
epoch: 1000
next table: 2728
cur table: 2878
epoch: 1000
next table: 1126
cur table: 1066
epoch: 1000
next table: 2620
cur table: 2728
epoch: 1000
next table: 1099
cur table: 1126
epoch: 1000
next table: 2597
cur table: 2620
epoch: 1000
next table: 1072
cur table: 1099
epoch: 1000
next table: 2940
cur table: 2597
Heartbeat CPU 0 instructions: 10000000 cycles: 3227199 heartbeat IPC: 3.09866 cumulative IPC: 3.09866 (Simulation time: 0 hr 5 min 57 sec) 
epoch: 1000
next table: 1053
cur table: 1072
epoch: 1000
next table: 2934
cur table: 2940
epoch: 1000
next table: 1049
cur table: 1053
epoch: 1000
next table: 2803
cur table: 2934
epoch: 1000
next table: 1060
cur table: 1049
epoch: 1000
next table: 2901
cur table: 2803
epoch: 1000
next table: 1044
cur table: 1060
epoch: 1000
next table: 3002
cur table: 2901
epoch: 1000
next table: 1056
cur table: 1044
epoch: 1000
next table: 2769
cur table: 3002
epoch: 1000
next table: 1068
cur table: 1056
epoch: 1000
next table: 2866
cur table: 2769
epoch: 1000
next table: 1058
cur table: 1068
epoch: 1000
next table: 2857
cur table: 2866
epoch: 1000
next table: 1079
cur table: 1058
epoch: 1000
next table: 2909
cur table: 2857
epoch: 1000
next table: 2835
cur table: 2909
epoch: 1000
next table: 2925
cur table: 2835
epoch: 1000
next table: 1120
cur table: 1079
epoch: 1000
next table: 2790
cur table: 2925
epoch: 1000
next table: 2782
cur table: 2790
epoch: 1000
next table: 2885
cur table: 2782
epoch: 1000
next table: 2995
cur table: 2885
epoch: 1000
next table: 2856
cur table: 2995
epoch: 1000
next table: 2787
cur table: 2856
epoch: 1000
next table: 2895
cur table: 2787
epoch: 1000
next table: 2483
cur table: 2895
epoch: 1000
next table: 1647
cur table: 1120
epoch: 1000
next table: 2319
cur table: 2483
epoch: 1000
next table: 2615
cur table: 2319
epoch: 1000
next table: 2959
cur table: 2615
epoch: 1000
next table: 2926
cur table: 2959
epoch: 1000
next table: 2956
cur table: 2926
epoch: 1000
next table: 2727
cur table: 2956
epoch: 1000
next table: 2830
cur table: 2727
epoch: 1000
next table: 2936
cur table: 2830
epoch: 1000
next table: 2734
cur table: 2936
epoch: 1000
next table: 2865
cur table: 2734
epoch: 1000
next table: 2794
cur table: 2865
epoch: 1000
next table: 2369
cur table: 2794
epoch: 1000
next table: 2567
cur table: 2369
epoch: 1000
next table: 2860
cur table: 2567
epoch: 1000
next table: 2095
cur table: 2860
epoch: 1000
next table: 2764
cur table: 2095
epoch: 1000
next table: 2929
cur table: 2764
epoch: 1000
next table: 2318
cur table: 2929
epoch: 1000
next table: 2315
cur table: 2318
epoch: 1000
next table: 2677
cur table: 2315
epoch: 1000
next table: 2848
cur table: 2677
epoch: 1000
next table: 2811
cur table: 1647
epoch: 1000
next table: 2017
cur table: 2848
epoch: 1000
next table: 2699
cur table: 2017
epoch: 1000
next table: 2139
cur table: 2811
epoch: 1000
next table: 3045
cur table: 2699
epoch: 1000
next table: 3641
cur table: 3045
epoch: 1000
next table: 2834
cur table: 3641
epoch: 1000
next table: 1405
cur table: 2834
epoch: 1000
next table: 1623
cur table: 1405
epoch: 1000
next table: 2722
cur table: 1623
epoch: 1000
next table: 2602
cur table: 2722
epoch: 1000
next table: 2686
cur table: 2602
epoch: 1000
next table: 2955
cur table: 2686
epoch: 1000
next table: 2823
cur table: 2955
epoch: 1000
next table: 2761
cur table: 2823
epoch: 1000
next table: 2922
cur table: 2761
epoch: 1000
next table: 3015
cur table: 2922
epoch: 1000
next table: 2847
cur table: 3015
epoch: 1000
next table: 3069
cur table: 2847
epoch: 1000
next table: 2850
cur table: 3069
epoch: 1000
next table: 2907
cur table: 2850
epoch: 1000
next table: 2921
cur table: 2907
epoch: 1000
next table: 2788
cur table: 2921
epoch: 1000
next table: 2761
cur table: 2788
epoch: 1000
next table: 2711
cur table: 2761
epoch: 1000
next table: 2986
cur table: 2711
epoch: 1000
next table: 2941
cur table: 2986
epoch: 1000
next table: 2943
cur table: 2941
epoch: 1000
next table: 2817
cur table: 2943
epoch: 1000
next table: 3005
cur table: 2817
epoch: 1000
next table: 2808
cur table: 3005
epoch: 1000
next table: 2950
cur table: 2808
epoch: 1000
next table: 2970
cur table: 2950
epoch: 1000
next table: 2904
cur table: 2970
epoch: 1000
next table: 2847
cur table: 2904
epoch: 1000
next table: 2828
cur table: 2847
epoch: 1000
next table: 2785
cur table: 2828
epoch: 1000
next table: 2899
cur table: 2785
epoch: 1000
next table: 2875
cur table: 2899
epoch: 1000
next table: 2779
cur table: 2875
epoch: 1000
next table: 2977
cur table: 2779
epoch: 1000
next table: 2881
cur table: 2977
epoch: 1000
next table: 3732
cur table: 2139
epoch: 1000
next table: 2834
cur table: 2881
epoch: 1000
next table: 3005
cur table: 2834
epoch: 1000
next table: 2792
cur table: 3005
epoch: 1000
next table: 2788
cur table: 2792
epoch: 1000
next table: 2949
cur table: 2788
epoch: 1000
next table: 2949
cur table: 2949
epoch: 1000
next table: 2829
cur table: 2949
epoch: 1000
next table: 3016
cur table: 2829
epoch: 1000
next table: 2992
cur table: 3016
epoch: 1000
next table: 2945
cur table: 2992
epoch: 1000
next table: 2911
cur table: 2945
epoch: 1000
next table: 2841
cur table: 2911
epoch: 1000
next table: 2926
cur table: 2841
epoch: 1000
next table: 2976
cur table: 2926
Heartbeat CPU 0 instructions: 20000002 cycles: 6468181 heartbeat IPC: 3.08549 cumulative IPC: 3.09206 (Simulation time: 0 hr 11 min 30 sec) 
epoch: 1000
next table: 2966
cur table: 2976
epoch: 1000
next table: 3014
cur table: 2966
epoch: 1000
next table: 2862
cur table: 3014
epoch: 1000
next table: 2959
cur table: 2862
epoch: 1000
next table: 2955
cur table: 2959
epoch: 1000
next table: 2850
cur table: 2955
epoch: 1000
next table: 2884
cur table: 2850
epoch: 1000
next table: 2921
cur table: 2884
epoch: 1000
next table: 2832
cur table: 2921
epoch: 1000
next table: 2962
cur table: 2832
epoch: 1000
next table: 2931
cur table: 2962
epoch: 1000
next table: 2848
cur table: 2931
epoch: 1000
next table: 2948
cur table: 2848
epoch: 1000
next table: 2760
cur table: 2948
epoch: 1000
next table: 3014
cur table: 2760
epoch: 1000
next table: 2947
cur table: 3014
epoch: 1000
next table: 2818
cur table: 2947
epoch: 1000
next table: 2907
cur table: 2818
epoch: 1000
next table: 2913
cur table: 2907
epoch: 1000
next table: 2920
cur table: 2913
epoch: 1000
next table: 2962
cur table: 2920
epoch: 1000
next table: 2840
cur table: 2962
epoch: 1000
next table: 2904
cur table: 2840
epoch: 1000
next table: 2811
cur table: 2904
epoch: 1000
next table: 2808
cur table: 2811
epoch: 1000
next table: 2932
cur table: 2808
epoch: 1000
next table: 2968
cur table: 2932
epoch: 1000
next table: 2855
cur table: 2968
epoch: 1000
next table: 2985
cur table: 2855
epoch: 1000
next table: 2895
cur table: 2985
epoch: 1000
next table: 2911
cur table: 2895
epoch: 1000
next table: 2798
cur table: 2911
epoch: 1000
next table: 2925
cur table: 2798
epoch: 1000
next table: 2667
cur table: 2925
epoch: 1000
next table: 2980
cur table: 2667
epoch: 1000
next table: 2844
cur table: 2980
epoch: 1000
next table: 2823
cur table: 2844
epoch: 1000
next table: 2914
cur table: 2823
epoch: 1000
next table: 2735
cur table: 2914
epoch: 1000
next table: 2925
cur table: 2735
epoch: 1000
next table: 2959
cur table: 2925
epoch: 1000
next table: 2891
cur table: 2959
epoch: 1000
next table: 2852
cur table: 2891
epoch: 1000
next table: 3002
cur table: 2852
epoch: 1000
next table: 2900
cur table: 3002
epoch: 1000
next table: 3016
cur table: 2900
epoch: 1000
next table: 2996
cur table: 3016
epoch: 1000
next table: 3014
cur table: 2996
epoch: 1000
next table: 2863
cur table: 3014
epoch: 1000
next table: 2861
cur table: 2863
epoch: 1000
next table: 2953
cur table: 2861
epoch: 1000
next table: 2953
cur table: 2953
epoch: 1000
next table: 2889
cur table: 2953
epoch: 1000
next table: 3002
cur table: 2889
epoch: 1000
next table: 2887
cur table: 3002
epoch: 1000
next table: 2954
cur table: 2887
epoch: 1000
next table: 2835
cur table: 2954
epoch: 1000
next table: 2910
cur table: 2835
epoch: 1000
next table: 2976
cur table: 2910
epoch: 1000
next table: 2909
cur table: 2976
epoch: 1000
next table: 3019
cur table: 2909
epoch: 1000
next table: 2995
cur table: 3019
epoch: 1000
next table: 2829
cur table: 2995
epoch: 1000
next table: 2980
cur table: 2829
epoch: 1000
next table: 2786
cur table: 2980
epoch: 1000
next table: 2889
cur table: 2786
epoch: 1000
next table: 3002
cur table: 2889
epoch: 1000
next table: 3037
cur table: 3002
epoch: 1000
next table: 2951
cur table: 3037
epoch: 1000
next table: 3092
cur table: 2951
epoch: 1000
next table: 2943
cur table: 3092
epoch: 1000
next table: 2959
cur table: 2943
epoch: 1000
next table: 2911
cur table: 2959
epoch: 1000
next table: 2851
cur table: 2911
epoch: 1000
next table: 2967
cur table: 2851
epoch: 1000
next table: 2866
cur table: 2967
epoch: 1000
next table: 2875
cur table: 2866
epoch: 1000
next table: 2828
cur table: 2875
epoch: 1000
next table: 2791
cur table: 2828
epoch: 1000
next table: 2946
cur table: 2791
epoch: 1000
next table: 2954
cur table: 2946
epoch: 1000
next table: 2872
cur table: 2954
epoch: 1000
next table: 2824
cur table: 2872
epoch: 1000
next table: 2951
cur table: 2824
epoch: 1000
next table: 2951
cur table: 2951
Heartbeat CPU 0 instructions: 30000000 cycles: 9686640 heartbeat IPC: 3.10708 cumulative IPC: 3.09705 (Simulation time: 0 hr 16 min 44 sec) 
epoch: 1000
next table: 2913
cur table: 2951
epoch: 1000
next table: 2747
cur table: 2913
epoch: 1000
next table: 2917
cur table: 2747
epoch: 1000
next table: 2897
cur table: 2917
epoch: 1000
next table: 2637
cur table: 2897
epoch: 1000
next table: 2927
cur table: 2637
epoch: 1000
next table: 2857
cur table: 2927
epoch: 1000
next table: 2818
cur table: 2857
epoch: 1000
next table: 2717
cur table: 2818
epoch: 1000
next table: 2896
cur table: 2717
epoch: 1000
next table: 2820
cur table: 2896
epoch: 1000
next table: 2837
cur table: 2820
epoch: 1000
next table: 2893
cur table: 2837
epoch: 1000
next table: 2662
cur table: 2893
epoch: 1000
next table: 2882
cur table: 2662
epoch: 1000
next table: 2930
cur table: 2882
epoch: 1000
next table: 2857
cur table: 2930
epoch: 1000
next table: 2910
cur table: 2857
epoch: 1000
next table: 2875
cur table: 2910
epoch: 1000
next table: 2846
cur table: 2875
epoch: 1000
next table: 2890
cur table: 2846
epoch: 1000
next table: 2866
cur table: 2890
epoch: 1000
next table: 2873
cur table: 2866
epoch: 1000
next table: 2931
cur table: 2873
epoch: 1000
next table: 2980
cur table: 2931
epoch: 1000
next table: 2819
cur table: 2980
epoch: 1000
next table: 2953
cur table: 2819
epoch: 1000
next table: 2799
cur table: 2953
epoch: 1000
next table: 2928
cur table: 2799
epoch: 1000
next table: 2942
cur table: 2928
epoch: 1000
next table: 2895
cur table: 2942
epoch: 1000
next table: 2900
cur table: 2895
epoch: 1000
next table: 2785
cur table: 2900
epoch: 1000
next table: 2808
cur table: 2785
epoch: 1000
next table: 2935
cur table: 2808
epoch: 1000
next table: 2982
cur table: 2935
epoch: 1000
next table: 2796
cur table: 2982
epoch: 1000
next table: 2886
cur table: 2796
epoch: 1000
next table: 2925
cur table: 2886
epoch: 1000
next table: 2992
cur table: 2925
epoch: 1000
next table: 2959
cur table: 2992
epoch: 1000
next table: 2887
cur table: 2959
epoch: 1000
next table: 2806
cur table: 2887
epoch: 1000
next table: 2853
cur table: 2806
epoch: 1000
next table: 2888
cur table: 2853
epoch: 1000
next table: 3057
cur table: 2888
epoch: 1000
next table: 2977
cur table: 3057
epoch: 1000
next table: 2869
cur table: 2977
epoch: 1000
next table: 2785
cur table: 2869
epoch: 1000
next table: 3017
cur table: 2785
epoch: 1000
next table: 2807
cur table: 3017
epoch: 1000
next table: 9285
cur table: 3732
epoch: 1000
next table: 2955
cur table: 2807
epoch: 1000
next table: 2995
cur table: 2955
epoch: 1000
next table: 2973
cur table: 2995
epoch: 1000
next table: 2736
cur table: 2973
epoch: 1000
next table: 2885
cur table: 2736
epoch: 1000
next table: 2687
cur table: 2885
epoch: 1000
next table: 2949
cur table: 2687
epoch: 1000
next table: 2404
cur table: 2949
epoch: 1000
next table: 2735
cur table: 2404
epoch: 1000
next table: 2676
cur table: 2735
epoch: 1000
next table: 2453
cur table: 2676
epoch: 1000
next table: 2280
cur table: 2453
epoch: 1000
next table: 2662
cur table: 2280
epoch: 1000
next table: 2453
cur table: 2662
epoch: 1000
next table: 2848
cur table: 2453
epoch: 1000
next table: 2704
cur table: 2848
epoch: 1000
next table: 2916
cur table: 2704
epoch: 1000
next table: 2580
cur table: 2916
epoch: 1000
next table: 2353
cur table: 2580
epoch: 1000
next table: 2394
cur table: 2353
epoch: 1000
next table: 2346
cur table: 2394
epoch: 1000
next table: 2497
cur table: 2346
epoch: 1000
next table: 2922
cur table: 2497
epoch: 1000
next table: 2874
cur table: 2922
epoch: 1000
next table: 1987
cur table: 2874
epoch: 1000
next table: 2932
cur table: 1987
epoch: 1000
next table: 2610
cur table: 2932
epoch: 1000
next table: 1421
cur table: 2610
epoch: 1000
next table: 1540
cur table: 1421
epoch: 1000
next table: 2108
cur table: 1540
epoch: 1000
next table: 2536
cur table: 2108
epoch: 1000
next table: 2799
cur table: 2536
epoch: 1000
next table: 2903
cur table: 2799
epoch: 1000
next table: 2933
cur table: 2903
epoch: 1000
next table: 2865
cur table: 2933
epoch: 1000
next table: 2825
cur table: 2865
epoch: 1000
next table: 2916
cur table: 2825
epoch: 1000
next table: 3053
cur table: 2916
epoch: 1000
next table: 2961
cur table: 3053
epoch: 1000
next table: 2891
cur table: 2961
epoch: 1000
next table: 2921
cur table: 2891
epoch: 1000
next table: 2845
cur table: 2921
Heartbeat CPU 0 instructions: 40000000 cycles: 12930163 heartbeat IPC: 3.08307 cumulative IPC: 3.09354 (Simulation time: 0 hr 21 min 40 sec) 
epoch: 1000
next table: 2969
cur table: 2845
epoch: 1000
next table: 2776
cur table: 2969
epoch: 1000
next table: 2727
cur table: 2776
epoch: 1000
next table: 2928
cur table: 2727
epoch: 1000
next table: 2963
cur table: 2928
epoch: 1000
next table: 2871
cur table: 2963
epoch: 1000
next table: 3015
cur table: 2871
epoch: 1000
next table: 2868
cur table: 3015
epoch: 1000
next table: 2870
cur table: 2868
epoch: 1000
next table: 3045
cur table: 2870
epoch: 1000
next table: 2901
cur table: 3045
epoch: 1000
next table: 2934
cur table: 2901
epoch: 1000
next table: 2968
cur table: 2934
epoch: 1000
next table: 2769
cur table: 2968
epoch: 1000
next table: 2780
cur table: 2769
epoch: 1000
next table: 3010
cur table: 2780
epoch: 1000
next table: 2758
cur table: 3010
epoch: 1000
next table: 2904
cur table: 2758
epoch: 1000
next table: 2955
cur table: 2904
epoch: 1000
next table: 2901
cur table: 2955
epoch: 1000
next table: 2893
cur table: 2901
epoch: 1000
next table: 3013
cur table: 2893
epoch: 1000
next table: 2847
cur table: 3013
epoch: 1000
next table: 2844
cur table: 2847
epoch: 1000
next table: 2891
cur table: 2844
epoch: 1000
next table: 2939
cur table: 2891
epoch: 1000
next table: 2888
cur table: 2939
epoch: 1000
next table: 3013
cur table: 2888
epoch: 1000
next table: 2987
cur table: 3013
epoch: 1000
next table: 3007
cur table: 2987
epoch: 1000
next table: 2896
cur table: 3007
epoch: 1000
next table: 2852
cur table: 2896
epoch: 1000
next table: 2920
cur table: 2852
epoch: 1000
next table: 3038
cur table: 2920
epoch: 1000
next table: 2960
cur table: 3038
epoch: 1000
next table: 3014
cur table: 2960
epoch: 1000
next table: 2858
cur table: 3014
epoch: 1000
next table: 3022
cur table: 2858
epoch: 1000
next table: 2952
cur table: 3022
epoch: 1000
next table: 2906
cur table: 2952
epoch: 1000
next table: 2912
cur table: 2906
epoch: 1000
next table: 2891
cur table: 2912
epoch: 1000
next table: 2891
cur table: 2891
epoch: 1000
next table: 2925
cur table: 2891
epoch: 1000
next table: 2964
cur table: 2925
epoch: 1000
next table: 2843
cur table: 2964
epoch: 1000
next table: 2902
cur table: 2843
epoch: 1000
next table: 2864
cur table: 2902
epoch: 1000
next table: 3011
cur table: 2864
epoch: 1000
next table: 2859
cur table: 3011
epoch: 1000
next table: 2894
cur table: 2859
epoch: 1000
next table: 2970
cur table: 2894
epoch: 1000
next table: 2880
cur table: 2970
epoch: 1000
next table: 3009
cur table: 2880
epoch: 1000
next table: 2902
cur table: 3009
epoch: 1000
next table: 2852
cur table: 2902
epoch: 1000
next table: 3012
cur table: 2852
epoch: 1000
next table: 2769
cur table: 3012
epoch: 1000
next table: 2938
cur table: 2769
epoch: 1000
next table: 2841
cur table: 2938
epoch: 1000
next table: 3030
cur table: 2841
epoch: 1000
next table: 2788
cur table: 3030
epoch: 1000
next table: 3018
cur table: 2788
epoch: 1000
next table: 2912
cur table: 3018
epoch: 1000
next table: 2814
cur table: 2912
epoch: 1000
next table: 2955
cur table: 2814
epoch: 1000
next table: 2765
cur table: 2955
epoch: 1000
next table: 2848
cur table: 2765
epoch: 1000
next table: 2948
cur table: 2848
epoch: 1000
next table: 2856
cur table: 2948
epoch: 1000
next table: 2900
cur table: 2856
epoch: 1000
next table: 2885
cur table: 2900
epoch: 1000
next table: 2828
cur table: 2885
epoch: 1000
next table: 2954
cur table: 2828
epoch: 1000
next table: 2894
cur table: 2954
epoch: 1000
next table: 2910
cur table: 2894
epoch: 1000
next table: 2977
cur table: 2910
epoch: 1000
next table: 3022
cur table: 2977
epoch: 1000
next table: 2849
cur table: 3022
epoch: 1000
next table: 3043
cur table: 2849
epoch: 1000
next table: 2986
cur table: 3043
epoch: 1000
next table: 2984
cur table: 2986
epoch: 1000
next table: 2950
cur table: 2984
epoch: 1000
next table: 2862
cur table: 2950
epoch: 1000
next table: 3021
cur table: 2862
Heartbeat CPU 0 instructions: 50000000 cycles: 16150067 heartbeat IPC: 3.10568 cumulative IPC: 3.09596 (Simulation time: 0 hr 27 min 14 sec) 

Warmup complete CPU 0 instructions: 50000001 cycles: 16150068 (Simulation time: 0 hr 27 min 14 sec) 

epoch: 1000
next table: 2900
cur table: 2830
epoch: 1000
next table: 2880
cur table: 2900
epoch: 1000
next table: 2982
cur table: 2880
epoch: 1000
next table: 2917
cur table: 2982
epoch: 1000
next table: 3012
cur table: 2917
epoch: 1000
next table: 2830
cur table: 3012
epoch: 1000
next table: 2951
cur table: 2830
epoch: 1000
next table: 2997
cur table: 2951
epoch: 1000
next table: 3045
cur table: 2997
epoch: 1000
next table: 2897
cur table: 3045
epoch: 1000
next table: 2925
cur table: 2897
epoch: 1000
next table: 2869
cur table: 2925
epoch: 1000
next table: 2958
cur table: 2869
epoch: 1000
next table: 3014
cur table: 2958
epoch: 1000
next table: 3014
cur table: 3014
epoch: 1000
next table: 3023
cur table: 3014
epoch: 1000
next table: 2958
cur table: 3023
epoch: 1000
next table: 3037
cur table: 2958
epoch: 1000
next table: 2979
cur table: 3037
epoch: 1000
next table: 2989
cur table: 2979
epoch: 1000
next table: 2757
cur table: 2989
epoch: 1000
next table: 3052
cur table: 2757
epoch: 1000
next table: 2763
cur table: 3052
epoch: 1000
next table: 2958
cur table: 2763
epoch: 1000
next table: 2798
cur table: 2958
epoch: 1000
next table: 2888
cur table: 2798
epoch: 1000
next table: 2919
cur table: 2888
epoch: 1000
next table: 2987
cur table: 2919
epoch: 1000
next table: 2799
cur table: 2987
epoch: 1000
next table: 2912
cur table: 2799
epoch: 1000
next table: 2986
cur table: 2912
epoch: 1000
next table: 2900
cur table: 2986
epoch: 1000
next table: 2866
cur table: 2900
epoch: 1000
next table: 2757
cur table: 2866
epoch: 1000
next table: 2920
cur table: 2757
epoch: 1000
next table: 2818
cur table: 2920
epoch: 1000
next table: 2876
cur table: 2818
epoch: 1000
next table: 2919
cur table: 2876
epoch: 1000
next table: 2749
cur table: 2919
epoch: 1000
next table: 2816
cur table: 2749
epoch: 1000
next table: 2919
cur table: 2816
epoch: 1000
next table: 2729
cur table: 2919
epoch: 1000
next table: 2875
cur table: 2729
epoch: 1000
next table: 2806
cur table: 2875
epoch: 1000
next table: 2828
cur table: 2806
epoch: 1000
next table: 2778
cur table: 2828
epoch: 1000
next table: 2919
cur table: 2778
epoch: 1000
next table: 2911
cur table: 2919
epoch: 1000
next table: 2784
cur table: 2911
epoch: 1000
next table: 2868
cur table: 2784
epoch: 1000
next table: 3021
cur table: 2868
epoch: 1000
next table: 2710
cur table: 3021
epoch: 1000
next table: 2926
cur table: 2710
epoch: 1000
next table: 2898
cur table: 2926
epoch: 1000
next table: 2834
cur table: 2898
epoch: 1000
next table: 3038
cur table: 2834
epoch: 1000
next table: 2883
cur table: 3038
epoch: 1000
next table: 2882
cur table: 2883
epoch: 1000
next table: 2869
cur table: 2882
epoch: 1000
next table: 2818
cur table: 2869
epoch: 1000
next table: 3034
cur table: 2818
epoch: 1000
next table: 2949
cur table: 3034
epoch: 1000
next table: 2783
cur table: 2949
epoch: 1000
next table: 2835
cur table: 2783
epoch: 1000
next table: 2881
cur table: 2835
epoch: 1000
next table: 2856
cur table: 2881
epoch: 1000
next table: 2975
cur table: 2856
epoch: 1000
next table: 2881
cur table: 2975
epoch: 1000
next table: 2790
cur table: 2881
epoch: 1000
next table: 2926
cur table: 2790
epoch: 1000
next table: 2985
cur table: 2926
epoch: 1000
next table: 2998
cur table: 2985
epoch: 1000
next table: 2844
cur table: 2998
epoch: 1000
next table: 2922
cur table: 2844
epoch: 1000
next table: 2794
cur table: 2922
epoch: 1000
next table: 2915
cur table: 2794
epoch: 1000
next table: 3047
cur table: 2915
epoch: 1000
next table: 2887
cur table: 3047
epoch: 1000
next table: 2861
cur table: 2887
epoch: 1000
next table: 2881
cur table: 2861
epoch: 1000
next table: 2977
cur table: 2881
epoch: 1000
next table: 2801
cur table: 2977
epoch: 1000
next table: 3018
cur table: 2801
epoch: 1000
next table: 2864
cur table: 3018
Heartbeat CPU 0 instructions: 60000000 cycles: 41205774 heartbeat IPC: 0.399111 cumulative IPC: 0.399111 (Simulation time: 0 hr 33 min 53 sec) 
epoch: 1000
next table: 2963
cur table: 2864
epoch: 1000
next table: 2904
cur table: 2963
epoch: 1000
next table: 2710
cur table: 2904
epoch: 1000
next table: 2895
cur table: 2710
epoch: 1000
next table: 2798
cur table: 2895
epoch: 1000
next table: 2468
cur table: 2798
epoch: 1000
next table: 2838
cur table: 2468
epoch: 1000
next table: 2564
cur table: 2838
epoch: 1000
next table: 2516
cur table: 2564
epoch: 1000
next table: 2208
cur table: 2516
epoch: 1000
next table: 2727
cur table: 2208
epoch: 1000
next table: 2577
cur table: 2727
epoch: 1000
next table: 2715
cur table: 2577
epoch: 1000
next table: 2819
cur table: 2715
epoch: 1000
next table: 2862
cur table: 2819
epoch: 1000
next table: 2637
cur table: 2862
epoch: 1000
next table: 2378
cur table: 2637
epoch: 1000
next table: 2367
cur table: 2378
epoch: 1000
next table: 2395
cur table: 2367
epoch: 1000
next table: 2503
cur table: 2395
epoch: 1000
next table: 2981
cur table: 2503
epoch: 1000
next table: 2807
cur table: 2981
epoch: 1000
next table: 2122
cur table: 2807
epoch: 1000
next table: 2926
cur table: 2122
epoch: 1000
next table: 2578
cur table: 2926
epoch: 1000
next table: 1930
cur table: 2578
epoch: 1000
next table: 1645
cur table: 1930
epoch: 1000
next table: 1647
cur table: 1645
epoch: 1000
next table: 1581
cur table: 1647
epoch: 1000
next table: 1576
cur table: 1581
epoch: 1000
next table: 1425
cur table: 1576
epoch: 1000
next table: 1419
cur table: 1425
epoch: 1000
next table: 1367
cur table: 1419
epoch: 1000
next table: 1445
cur table: 1367
epoch: 1000
next table: 1922
cur table: 1445
epoch: 1000
next table: 2800
cur table: 1922
epoch: 1000
next table: 1826
cur table: 2800
epoch: 1000
next table: 2449
cur table: 11383
epoch: 1000
next table: 2447
cur table: 1826
epoch: 1000
next table: 2368
cur table: 2447
epoch: 1000
next table: 2920
cur table: 2368
epoch: 1000
next table: 2900
cur table: 2920
epoch: 1000
next table: 2835
cur table: 2900
epoch: 1000
next table: 2837
cur table: 2835
epoch: 1000
next table: 2821
cur table: 2837
epoch: 1000
next table: 2974
cur table: 2821
epoch: 1000
next table: 3054
cur table: 2974
epoch: 1000
next table: 2965
cur table: 3054
epoch: 1000
next table: 2900
cur table: 2965
epoch: 1000
next table: 2976
cur table: 2900
epoch: 1000
next table: 2850
cur table: 2976
epoch: 1000
next table: 2852
cur table: 2850
epoch: 1000
next table: 2887
cur table: 2852
epoch: 1000
next table: 2629
cur table: 2887
epoch: 1000
next table: 3022
cur table: 2629
epoch: 1000
next table: 2969
cur table: 3022
epoch: 1000
next table: 2868
cur table: 2969
epoch: 1000
next table: 2953
cur table: 2868
epoch: 1000
next table: 2929
cur table: 2953
epoch: 1000
next table: 2869
cur table: 2929
epoch: 1000
next table: 2976
cur table: 2869
epoch: 1000
next table: 2971
cur table: 2976
epoch: 1000
next table: 2870
cur table: 2971
epoch: 1000
next table: 2903
cur table: 2870
epoch: 1000
next table: 2890
cur table: 2903
epoch: 1000
next table: 2781
cur table: 2890
epoch: 1000
next table: 2957
cur table: 2781
epoch: 1000
next table: 2814
cur table: 2957
epoch: 1000
next table: 2840
cur table: 2814
epoch: 1000
next table: 3024
cur table: 2840
epoch: 1000
next table: 2893
cur table: 3024
epoch: 1000
next table: 2829
cur table: 2893
epoch: 1000
next table: 3013
cur table: 2829
epoch: 1000
next table: 2846
cur table: 3013
epoch: 1000
next table: 2785
cur table: 2846
epoch: 1000
next table: 3012
cur table: 2785
epoch: 1000
next table: 2940
cur table: 3012
epoch: 1000
next table: 2892
cur table: 2940
epoch: 1000
next table: 2989
cur table: 2892
epoch: 1000
next table: 3010
cur table: 2989
epoch: 1000
next table: 3014
cur table: 3010
epoch: 1000
next table: 2852
cur table: 3014
epoch: 1000
next table: 2889
cur table: 2852
epoch: 1000
next table: 2929
cur table: 2889
epoch: 1000
next table: 2966
cur table: 2929
epoch: 1000
next table: 2975
cur table: 2966
epoch: 1000
next table: 2998
cur table: 2975
epoch: 1000
next table: 2859
cur table: 2998
epoch: 1000
next table: 2962
cur table: 2859
epoch: 1000
next table: 3013
cur table: 2962
epoch: 1000
next table: 2909
cur table: 3013
epoch: 1000
next table: 2848
cur table: 2909
epoch: 1000
next table: 2951
cur table: 2848
epoch: 1000
next table: 2838
cur table: 2951
epoch: 1000
next table: 2984
cur table: 2838
epoch: 1000
next table: 2962
cur table: 2984
epoch: 1000
next table: 2845
cur table: 2962
epoch: 1000
next table: 2860
cur table: 2845
Heartbeat CPU 0 instructions: 70000002 cycles: 67053872 heartbeat IPC: 0.386876 cumulative IPC: 0.392898 (Simulation time: 0 hr 40 min 31 sec) 
epoch: 1000
next table: 2842
cur table: 2860
epoch: 1000
next table: 3012
cur table: 2842
epoch: 1000
next table: 2860
cur table: 3012
epoch: 1000
next table: 2967
cur table: 2860
epoch: 1000
next table: 2898
cur table: 2967
epoch: 1000
next table: 2943
cur table: 2898
epoch: 1000
next table: 3045
cur table: 2943
epoch: 1000
next table: 2866
cur table: 3045
epoch: 1000
next table: 2850
cur table: 2866
epoch: 1000
next table: 2916
cur table: 2850
epoch: 1000
next table: 2868
cur table: 2916
epoch: 1000
next table: 2872
cur table: 2868
epoch: 1000
next table: 2849
cur table: 2872
epoch: 1000
next table: 2965
cur table: 2849
epoch: 1000
next table: 2850
cur table: 2965
epoch: 1000
next table: 2970
cur table: 2850
epoch: 1000
next table: 2900
cur table: 2970
epoch: 1000
next table: 2812
cur table: 2900
epoch: 1000
next table: 2956
cur table: 2812
epoch: 1000
next table: 2770
cur table: 2956
epoch: 1000
next table: 2848
cur table: 2770
epoch: 1000
next table: 2943
cur table: 2848
epoch: 1000
next table: 2795
cur table: 2943
epoch: 1000
next table: 2907
cur table: 2795
epoch: 1000
next table: 2878
cur table: 2907
epoch: 1000
next table: 2827
cur table: 2878
epoch: 1000
next table: 2954
cur table: 2827
epoch: 1000
next table: 2894
cur table: 2954
epoch: 1000
next table: 2912
cur table: 2894
epoch: 1000
next table: 2978
cur table: 2912
epoch: 1000
next table: 2956
cur table: 2978
epoch: 1000
next table: 2912
cur table: 2956
epoch: 1000
next table: 2983
cur table: 2912
epoch: 1000
next table: 3050
cur table: 2983
epoch: 1000
next table: 2922
cur table: 3050
epoch: 1000
next table: 2967
cur table: 2922
epoch: 1000
next table: 2842
cur table: 2967
epoch: 1000
next table: 3024
cur table: 2842
epoch: 1000
next table: 2941
cur table: 3024
epoch: 1000
next table: 2835
cur table: 2941
epoch: 1000
next table: 3015
cur table: 2835
epoch: 1000
next table: 2886
cur table: 3015
epoch: 1000
next table: 2982
cur table: 2886
epoch: 1000
next table: 2854
cur table: 2982
epoch: 1000
next table: 3013
cur table: 2854
epoch: 1000
next table: 2832
cur table: 3013
epoch: 1000
next table: 2985
cur table: 2832
epoch: 1000
next table: 3024
cur table: 2985
epoch: 1000
next table: 2988
cur table: 3024
epoch: 1000
next table: 2833
cur table: 2988
epoch: 1000
next table: 2986
cur table: 2833
epoch: 1000
next table: 2812
cur table: 2986
epoch: 1000
next table: 2954
cur table: 2812
epoch: 1000
next table: 3094
cur table: 2954
epoch: 1000
next table: 2995
cur table: 3094
epoch: 1000
next table: 2964
cur table: 2995
epoch: 1000
next table: 3019
cur table: 2964
epoch: 1000
next table: 2957
cur table: 3019
epoch: 1000
next table: 3079
cur table: 2957
epoch: 1000
next table: 2908
cur table: 3079
epoch: 1000
next table: 2799
cur table: 2908
epoch: 1000
next table: 3015
cur table: 2799
epoch: 1000
next table: 2830
cur table: 3015
epoch: 1000
next table: 2843
cur table: 2830
epoch: 1000
next table: 2905
cur table: 2843
epoch: 1000
next table: 2826
cur table: 2905
epoch: 1000
next table: 2952
cur table: 2826
epoch: 1000
next table: 3016
cur table: 2952
epoch: 1000
next table: 2787
cur table: 3016
epoch: 1000
next table: 2897
cur table: 2787
epoch: 1000
next table: 3019
cur table: 2897
epoch: 1000
next table: 2843
cur table: 3019
epoch: 1000
next table: 2810
cur table: 2843
epoch: 1000
next table: 2874
cur table: 2810
epoch: 1000
next table: 2859
cur table: 2874
epoch: 1000
next table: 2877
cur table: 2859
epoch: 1000
next table: 2752
cur table: 2877
epoch: 1000
next table: 2856
cur table: 2752
epoch: 1000
next table: 2876
cur table: 2856
epoch: 1000
next table: 2714
cur table: 2876
epoch: 1000
next table: 2987
cur table: 2714
epoch: 1000
next table: 2760
cur table: 2987
epoch: 1000
next table: 2852
cur table: 2760
epoch: 1000
next table: 2835
cur table: 2852
epoch: 1000
next table: 2720
cur table: 2835
Heartbeat CPU 0 instructions: 80000000 cycles: 92076189 heartbeat IPC: 0.399643 cumulative IPC: 0.395121 (Simulation time: 0 hr 46 min 50 sec) 
epoch: 1000
next table: 2886
cur table: 2720
epoch: 1000
next table: 2918
cur table: 2886
epoch: 1000
next table: 2893
cur table: 2918
epoch: 1000
next table: 2812
cur table: 2893
epoch: 1000
next table: 2869
cur table: 2812
epoch: 1000
next table: 2988
cur table: 2869
epoch: 1000
next table: 2746
cur table: 2988
epoch: 1000
next table: 2922
cur table: 2746
epoch: 1000
next table: 2890
cur table: 2922
epoch: 1000
next table: 2841
cur table: 2890
epoch: 1000
next table: 2974
cur table: 2841
epoch: 1000
next table: 2883
cur table: 2974
epoch: 1000
next table: 2949
cur table: 2883
epoch: 1000
next table: 2795
cur table: 2949
epoch: 1000
next table: 2888
cur table: 2795
epoch: 1000
next table: 2908
cur table: 2888
epoch: 1000
next table: 2902
cur table: 2908
epoch: 1000
next table: 2891
cur table: 2902
epoch: 1000
next table: 2778
cur table: 2891
epoch: 1000
next table: 2902
cur table: 2778
epoch: 1000
next table: 2837
cur table: 2902
epoch: 1000
next table: 2908
cur table: 2837
epoch: 1000
next table: 2945
cur table: 2908
epoch: 1000
next table: 2793
cur table: 2945
epoch: 1000
next table: 2861
cur table: 2793
epoch: 1000
next table: 3017
cur table: 2861
epoch: 1000
next table: 3025
cur table: 3017
epoch: 1000
next table: 2846
cur table: 3025
epoch: 1000
next table: 2859
cur table: 2846
epoch: 1000
next table: 2795
cur table: 2859
epoch: 1000
next table: 2914
cur table: 2795
epoch: 1000
next table: 3047
cur table: 2914
epoch: 1000
next table: 2951
cur table: 3047
epoch: 1000
next table: 2800
cur table: 2951
epoch: 1000
next table: 2944
cur table: 2800
epoch: 1000
next table: 2918
cur table: 2944
epoch: 1000
next table: 2797
cur table: 2918
epoch: 1000
next table: 3021
cur table: 2797
epoch: 1000
next table: 2924
cur table: 3021
epoch: 1000
next table: 2964
cur table: 2924
epoch: 1000
next table: 2843
cur table: 2964
epoch: 1000
next table: 2711
cur table: 2843
epoch: 1000
next table: 2904
cur table: 2711
epoch: 1000
next table: 2778
cur table: 2904
epoch: 1000
next table: 2733
cur table: 2778
epoch: 1000
next table: 2896
cur table: 2733
epoch: 1000
next table: 2735
cur table: 2896
epoch: 1000
next table: 2869
cur table: 2735
epoch: 1000
next table: 2842
cur table: 2869
epoch: 1000
next table: 2864
cur table: 2842
epoch: 1000
next table: 2734
cur table: 2864
epoch: 1000
next table: 2762
cur table: 2734
epoch: 1000
next table: 2701
cur table: 2762
epoch: 1000
next table: 2776
cur table: 2701
epoch: 1000
next table: 2787
cur table: 2776
epoch: 1000
next table: 3000
cur table: 2787
epoch: 1000
next table: 2585
cur table: 3000
epoch: 1000
next table: 2750
cur table: 2585
epoch: 1000
next table: 2900
cur table: 2750
epoch: 1000
next table: 2715
cur table: 2900
epoch: 1000
next table: 2911
cur table: 2715
epoch: 1000
next table: 2849
cur table: 2911
epoch: 1000
next table: 2960
cur table: 2849
epoch: 1000
next table: 2778
cur table: 2960
epoch: 1000
next table: 2639
cur table: 2778
epoch: 1000
next table: 2990
cur table: 2639
epoch: 1000
next table: 2877
cur table: 2990
epoch: 1000
next table: 2872
cur table: 2877
epoch: 1000
next table: 2490
cur table: 2872
epoch: 1000
next table: 2855
cur table: 2490
epoch: 1000
next table: 2791
cur table: 2855
epoch: 1000
next table: 3000
cur table: 2791
epoch: 1000
next table: 2817
cur table: 3000
epoch: 1000
next table: 2825
cur table: 2817
epoch: 1000
next table: 2950
cur table: 2825
epoch: 1000
next table: 2900
cur table: 2950
epoch: 1000
next table: 2757
cur table: 2900
epoch: 1000
next table: 3026
cur table: 2757
epoch: 1000
next table: 2912
cur table: 3026
epoch: 1000
next table: 2731
cur table: 2912
epoch: 1000
next table: 2901
cur table: 2731
epoch: 1000
next table: 2854
cur table: 2901
epoch: 1000
next table: 2786
cur table: 2854
epoch: 1000
next table: 2947
cur table: 2786
epoch: 1000
next table: 2939
cur table: 2947
epoch: 1000
next table: 2905
cur table: 2939
epoch: 1000
next table: 2923
cur table: 2905
epoch: 1000
next table: 2883
cur table: 2923
Heartbeat CPU 0 instructions: 90000000 cycles: 117147707 heartbeat IPC: 0.398859 cumulative IPC: 0.396049 (Simulation time: 0 hr 53 min 9 sec) 
epoch: 1000
next table: 2165
cur table: 2883
epoch: 1000
next table: 2839
cur table: 2165
epoch: 1000
next table: 2634
cur table: 2839
epoch: 1000
next table: 3080
cur table: 2634
epoch: 1000
next table: 2802
cur table: 3080
epoch: 1000
next table: 2898
cur table: 2802
epoch: 1000
next table: 2787
cur table: 2898
epoch: 1000
next table: 2916
cur table: 2787
epoch: 1000
next table: 2792
cur table: 2916
epoch: 1000
next table: 2866
cur table: 2792
epoch: 1000
next table: 2854
cur table: 2866
epoch: 1000
next table: 2684
cur table: 2854
epoch: 1000
next table: 2627
cur table: 2684
epoch: 1000
next table: 2667
cur table: 2627
epoch: 1000
next table: 2369
cur table: 2667
epoch: 1000
next table: 2857
cur table: 2369
epoch: 1000
next table: 2966
cur table: 2857
epoch: 1000
next table: 2562
cur table: 2966
epoch: 1000
next table: 2358
cur table: 2562
epoch: 1000
next table: 2731
cur table: 2358
epoch: 1000
next table: 2830
cur table: 2731
epoch: 1000
next table: 1931
cur table: 2830
epoch: 1000
next table: 2703
cur table: 1931
epoch: 1000
next table: 2323
cur table: 2703
epoch: 1000
next table: 2818
cur table: 2323
epoch: 1000
next table: 1447
cur table: 2818
epoch: 1000
next table: 2236
cur table: 1447
epoch: 1000
next table: 1943
cur table: 2236
epoch: 1000
next table: 1946
cur table: 1943
epoch: 1000
next table: 1906
cur table: 1946
epoch: 1000
next table: 1963
cur table: 1906
epoch: 1000
next table: 1930
cur table: 1963
epoch: 1000
next table: 1978
cur table: 1930
epoch: 1000
next table: 1909
cur table: 1978
epoch: 1000
next table: 1890
cur table: 1909
epoch: 1000
next table: 1915
cur table: 1890
epoch: 1000
next table: 1919
cur table: 1915
epoch: 1000
next table: 1917
cur table: 1919
epoch: 1000
next table: 17043
cur table: 2449
epoch: 1000
next table: 1960
cur table: 1917
epoch: 1000
next table: 1922
cur table: 1960
epoch: 1000
next table: 1925
cur table: 1922
epoch: 1000
next table: 1890
cur table: 1925
epoch: 1000
next table: 1959
cur table: 1890
epoch: 1000
next table: 1902
cur table: 1959
epoch: 1000
next table: 1937
cur table: 1902
epoch: 1000
next table: 1917
cur table: 1937
epoch: 1000
next table: 1927
cur table: 1917
epoch: 1000
next table: 1955
cur table: 1927
epoch: 1000
next table: 1929
cur table: 1955
epoch: 1000
next table: 1929
cur table: 1929
epoch: 1000
next table: 1924
cur table: 1929
epoch: 1000
next table: 1953
cur table: 1924
epoch: 1000
next table: 1956
cur table: 1953
epoch: 1000
next table: 1989
cur table: 1956
epoch: 1000
next table: 1984
cur table: 1989
epoch: 1000
next table: 1910
cur table: 1984
epoch: 1000
next table: 1959
cur table: 1910
epoch: 1000
next table: 2259
cur table: 17043
epoch: 1000
next table: 1915
cur table: 1959
epoch: 1000
next table: 1981
cur table: 1915
epoch: 1000
next table: 1986
cur table: 1981
epoch: 1000
next table: 1903
cur table: 1986
epoch: 1000
next table: 1977
cur table: 1903
epoch: 1000
next table: 1929
cur table: 1977
epoch: 1000
next table: 1945
cur table: 1929
epoch: 1000
next table: 1929
cur table: 1945
epoch: 1000
next table: 2015
cur table: 1929
epoch: 1000
next table: 1955
cur table: 2015
epoch: 1000
next table: 2017
cur table: 1955
epoch: 1000
next table: 1895
cur table: 2017
epoch: 1000
next table: 1993
cur table: 1895
epoch: 1000
next table: 1924
cur table: 1993
epoch: 1000
next table: 1964
cur table: 1924
epoch: 1000
next table: 1909
cur table: 1964
epoch: 1000
next table: 1929
cur table: 1909
epoch: 1000
next table: 1924
cur table: 1929
epoch: 1000
next table: 1984
cur table: 1924
epoch: 1000
next table: 1941
cur table: 1984
epoch: 1000
next table: 1925
cur table: 1941
epoch: 1000
next table: 1910
cur table: 1925
epoch: 1000
next table: 2320
cur table: 2259
epoch: 1000
next table: 1908
cur table: 1910
epoch: 1000
next table: 1901
cur table: 1908
epoch: 1000
next table: 1933
cur table: 1901
epoch: 1000
next table: 1939
cur table: 1933
epoch: 1000
next table: 1873
cur table: 1939
epoch: 1000
next table: 1898
cur table: 1873
epoch: 1000
next table: 1967
cur table: 1898
epoch: 1000
next table: 1930
cur table: 1967
epoch: 1000
next table: 2004
cur table: 1930
epoch: 1000
next table: 1898
cur table: 2004
epoch: 1000
next table: 2008
cur table: 1898
epoch: 1000
next table: 1953
cur table: 2008
epoch: 1000
next table: 1973
cur table: 1953
epoch: 1000
next table: 1969
cur table: 1973
epoch: 1000
next table: 1997
cur table: 1969
epoch: 1000
next table: 1937
cur table: 1997
epoch: 1000
next table: 1953
cur table: 1937
epoch: 1000
next table: 1939
cur table: 1953
epoch: 1000
next table: 1951
cur table: 1939
epoch: 1000
next table: 1988
cur table: 1951
epoch: 1000
next table: 1977
cur table: 1988
epoch: 1000
next table: 1937
cur table: 1977
epoch: 1000
next table: 1918
cur table: 1937
epoch: 1000
next table: 1901
cur table: 1918
epoch: 1000
next table: 2296
cur table: 2320
epoch: 1000
next table: 1971
cur table: 1901
epoch: 1000
next table: 2009
cur table: 1971
epoch: 1000
next table: 2000
cur table: 2009
epoch: 1000
next table: 1985
cur table: 2000
epoch: 1000
next table: 2018
cur table: 1985
epoch: 1000
next table: 1958
cur table: 2018
epoch: 1000
next table: 1949
cur table: 1958
epoch: 1000
next table: 1913
cur table: 1949
epoch: 1000
next table: 1892
cur table: 1913
epoch: 1000
next table: 1973
cur table: 1892
epoch: 1000
next table: 1987
cur table: 1973
epoch: 1000
next table: 1886
cur table: 1987
epoch: 1000
next table: 1990
cur table: 1886
epoch: 1000
next table: 1925
cur table: 1990
epoch: 1000
next table: 1834
cur table: 1925
epoch: 1000
next table: 1947
cur table: 1834
epoch: 1000
next table: 1923
cur table: 1947
epoch: 1000
next table: 1890
cur table: 1923
epoch: 1000
next table: 1893
cur table: 1890
epoch: 1000
next table: 2017
cur table: 1893
epoch: 1000
next table: 1945
cur table: 2017
epoch: 1000
next table: 2294
cur table: 2296
epoch: 1000
next table: 1919
cur table: 1945
epoch: 1000
next table: 1966
cur table: 1919
epoch: 1000
next table: 1927
cur table: 1966
epoch: 1000
next table: 1915
cur table: 1927
epoch: 1000
next table: 1955
cur table: 1915
epoch: 1000
next table: 1953
cur table: 1955
epoch: 1000
next table: 1958
cur table: 1953
epoch: 1000
next table: 1990
cur table: 1958
epoch: 1000
next table: 2000
cur table: 1990
epoch: 1000
next table: 1942
cur table: 2000
epoch: 1000
next table: 2003
cur table: 1942
epoch: 1000
next table: 1882
cur table: 2003
epoch: 1000
next table: 1976
cur table: 1882
epoch: 1000
next table: 1917
cur table: 1976
epoch: 1000
next table: 1952
cur table: 1917
epoch: 1000
next table: 2016
cur table: 1952
epoch: 1000
next table: 1937
cur table: 2016
epoch: 1000
next table: 1947
cur table: 1937
epoch: 1000
next table: 2025
cur table: 1947
epoch: 1000
next table: 1956
cur table: 2025
epoch: 1000
next table: 1969
cur table: 1956
epoch: 1000
next table: 2311
cur table: 2294
epoch: 1000
next table: 1914
cur table: 1969
epoch: 1000
next table: 1982
cur table: 1914
epoch: 1000
next table: 1954
cur table: 1982
epoch: 1000
next table: 2038
cur table: 1954
epoch: 1000
next table: 1910
cur table: 2038
epoch: 1000
next table: 2044
cur table: 1910
epoch: 1000
next table: 1916
cur table: 2044
epoch: 1000
next table: 1969
cur table: 1916
epoch: 1000
next table: 1928
cur table: 1969
epoch: 1000
next table: 1973
cur table: 1928
epoch: 1000
next table: 1926
cur table: 1973
epoch: 1000
next table: 1959
cur table: 1926
epoch: 1000
next table: 1906
cur table: 1959
epoch: 1000
next table: 1933
cur table: 1906
epoch: 1000
next table: 1957
cur table: 1933
epoch: 1000
next table: 1922
cur table: 1957
epoch: 1000
next table: 1971
cur table: 1922
epoch: 1000
next table: 1953
cur table: 1971
epoch: 1000
next table: 1876
cur table: 1953
epoch: 1000
next table: 1957
cur table: 1876
epoch: 1000
next table: 1902
cur table: 1957
epoch: 1000
next table: 1920
cur table: 1902
epoch: 1000
next table: 1938
cur table: 1920
epoch: 1000
next table: 1964
cur table: 1938
epoch: 1000
next table: 1901
cur table: 1964
epoch: 1000
next table: 1974
cur table: 1901
epoch: 1000
next table: 1884
cur table: 1974
epoch: 1000
next table: 1912
cur table: 1884
epoch: 1000
next table: 1912
cur table: 1912
epoch: 1000
next table: 1894
cur table: 1912
epoch: 1000
next table: 1921
cur table: 1894
epoch: 1000
next table: 1912
cur table: 1921
epoch: 1000
next table: 1969
cur table: 1912
epoch: 1000
next table: 3372
cur table: 2311
epoch: 1000
next table: 1945
cur table: 1969
epoch: 1000
next table: 1961
cur table: 1945
epoch: 1000
next table: 1937
cur table: 1961
epoch: 1000
next table: 1924
cur table: 1937
epoch: 1000
next table: 1977
cur table: 1924
epoch: 1000
next table: 1935
cur table: 1977
epoch: 1000
next table: 1971
cur table: 1935
epoch: 1000
next table: 1851
cur table: 1971
epoch: 1000
next table: 1846
cur table: 1851
epoch: 1000
next table: 1866
cur table: 1846
epoch: 1000
next table: 1958
cur table: 1866
epoch: 1000
next table: 1937
cur table: 1958
epoch: 1000
next table: 1916
cur table: 1937
epoch: 1000
next table: 1918
cur table: 1916
epoch: 1000
next table: 1925
cur table: 1918
epoch: 1000
next table: 1860
cur table: 1925
epoch: 1000
next table: 1816
cur table: 1860
epoch: 1000
next table: 1766
cur table: 1816
epoch: 1000
next table: 1932
cur table: 1766
epoch: 1000
next table: 1925
cur table: 1932
epoch: 1000
next table: 1763
cur table: 1925
epoch: 1000
next table: 1877
cur table: 1763
epoch: 1000
next table: 1837
cur table: 1877
epoch: 1000
next table: 2035
cur table: 1837
epoch: 1000
next table: 3570
cur table: 3372
epoch: 1000
next table: 3456
cur table: 2035
epoch: 1000
next table: 2003
cur table: 3456
epoch: 1000
next table: 2750
cur table: 3570
epoch: 1000
next table: 1900
cur table: 2003
epoch: 1000
next table: 1716
cur table: 1900
epoch: 1000
next table: 1724
cur table: 1716
epoch: 1000
next table: 1663
cur table: 1724
epoch: 1000
next table: 2703
cur table: 2750
epoch: 1000
next table: 1446
cur table: 1663
epoch: 1000
next table: 1405
cur table: 1446
epoch: 1000
next table: 1459
cur table: 1405
epoch: 1000
next table: 1435
cur table: 1459
epoch: 1000
next table: 1435
cur table: 1435
epoch: 1000
next table: 1501
cur table: 1435
epoch: 1000
next table: 1483
cur table: 1501
epoch: 1000
next table: 1427
cur table: 1483
epoch: 1000
next table: 3018
cur table: 2703
epoch: 1000
next table: 1448
cur table: 1427
epoch: 1000
next table: 1495
cur table: 1448
epoch: 1000
next table: 1466
cur table: 1495
epoch: 1000
next table: 1528
cur table: 1466
epoch: 1000
next table: 1441
cur table: 1528
epoch: 1000
next table: 1481
cur table: 1441
epoch: 1000
next table: 2833
cur table: 3018
epoch: 1000
next table: 1466
cur table: 1481
epoch: 1000
next table: 1474
cur table: 1466
epoch: 1000
next table: 1491
cur table: 1474
epoch: 1000
next table: 1609
cur table: 1491
epoch: 1000
next table: 1660
cur table: 1609
epoch: 1000
next table: 2835
cur table: 2833
epoch: 1000
next table: 1629
cur table: 1660
epoch: 1000
next table: 1558
cur table: 1629
epoch: 1000
next table: 1966
cur table: 1558
epoch: 1000
next table: 1751
cur table: 1966
epoch: 1000
next table: 1648
cur table: 1751
epoch: 1000
next table: 1684
cur table: 1648
epoch: 1000
next table: 1800
cur table: 1684
epoch: 1000
next table: 1793
cur table: 1800
epoch: 1000
next table: 1753
cur table: 1793
epoch: 1000
next table: 1724
cur table: 1753
epoch: 1000
next table: 2469
cur table: 1724
epoch: 1000
next table: 2001
cur table: 2469
epoch: 1000
next table: 2575
cur table: 2001
epoch: 1000
next table: 1458
cur table: 2575
epoch: 1000
next table: 2006
cur table: 1458
epoch: 1000
next table: 3199
cur table: 2006
epoch: 1000
next table: 6145
cur table: 2835
epoch: 1000
next table: 2792
cur table: 3199
epoch: 1000
next table: 2442
cur table: 2792
epoch: 1000
next table: 2857
cur table: 2442
epoch: 1000
next table: 2896
cur table: 2857
epoch: 1000
next table: 2899
cur table: 2896
epoch: 1000
next table: 2838
cur table: 2899
epoch: 1000
next table: 2823
cur table: 2838
epoch: 1000
next table: 3037
cur table: 2823
epoch: 1000
next table: 2990
cur table: 3037
epoch: 1000
next table: 2963
cur table: 2990
epoch: 1000
next table: 2900
cur table: 2963
epoch: 1000
next table: 2976
cur table: 2900
epoch: 1000
next table: 2847
cur table: 2976
epoch: 1000
next table: 2842
cur table: 2847
epoch: 1000
next table: 2898
cur table: 2842
epoch: 1000
next table: 2629
cur table: 2898
epoch: 1000
next table: 3020
cur table: 2629
epoch: 1000
next table: 2971
cur table: 3020
epoch: 1000
next table: 2928
cur table: 2971
epoch: 1000
next table: 2895
cur table: 2928
epoch: 1000
next table: 2986
cur table: 2895
epoch: 1000
next table: 2870
cur table: 2986
epoch: 1000
next table: 2948
cur table: 2870
epoch: 1000
next table: 2933
cur table: 2948
epoch: 1000
next table: 2934
cur table: 2933
epoch: 1000
next table: 2838
cur table: 2934
epoch: 1000
next table: 2891
cur table: 2838
epoch: 1000
next table: 2780
cur table: 2891
epoch: 1000
next table: 2923
cur table: 2780
epoch: 1000
next table: 2847
cur table: 2923
epoch: 1000
next table: 2838
cur table: 2847
epoch: 1000
next table: 2949
cur table: 2838
epoch: 1000
next table: 2902
cur table: 2949
Heartbeat CPU 0 instructions: 100000000 cycles: 146474678 heartbeat IPC: 0.340983 cumulative IPC: 0.383657 (Simulation time: 1 hr 0 min 2 sec) 
Finished CPU 0 instructions: 50000003 cycles: 130324611 cumulative IPC: 0.383657 (Simulation time: 1 hr 0 min 2 sec) 

ChampSim completed all CPUs

Region of Interest Statistics

CPU 0 cumulative IPC: 0.383657 instructions: 50000003 cycles: 130324611
ITLB TOTAL     ACCESS:    7804263  HIT:    7804253  MISS:         10  HIT %:    99.9999  MISS %: 0.000128135   MPKI: 0.0002
ITLB LOAD TRANSLATION ACCESS:    7804263  HIT:    7804253  MISS:         10  HIT %:    99.9999  MISS %: 0.000128135   MPKI: 0.0002
ITLB PREFETCH  REQUESTED:          0  ISSUED:          0  USEFUL:          0  USELESS:          0
ITLB USEFUL LOAD PREFETCHES:          0 PREFETCH ISSUED TO LOWER LEVEL:          0  ACCURACY: -nan
ITLB TIMELY PREFETCHES:          0 LATE PREFETCHES: 0 DROPPED PREFETCHES: 0
ITLB PREFETCHES SAME FILL-ORIGIN LEVEL: 0 DIFFERENT FILL-ORIGIN LEVEL: 0
ITLB AVERAGE MISS LATENCY: 273.4 cycles
ITLB RQ	ACCESS:    8403857	FORWARD:          0	MERGED:     599590	TO_CACHE:    7804267

Revised Interactions: positive negative neutral
ITLB_interactions 0 0 0 -nan -nan -nan
DTLB TOTAL     ACCESS:   14455216  HIT:   14429620  MISS:      25596  HIT %:    99.8229  MISS %:   0.177071   MPKI: 0.51192
DTLB LOAD TRANSLATION ACCESS:   14455216  HIT:   14429620  MISS:      25596  HIT %:    99.8229  MISS %:   0.177071   MPKI: 0.51192
DTLB PREFETCH  REQUESTED:          0  ISSUED:          0  USEFUL:          0  USELESS:          0
DTLB USEFUL LOAD PREFETCHES:          0 PREFETCH ISSUED TO LOWER LEVEL:          0  ACCURACY: -nan
DTLB TIMELY PREFETCHES:          0 LATE PREFETCHES: 0 DROPPED PREFETCHES: 0
DTLB PREFETCHES SAME FILL-ORIGIN LEVEL: 0 DIFFERENT FILL-ORIGIN LEVEL: 0
DTLB AVERAGE MISS LATENCY: 70.7819 cycles
DTLB RQ	ACCESS:   14725225	FORWARD:          0	MERGED:     269633	TO_CACHE:   14455592

Revised Interactions: positive negative neutral
DTLB_interactions 0 0 0 -nan -nan -nan
STLB TOTAL     ACCESS:      25606  HIT:       6689  MISS:      18917  HIT %:    26.1228  MISS %:    73.8772   MPKI: 0.37834
STLB LOAD TRANSLATION ACCESS:      25606  HIT:       6689  MISS:      18917  HIT %:    26.1228  MISS %:    73.8772   MPKI: 0.37834
STLB PREFETCH  REQUESTED:          0  ISSUED:          0  USEFUL:          0  USELESS:          0
STLB USEFUL LOAD PREFETCHES:          0 PREFETCH ISSUED TO LOWER LEVEL:          0  ACCURACY: -nan
STLB TIMELY PREFETCHES:          0 LATE PREFETCHES: 0 DROPPED PREFETCHES: 0
STLB PREFETCHES SAME FILL-ORIGIN LEVEL: 0 DIFFERENT FILL-ORIGIN LEVEL: 0
STLB AVERAGE MISS LATENCY: 83.7275 cycles
STLB RQ	ACCESS:      25606	FORWARD:          0	MERGED:          0	TO_CACHE:      25606

Revised Interactions: positive negative neutral
STLB_interactions 0 0 0 -nan -nan -nan
STLB Hit, L1D data hit: 0
STLB Hit, L2C data hit: 0
STLB Hit, LLC data hit: 0
STLB Hit, LLC data miss: 0
STLB STLB hints to L2: 0
L1D TOTAL     ACCESS:   14642607  HIT:   13710793  MISS:     931814  HIT %:    93.6363  MISS %:    6.36372   MPKI: 18.6363
L1D LOAD      ACCESS:    9856909  HIT:    8927586  MISS:     929323  HIT %:    90.5719  MISS %:    9.42814   MPKI: 18.5865
L1D RFO       ACCESS:    4785698  HIT:    4783207  MISS:       2491  HIT %:    99.9479  MISS %:  0.0520509   MPKI: 0.04982
L1D PREFETCH  REQUESTED:          0  ISSUED:          0  USEFUL:          0  USELESS:          0
L1D USEFUL LOAD PREFETCHES:          0 PREFETCH ISSUED TO LOWER LEVEL:          0  ACCURACY: -nan
L1D TIMELY PREFETCHES:          0 LATE PREFETCHES: 0 DROPPED PREFETCHES: 0
L1D PREFETCHES SAME FILL-ORIGIN LEVEL: 0 DIFFERENT FILL-ORIGIN LEVEL: 0
L1D AVERAGE MISS LATENCY: 20.2966 cycles
L1D RQ	ACCESS:   13241093	FORWARD:          0	MERGED:    3299155	TO_CACHE:    9933527
L1D WQ	ACCESS:    5368851	FORWARD:       8411	MERGED:     577153	TO_CACHE:    4791698

Revised Interactions: positive negative neutral
L1D_interactions 0 0 0 -nan -nan -nan
L1D UNIQUE REGIONS ACCESSED: 0
L1D REGIONS CONFLICTS: 0
L1D Cross Page Prefetch Requests: 0
L1D Same Page Prefetch Requests: 0
L1D ROI Sum of L1D PQ occupancy: 0
L1D PREFETCHES PUSHED FROM L2C: 0
L1I TOTAL     ACCESS:    8403846  HIT:    8403757  MISS:         89  HIT %:    99.9989  MISS %: 0.00105904   MPKI: 0.00178
L1I LOAD      ACCESS:    8403846  HIT:    8403757  MISS:         89  HIT %:    99.9989  MISS %: 0.00105904   MPKI: 0.00178
L1I PREFETCH  REQUESTED:          0  ISSUED:          0  USEFUL:          0  USELESS:          0
L1I USEFUL LOAD PREFETCHES:          0 PREFETCH ISSUED TO LOWER LEVEL:          0  ACCURACY: -nan
L1I TIMELY PREFETCHES:          0 LATE PREFETCHES: 0 DROPPED PREFETCHES: 0
L1I PREFETCHES SAME FILL-ORIGIN LEVEL: 0 DIFFERENT FILL-ORIGIN LEVEL: 0
L1I AVERAGE MISS LATENCY: 198.326 cycles
L1I RQ	ACCESS:   14092889	FORWARD:          0	MERGED:    5689032	TO_CACHE:    8403857

Revised Interactions: positive negative neutral
L1I_interactions 0 0 0 -nan -nan -nan
BTB TOTAL     ACCESS:    9291543  HIT:    9274272  MISS:      17271  HIT %:    99.8141  MISS %:   0.185879   MPKI: 0.34542
BTB BRANCH_DIRECT_JUMP	ACCESS:    1184498  HIT:    1184423  MISS:         75
BTB BRANCH_INDIRECT	ACCESS:          0  HIT:          0  MISS:          0
BTB BRANCH_CONDITIONAL	ACCESS:    6903434  HIT:    6903266  MISS:        168
BTB BRANCH_DIRECT_CALL	ACCESS:     601785  HIT:     601743  MISS:         42
BTB BRANCH_INDIRECT_CALL	ACCESS:         21  HIT:         20  MISS:          1
BTB BRANCH_RETURN	ACCESS:     601805  HIT:     584820  MISS:      16985
BTB BRANCH_OTHER ACCESS:          0  HIT:          0  MISS:          0

L2C TOTAL     ACCESS:    1557779  HIT:     925988  MISS:     631791  HIT %:    59.4428  MISS %:    40.5572   MPKI: 12.6358
L2C LOAD      ACCESS:     929412  HIT:     883483  MISS:      45929  HIT %:    95.0583  MISS %:    4.94173   MPKI: 0.91858
L2C DATA LOAD MPKI: 0.9168
L2C INSTRUCTION LOAD MPKI: 0.00178
L2C RFO       ACCESS:       2491  HIT:        188  MISS:       2303  HIT %:    7.54717  MISS %:    92.4528   MPKI: 0.04606
L2C PREFETCH  ACCESS:     592830  HIT:      18018  MISS:     574812  HIT %:    3.03932  MISS %:    96.9607   MPKI: 11.4962
L2C DATA PREFETCH MPKI: 11.4962
L2C INSTRUCTION PREFETCH MPKI: 0
L2C WRITEBACK ACCESS:      12540  HIT:      12261  MISS:        279  HIT %:    97.7751  MISS %:    2.22488   MPKI: 0.00558
L2C LOAD TRANSLATION ACCESS:      20506  HIT:      12038  MISS:       8468  HIT %:    58.7048  MISS %:    41.2952   MPKI: 0.16936
L2C PREFETCH  REQUESTED:     594771  ISSUED:     594771  USEFUL:     505988  USELESS:      68659
L2C USEFUL LOAD PREFETCHES:     505988 PREFETCH ISSUED TO LOWER LEVEL:     575746  ACCURACY: 87.8839
L2C TIMELY PREFETCHES:     505988 LATE PREFETCHES: 934 DROPPED PREFETCHES: 0
L2C PREFETCHES SAME FILL-ORIGIN LEVEL: 575746 DIFFERENT FILL-ORIGIN LEVEL: 0
L2C AVERAGE MISS LATENCY: 121.452 cycles
L2C RQ	ACCESS:     952409	FORWARD:          0	MERGED:          0	TO_CACHE:     952409
L2C WQ	ACCESS:      12540	FORWARD:          0	MERGED:          0	TO_CACHE:      12540
L2C PQ	ACCESS:     594771	FORWARD:          0	MERGED:          0	TO_CACHE:     594771

Revised Interactions: positive negative neutral
L2C_interactions 503830 70041 8871 86.4585 12.0192 1.52229
L2C Instructions Evicting Data 88
L2C Translations Evicting Data 8315
L2C Data Evicting Data 614596
L2C Instructions Evicting Instructions 0
L2C Translations Evicting Instructions 2
L2C Data Evicting Instructions 85
L2C Instructions Evicting Translations 1
L2C Translations Evicting Translations 151
L2C Data Evicting Translations 8274
L2C Dense regions hint from L2: 0
PSCL5 TOTAL     ACCESS:      18917  HIT:      18917  MISS:          0  HIT %:        100  MISS %:          0   MPKI: 0
PSCL5 LOAD TRANSLATION ACCESS:      18917  HIT:      18917  MISS:          0  HIT %:        100  MISS %:          0   MPKI: 0
PSCL5 PREFETCH  REQUESTED:          0  ISSUED:          0  USEFUL:          0  USELESS:          0
PSCL5 USEFUL LOAD PREFETCHES:          0 PREFETCH ISSUED TO LOWER LEVEL:          0  ACCURACY: -nan
PSCL5 TIMELY PREFETCHES:          0 LATE PREFETCHES: 0 DROPPED PREFETCHES: 0
PSCL5 PREFETCHES SAME FILL-ORIGIN LEVEL: 0 DIFFERENT FILL-ORIGIN LEVEL: 0

Revised Interactions: positive negative neutral
PSCL5_interactions 0 0 0 -nan -nan -nan
PSCL4 TOTAL     ACCESS:      18917  HIT:      18917  MISS:          0  HIT %:        100  MISS %:          0   MPKI: 0
PSCL4 LOAD TRANSLATION ACCESS:      18917  HIT:      18917  MISS:          0  HIT %:        100  MISS %:          0   MPKI: 0
PSCL4 PREFETCH  REQUESTED:          0  ISSUED:          0  USEFUL:          0  USELESS:          0
PSCL4 USEFUL LOAD PREFETCHES:          0 PREFETCH ISSUED TO LOWER LEVEL:          0  ACCURACY: -nan
PSCL4 TIMELY PREFETCHES:          0 LATE PREFETCHES: 0 DROPPED PREFETCHES: 0
PSCL4 PREFETCHES SAME FILL-ORIGIN LEVEL: 0 DIFFERENT FILL-ORIGIN LEVEL: 0

Revised Interactions: positive negative neutral
PSCL4_interactions 0 0 0 -nan -nan -nan
PSCL3 TOTAL     ACCESS:      18917  HIT:      18917  MISS:          0  HIT %:        100  MISS %:          0   MPKI: 0
PSCL3 LOAD TRANSLATION ACCESS:      18917  HIT:      18917  MISS:          0  HIT %:        100  MISS %:          0   MPKI: 0
PSCL3 PREFETCH  REQUESTED:          0  ISSUED:          0  USEFUL:          0  USELESS:          0
PSCL3 USEFUL LOAD PREFETCHES:          0 PREFETCH ISSUED TO LOWER LEVEL:          0  ACCURACY: -nan
PSCL3 TIMELY PREFETCHES:          0 LATE PREFETCHES: 0 DROPPED PREFETCHES: 0
PSCL3 PREFETCHES SAME FILL-ORIGIN LEVEL: 0 DIFFERENT FILL-ORIGIN LEVEL: 0

Revised Interactions: positive negative neutral
PSCL3_interactions 0 0 0 -nan -nan -nan
PSCL2 TOTAL     ACCESS:      18917  HIT:      17307  MISS:       1610  HIT %:    91.4891  MISS %:    8.51086   MPKI: 0.0322
PSCL2 LOAD TRANSLATION ACCESS:      18917  HIT:      17307  MISS:       1610  HIT %:    91.4891  MISS %:    8.51086   MPKI: 0.0322
PSCL2 PREFETCH  REQUESTED:          0  ISSUED:          0  USEFUL:          0  USELESS:          0
PSCL2 USEFUL LOAD PREFETCHES:          0 PREFETCH ISSUED TO LOWER LEVEL:          0  ACCURACY: -nan
PSCL2 TIMELY PREFETCHES:          0 LATE PREFETCHES: 0 DROPPED PREFETCHES: 0
PSCL2 PREFETCHES SAME FILL-ORIGIN LEVEL: 0 DIFFERENT FILL-ORIGIN LEVEL: 0

Revised Interactions: positive negative neutral
PSCL2_interactions 0 0 0 -nan -nan -nan
LLC TOTAL     ACCESS:     639913  HIT:      79683  MISS:     560230  HIT %:    12.4522  MISS %:    87.5478   MPKI: 11.2046
LLC LOAD      ACCESS:      44995  HIT:      15089  MISS:      29906  HIT %:    33.5348  MISS %:    66.4652   MPKI: 0.59812
LLC RFO       ACCESS:       2303  HIT:         28  MISS:       2275  HIT %:    1.21581  MISS %:    98.7842   MPKI: 0.0455
LLC PREFETCH  ACCESS:     575746  HIT:      55653  MISS:     520093  HIT %:    9.66624  MISS %:    90.3338   MPKI: 10.4019
LLC WRITEBACK ACCESS:       8401  HIT:       4455  MISS:       3946  HIT %:    53.0294  MISS %:    46.9706   MPKI: 0.07892
LLC LOAD TRANSLATION ACCESS:       8468  HIT:       4458  MISS:       4010  HIT %:    52.6453  MISS %:    47.3547   MPKI: 0.0802
LLC PREFETCH  REQUESTED:          0  ISSUED:          0  USEFUL:        203  USELESS:       9172
LLC USEFUL LOAD PREFETCHES:        203 PREFETCH ISSUED TO LOWER LEVEL:     520093  ACCURACY: 0.0390315
LLC TIMELY PREFETCHES:        203 LATE PREFETCHES: 0 DROPPED PREFETCHES: 0
LLC PREFETCHES SAME FILL-ORIGIN LEVEL: 0 DIFFERENT FILL-ORIGIN LEVEL: 0
LLC AVERAGE MISS LATENCY: 103.235 cycles
LLC RQ	ACCESS:      55766	FORWARD:          0	MERGED:          0	TO_CACHE:      55766
LLC WQ	ACCESS:       8401	FORWARD:          0	MERGED:          0	TO_CACHE:       8401
LLC PQ	ACCESS:     575746	FORWARD:          0	MERGED:          0	TO_CACHE:     575746

Revised Interactions: positive negative neutral
LLC_interactions 280 6 5977 4.4707 0.0958007 95.4335
LLC Dense regions hint to LLC: 0

RAW hits: 25700
Loads Generated: 13266793
Loads sent to L1D: 13241093
Stores Generated: 5368850
Stores sent to L1D: 5368851
Major fault: 0 Minor fault: 8936
Allocated PAGES: 8936
[Bingo] PHT Access: 33800
[Bingo] PHT Hit PC+Addr: 4552
[Bingo] PHT Hit PC+Offs: 25922
[Bingo] PHT Miss: 3326
[Bingo] Prefetch PC+Addr: 0
[Bingo] Prefetch PC+Offs: 0
[Bingo] Useful PC+Addr: 0
[Bingo] Useful PC+Offs: 0
[Bingo] Useless PC+Addr: 0
[Bingo] Useless PC+Offs: 0
[Bingo] L1 Prefetch per Region: 0
[Bingo] L2 Prefetch per Region: 20.6198
[Bingo] L3 Prefetch per Region: 0
[Bingo] No Prefetch per Region: 11.3802
[Bingo] Number of Voters Mean: 13.391
[Bingo] Number of Voters SD: 12.6774
PHT read accesses: 403193
PHT write accesses: 26068
AT read accesses: 897724
AT write accesses: 915538
FT read accesses: 95078
FT write accesses: 33800
PS read accesses: 78854
PS write accesses: 30474
PHT tag read accesses: 1243725
PHT tag write accesses: 30620
AT tag read accesses: 26166553
AT tag write accesses: 923790
FT tag read accesses: 12320409
FT tag write accesses: 96761
PS tag read accesses: 16074521
PS tag write accesses: 109023

DRAM Statistics
 CHANNEL 0
 RQ ROW_BUFFER_HIT:     505556  ROW_BUFFER_MISS:      50727
 DBUS_CONGESTED:         89
 WQ ROW_BUFFER_HIT:        591  ROW_BUFFER_MISS:       4102  FULL:          0

 AVG_CONGESTED_CYCLE: 2
 All warmup complete: 2
Channel 0 Bank busy for read cycles: 0
Channel 0 Bank busy for write cycles: 0
Channel 0
Rank 0
0banks busy for read cycles: 122003248
0banks busy for write cycles: 3214
1banks busy for read cycles: 2802325
1banks busy for write cycles: 541747
2banks busy for read cycles: 578656
2banks busy for write cycles: 99841
3banks busy for read cycles: 340819
3banks busy for write cycles: 35883
4banks busy for read cycles: 261417
4banks busy for write cycles: 14670
5banks busy for read cycles: 228300
5banks busy for write cycles: 6560
6banks busy for read cycles: 211293
6banks busy for write cycles: 4332
7banks busy for read cycles: 1014738
7banks busy for write cycles: 3543
8banks busy for read cycles: 2168524
8banks busy for write cycles: 5502

CPU 0 Branch Prediction Accuracy: 95.0334% MPKI: 12.0195 Average ROB Occupancy at Mispredict: 57.8211
Branch types
NOT_BRANCH: 37899452 75.7989%
BRANCH_DIRECT_JUMP: 1184498 2.369%
BRANCH_INDIRECT: 0 0%
BRANCH_CONDITIONAL: 9712129 19.4243%
BRANCH_DIRECT_CALL: 601785 1.20357%
BRANCH_INDIRECT_CALL: 21 4.2e-05%
BRANCH_RETURN: 601805 1.20361%
BRANCH_OTHER: 0 0%

@sumon_overall_L1D         0         0         0         0         0         0         0
@Sumon_Early_by_class_L1D         0         0         0         0
@Sumon_Late_by_class_L1D         0         0         0         0

@Sumon_Early_by_cycle_L1D         0         0         0         0         0         0         0         0         0         0         0         0
@Sumon_Late_by_cycle_L1D         0         0         0         0         0         0
@Sumon_Early_stream_L1D         0         0         0         0         0         0         0         0         0         0         0         0
@Sumon_Early_CS_L1D         0         0         0         0         0         0         0         0         0         0         0         0
@Sumon_Early_CPLX_L1D         0         0         0         0         0         0         0         0         0         0         0         0
@Sumon_Late_stream_L1D         0         0         0         0         0         0
@Sumon_Late_CS_L1D         0         0         0         0         0         0
@Sumon_Late_CPLX_L1D         0         0         0         0         0         0
@sumon_overall_L2C    505988       934         0     68659    574812    594771    594771
@Sumon_Early_by_class_L2C         0         0         0         0
@Sumon_Late_by_class_L2C         0         0         0         0

@Sumon_Early_by_cycle_L2C     10738     27878     48405     49606     37979     62528     96813    155724      3110      2028      3493      7686
@Sumon_Late_by_cycle_L2C        42       121       304       327       140         0
@Sumon_Early_stream_L2C         0         0         0         0         0         0         0         0         0         0         0         0
@Sumon_Early_CS_L2C         0         0         0         0         0         0         0         0         0         0         0         0
@Sumon_Early_CPLX_L2C         0         0         0         0         0         0         0         0         0         0         0         0
@Sumon_Late_stream_L2C         0         0         0         0         0         0
@Sumon_Late_CS_L2C         0         0         0         0         0         0
@Sumon_Late_CPLX_L2C         0         0         0         0         0         0
DRAM PAGES: 1048576
Allocated PAGES: 8936
