
*** ChampSim Multicore Out-of-Order Simulator ***

Warmup Instructions: 50000000
Simulation Instructions: 50000000
Number of CPUs: 1
LLC sets: 2048
LLC ways: 16
Off-chip DRAM Size: 4096 MB Channels: 1 Width: 64-bit Data Rate: 6400 MT/s
CPU 0 runs ../../biswa/SPEC2017Traces/605.mcf_s-782B.champsimtrace.xz
.xz
CPU 0 Bimodal branch predictor
BTB has LRU replacement policy
ITLB has LRU replacement policy
DTLB has LRU replacement policy
STLB has LRU replacement policy
L1I has LRU replacement policy
L1D has LRU replacement policy
Bingo PHT WAYS: 16 and PHT_SIZE: 16384
Initialize DRRIP state for L2C
epoch: 1000
next table: 2529
cur table: 8847
epoch: 1000
next table: 2042
cur table: 2529
epoch: 1000
next table: 1884
cur table: 2042
epoch: 1000
next table: 1833
cur table: 1884
epoch: 1000
next table: 1774
cur table: 1833
epoch: 1000
next table: 1779
cur table: 1774
epoch: 1000
next table: 1826
cur table: 1779
epoch: 1000
next table: 1672
cur table: 1826
epoch: 1000
next table: 1713
cur table: 1672
epoch: 1000
next table: 1759
cur table: 1713
epoch: 1000
next table: 1769
cur table: 1759
epoch: 1000
next table: 1785
cur table: 1769
epoch: 1000
next table: 1744
cur table: 1785
epoch: 1000
next table: 1791
cur table: 1744
epoch: 1000
next table: 1844
cur table: 1791
epoch: 1000
next table: 1926
cur table: 1844
epoch: 1000
next table: 1848
cur table: 1926
epoch: 1000
next table: 1792
cur table: 1848
epoch: 1000
next table: 1775
cur table: 1792
epoch: 1000
next table: 1828
cur table: 1775
epoch: 1000
next table: 1783
cur table: 1828
epoch: 1000
next table: 1811
cur table: 1783
epoch: 1000
next table: 1814
cur table: 1811
epoch: 1000
next table: 1697
cur table: 1814
epoch: 1000
next table: 1743
cur table: 1697
epoch: 1000
next table: 1793
cur table: 1743
epoch: 1000
next table: 1798
cur table: 1793
epoch: 1000
next table: 1764
cur table: 1798
epoch: 1000
next table: 1800
cur table: 1764
epoch: 1000
next table: 1785
cur table: 1800
epoch: 1000
next table: 1916
cur table: 1785
epoch: 1000
next table: 3843
cur table: 21985
epoch: 1000
next table: 1954
cur table: 1916
epoch: 1000
next table: 1809
cur table: 1954
epoch: 1000
next table: 1783
cur table: 1809
epoch: 1000
next table: 3230
cur table: 3843
epoch: 1000
next table: 1789
cur table: 1783
epoch: 1000
next table: 1830
cur table: 1789
epoch: 1000
next table: 1817
cur table: 1830
epoch: 1000
next table: 1817
cur table: 1817
epoch: 1000
next table: 2885
cur table: 3230
epoch: 1000
next table: 1772
cur table: 1817
epoch: 1000
next table: 1731
cur table: 1772
epoch: 1000
next table: 2329
cur table: 2885
epoch: 1000
next table: 1768
cur table: 1731
epoch: 1000
next table: 1833
cur table: 1768
epoch: 1000
next table: 1821
cur table: 1833
epoch: 1000
next table: 2241
cur table: 2329
epoch: 1000
next table: 1776
cur table: 1821
epoch: 1000
next table: 1816
cur table: 1776
epoch: 1000
next table: 2195
cur table: 2241
epoch: 1000
next table: 1825
cur table: 1816
epoch: 1000
next table: 2016
cur table: 1825
epoch: 1000
next table: 2643
cur table: 2195
epoch: 1000
next table: 1890
cur table: 2016
epoch: 1000
next table: 1847
cur table: 1890
epoch: 1000
next table: 1794
cur table: 1847
epoch: 1000
next table: 2282
cur table: 2643
epoch: 1000
next table: 1840
cur table: 1794
epoch: 1000
next table: 2109
cur table: 2282
epoch: 1000
next table: 1830
cur table: 1840
epoch: 1000
next table: 1812
cur table: 1830
epoch: 1000
next table: 1805
cur table: 1812
epoch: 1000
next table: 2283
cur table: 2109
epoch: 1000
next table: 1705
cur table: 1805
epoch: 1000
next table: 1778
cur table: 1705
epoch: 1000
next table: 1951
cur table: 2283
epoch: 1000
next table: 1789
cur table: 1778
epoch: 1000
next table: 1838
cur table: 1789
epoch: 1000
next table: 1880
cur table: 1951
epoch: 1000
next table: 1801
cur table: 1838
epoch: 1000
next table: 1818
cur table: 1801
epoch: 1000
next table: 2060
cur table: 1880
epoch: 1000
next table: 1854
cur table: 1818
epoch: 1000
next table: 2338
cur table: 2060
epoch: 1000
next table: 2016
cur table: 1854
epoch: 1000
next table: 1909
cur table: 2016
epoch: 1000
next table: 2167
cur table: 2338
epoch: 1000
next table: 1835
cur table: 1909
epoch: 1000
next table: 1792
cur table: 1835
epoch: 1000
next table: 2016
cur table: 2167
epoch: 1000
next table: 1870
cur table: 1792
epoch: 1000
next table: 1844
cur table: 1870
epoch: 1000
next table: 2180
cur table: 2016
epoch: 1000
next table: 1811
cur table: 1844
epoch: 1000
next table: 1839
cur table: 1811
epoch: 1000
next table: 2113
cur table: 2180
epoch: 1000
next table: 1744
cur table: 1839
epoch: 1000
next table: 1827
cur table: 1744
epoch: 1000
next table: 1888
cur table: 2113
epoch: 1000
next table: 1816
cur table: 1827
epoch: 1000
next table: 1846
cur table: 1816
epoch: 1000
next table: 1776
cur table: 1846
epoch: 1000
next table: 2576
cur table: 1888
epoch: 1000
next table: 1844
cur table: 1776
epoch: 1000
next table: 1859
cur table: 1844
epoch: 1000
next table: 2015
cur table: 1859
epoch: 1000
next table: 2739
cur table: 2576
epoch: 1000
next table: 1911
cur table: 2015
epoch: 1000
next table: 1816
cur table: 1911
epoch: 1000
next table: 1818
cur table: 1816
epoch: 1000
next table: 2696
cur table: 2739
epoch: 1000
next table: 1868
cur table: 1818
epoch: 1000
next table: 1832
cur table: 1868
epoch: 1000
next table: 1808
cur table: 1832
epoch: 1000
next table: 2976
cur table: 2696
epoch: 1000
next table: 1855
cur table: 1808
epoch: 1000
next table: 1749
cur table: 1855
epoch: 1000
next table: 1790
cur table: 1749
epoch: 1000
next table: 2543
cur table: 2976
epoch: 1000
next table: 1822
cur table: 1790
epoch: 1000
next table: 1846
cur table: 1822
epoch: 1000
next table: 1809
cur table: 1846
epoch: 1000
next table: 1813
cur table: 1809
epoch: 1000
next table: 2649
cur table: 2543
epoch: 1000
next table: 1893
cur table: 1813
epoch: 1000
next table: 2002
cur table: 1893
epoch: 1000
next table: 2848
cur table: 2649
epoch: 1000
next table: 1869
cur table: 2002
epoch: 1000
next table: 1837
cur table: 1869
epoch: 1000
next table: 1827
cur table: 1837
epoch: 1000
next table: 2611
cur table: 2848
epoch: 1000
next table: 1863
cur table: 1827
epoch: 1000
next table: 1831
cur table: 1863
epoch: 1000
next table: 1821
cur table: 1831
epoch: 1000
next table: 2794
cur table: 2611
epoch: 1000
next table: 1846
cur table: 1821
epoch: 1000
next table: 1756
cur table: 1846
epoch: 1000
next table: 1809
cur table: 1756
epoch: 1000
next table: 2206
cur table: 2794
epoch: 1000
next table: 1847
cur table: 1809
epoch: 1000
next table: 1862
cur table: 1847
epoch: 1000
next table: 2275
cur table: 2206
epoch: 1000
next table: 1809
cur table: 1862
epoch: 1000
next table: 1848
cur table: 1809
epoch: 1000
next table: 2381
cur table: 2275
epoch: 1000
next table: 1909
cur table: 1848
epoch: 1000
next table: 2024
cur table: 1909
epoch: 1000
next table: 2491
cur table: 2381
epoch: 1000
next table: 1867
cur table: 2024
epoch: 1000
next table: 1815
cur table: 1867
epoch: 1000
next table: 1864
cur table: 1815
epoch: 1000
next table: 2160
cur table: 2491
epoch: 1000
next table: 1835
cur table: 1864
epoch: 1000
next table: 1864
cur table: 1835
epoch: 1000
next table: 2385
cur table: 2160
epoch: 1000
next table: 1843
cur table: 1864
epoch: 1000
next table: 1940
cur table: 1843
epoch: 1000
next table: 2183
cur table: 2385
epoch: 1000
next table: 1786
cur table: 1940
epoch: 1000
next table: 1798
cur table: 1786
epoch: 1000
next table: 2055
cur table: 2183
epoch: 1000
next table: 1818
cur table: 1798
epoch: 1000
next table: 1849
cur table: 1818
epoch: 1000
next table: 2083
cur table: 2055
epoch: 1000
next table: 1797
cur table: 1849
epoch: 1000
next table: 1844
cur table: 1797
epoch: 1000
next table: 1857
cur table: 1844
epoch: 1000
next table: 2506
cur table: 2083
epoch: 1000
next table: 1995
cur table: 1857
epoch: 1000
next table: 1901
cur table: 1995
epoch: 1000
next table: 2638
cur table: 2506
epoch: 1000
next table: 1848
cur table: 1901
epoch: 1000
next table: 1837
cur table: 1848
epoch: 1000
next table: 1909
cur table: 1837
epoch: 1000
next table: 2426
cur table: 2638
epoch: 1000
next table: 1822
cur table: 1909
epoch: 1000
next table: 1789
cur table: 1822
epoch: 1000
next table: 2525
cur table: 2426
epoch: 1000
next table: 1864
cur table: 1789
epoch: 1000
next table: 1765
cur table: 1864
epoch: 1000
next table: 1837
cur table: 1765
epoch: 1000
next table: 2031
cur table: 2525
epoch: 1000
next table: 1851
cur table: 1837
epoch: 1000
next table: 1859
cur table: 1851
epoch: 1000
next table: 2204
cur table: 2031
epoch: 1000
next table: 1797
cur table: 1859
epoch: 1000
next table: 1858
cur table: 1797
epoch: 1000
next table: 2069
cur table: 2204
epoch: 1000
next table: 1896
cur table: 1858
epoch: 1000
next table: 2033
cur table: 1896
epoch: 1000
next table: 2452
cur table: 2069
epoch: 1000
next table: 1869
cur table: 2033
epoch: 1000
next table: 1864
cur table: 1869
epoch: 1000
next table: 2106
cur table: 2452
epoch: 1000
next table: 1866
cur table: 1864
epoch: 1000
next table: 1866
cur table: 1866
epoch: 1000
next table: 2149
cur table: 2106
epoch: 1000
next table: 1839
cur table: 1866
epoch: 1000
next table: 1849
cur table: 1839
epoch: 1000
next table: 2242
cur table: 2149
epoch: 1000
next table: 1759
cur table: 1849
epoch: 1000
next table: 1825
cur table: 1759
epoch: 1000
next table: 1951
cur table: 2242
epoch: 1000
next table: 1872
cur table: 1825
epoch: 1000
next table: 1856
cur table: 1872
epoch: 1000
next table: 1984
cur table: 1951
epoch: 1000
next table: 1846
cur table: 1856
epoch: 1000
next table: 1872
cur table: 1846
epoch: 1000
next table: 2293
cur table: 1984
epoch: 1000
next table: 1875
cur table: 1872
epoch: 1000
next table: 1990
cur table: 1875
epoch: 1000
next table: 2397
cur table: 2293
epoch: 1000
next table: 1945
cur table: 1990
epoch: 1000
next table: 1865
cur table: 1945
epoch: 1000
next table: 2133
cur table: 2397
epoch: 1000
next table: 1881
cur table: 1865
epoch: 1000
next table: 1887
cur table: 1881
epoch: 1000
next table: 1853
cur table: 1887
epoch: 1000
next table: 2802
cur table: 2133
epoch: 1000
next table: 1821
cur table: 1853
epoch: 1000
next table: 2038
cur table: 1821
epoch: 1000
next table: 1798
cur table: 2038
epoch: 1000
next table: 1843
cur table: 1798
epoch: 1000
next table: 1876
cur table: 1843
epoch: 1000
next table: 1901
cur table: 1876
epoch: 1000
next table: 3716
cur table: 2802
epoch: 1000
next table: 1867
cur table: 1901
epoch: 1000
next table: 1904
cur table: 1867
epoch: 1000
next table: 2498
cur table: 3716
epoch: 1000
next table: 1938
cur table: 1904
epoch: 1000
next table: 2052
cur table: 1938
epoch: 1000
next table: 2411
cur table: 2498
epoch: 1000
next table: 1950
cur table: 2052
epoch: 1000
next table: 1841
cur table: 1950
epoch: 1000
next table: 1889
cur table: 1841
epoch: 1000
next table: 2393
cur table: 2411
epoch: 1000
next table: 1868
cur table: 1889
epoch: 1000
next table: 1878
cur table: 1868
epoch: 1000
next table: 1943
cur table: 1878
epoch: 1000
next table: 1984
cur table: 1943
epoch: 1000
next table: 3376
cur table: 2393
epoch: 1000
next table: 1832
cur table: 1984
epoch: 1000
next table: 1856
cur table: 1832
epoch: 1000
next table: 1926
cur table: 3376
epoch: 1000
next table: 1868
cur table: 1856
epoch: 1000
next table: 1900
cur table: 1868
epoch: 1000
next table: 1973
cur table: 1926
epoch: 1000
next table: 1854
cur table: 1900
epoch: 1000
next table: 1943
cur table: 1973
epoch: 1000
next table: 1871
cur table: 1854
epoch: 1000
next table: 1973
cur table: 1871
epoch: 1000
next table: 2427
cur table: 1943
epoch: 1000
next table: 2003
cur table: 1973
epoch: 1000
next table: 1861
cur table: 2003
epoch: 1000
next table: 2022
cur table: 2427
epoch: 1000
next table: 1885
cur table: 1861
epoch: 1000
next table: 1880
cur table: 1885
epoch: 1000
next table: 2032
cur table: 2022
epoch: 1000
next table: 1854
cur table: 1880
epoch: 1000
next table: 1875
cur table: 1854
epoch: 1000
next table: 2335
cur table: 2032
epoch: 1000
next table: 2034
cur table: 1875
epoch: 1000
next table: 1808
cur table: 2034
epoch: 1000
next table: 1832
cur table: 2335
epoch: 1000
next table: 1827
cur table: 1808
epoch: 1000
next table: 1855
cur table: 1827
epoch: 1000
next table: 1892
cur table: 1832
epoch: 1000
next table: 1881
cur table: 1855
epoch: 1000
next table: 1888
cur table: 1881
epoch: 1000
next table: 1961
cur table: 1892
epoch: 1000
next table: 1870
cur table: 1888
epoch: 1000
next table: 1895
cur table: 1870
epoch: 1000
next table: 2063
cur table: 1961
epoch: 1000
next table: 1995
cur table: 1895
epoch: 1000
next table: 2288
cur table: 2063
epoch: 1000
next table: 1930
cur table: 1995
epoch: 1000
next table: 1892
cur table: 1930
epoch: 1000
next table: 2140
cur table: 2288
epoch: 1000
next table: 1841
cur table: 1892
epoch: 1000
next table: 1907
cur table: 1841
epoch: 1000
next table: 2066
cur table: 2140
epoch: 1000
next table: 1852
cur table: 1907
epoch: 1000
next table: 1790
cur table: 1852
epoch: 1000
next table: 2111
cur table: 2066
epoch: 1000
next table: 1847
cur table: 1790
epoch: 1000
next table: 1775
cur table: 1847
epoch: 1000
next table: 1820
cur table: 2111
epoch: 1000
next table: 1844
cur table: 1775
epoch: 1000
next table: 1836
cur table: 1844
epoch: 1000
next table: 1920
cur table: 1820
epoch: 1000
next table: 1833
cur table: 1836
epoch: 1000
next table: 1825
cur table: 1833
epoch: 1000
next table: 1912
cur table: 1920
epoch: 1000
next table: 1843
cur table: 1825
epoch: 1000
next table: 1917
cur table: 1843
epoch: 1000
next table: 3031
cur table: 1912
epoch: 1000
next table: 2036
cur table: 1917
epoch: 1000
next table: 1883
cur table: 2036
epoch: 1000
next table: 1880
cur table: 1883
epoch: 1000
next table: 1878
cur table: 1880
epoch: 1000
next table: 1896
cur table: 1878
epoch: 1000
next table: 3463
cur table: 3031
epoch: 1000
next table: 1861
cur table: 1896
epoch: 1000
next table: 1857
cur table: 1861
epoch: 1000
next table: 1803
cur table: 1857
epoch: 1000
next table: 1840
cur table: 1803
epoch: 1000
next table: 3343
cur table: 3463
epoch: 1000
next table: 1835
cur table: 1840
epoch: 1000
next table: 1858
cur table: 1835
epoch: 1000
next table: 1826
cur table: 1858
epoch: 1000
next table: 1859
cur table: 1826
epoch: 1000
next table: 1883
cur table: 1859
epoch: 1000
next table: 3237
cur table: 3343
epoch: 1000
next table: 2013
cur table: 1883
epoch: 1000
next table: 1921
cur table: 2013
epoch: 1000
next table: 1901
cur table: 1921
epoch: 1000
next table: 3066
cur table: 3237
epoch: 1000
next table: 1853
cur table: 1901
epoch: 1000
next table: 1911
cur table: 1853
epoch: 1000
next table: 1842
cur table: 1911
epoch: 1000
next table: 1846
cur table: 1842
epoch: 1000
next table: 1834
cur table: 1846
epoch: 1000
next table: 3886
cur table: 3066
epoch: 1000
next table: 1824
cur table: 1834
epoch: 1000
next table: 1845
cur table: 1824
epoch: 1000
next table: 1892
cur table: 1845
epoch: 1000
next table: 1880
cur table: 1892
epoch: 1000
next table: 1865
cur table: 1880
epoch: 1000
next table: 1900
cur table: 1865
epoch: 1000
next table: 4129
cur table: 3886
epoch: 1000
next table: 2015
cur table: 1900
epoch: 1000
next table: 1963
cur table: 2015
epoch: 1000
next table: 1894
cur table: 1963
epoch: 1000
next table: 1878
cur table: 1894
epoch: 1000
next table: 1865
cur table: 1878
epoch: 1000
next table: 1847
cur table: 1865
epoch: 1000
next table: 4851
cur table: 4129
epoch: 1000
next table: 1798
cur table: 1847
epoch: 1000
next table: 1980
cur table: 1798
epoch: 1000
next table: 1782
cur table: 1980
epoch: 1000
next table: 1794
cur table: 1782
epoch: 1000
next table: 1826
cur table: 1794
epoch: 1000
next table: 1872
cur table: 1826
epoch: 1000
next table: 1860
cur table: 1872
epoch: 1000
next table: 1844
cur table: 1860
epoch: 1000
next table: 1843
cur table: 1844
epoch: 1000
next table: 5324
cur table: 4851
epoch: 1000
next table: 1998
cur table: 1843
epoch: 1000
next table: 1953
cur table: 1998
epoch: 1000
next table: 1868
cur table: 1953
epoch: 1000
next table: 1862
cur table: 1868
epoch: 1000
next table: 1899
cur table: 1862
epoch: 1000
next table: 1860
cur table: 1899
epoch: 1000
next table: 1865
cur table: 1860
epoch: 1000
next table: 1834
cur table: 1865
epoch: 1000
next table: 6162
cur table: 5324
epoch: 1000
next table: 1780
cur table: 1834
epoch: 1000
next table: 1852
cur table: 1780
epoch: 1000
next table: 1854
cur table: 1852
epoch: 1000
next table: 1877
cur table: 1854
epoch: 1000
next table: 1865
cur table: 1877
epoch: 1000
next table: 1858
cur table: 1865
epoch: 1000
next table: 1926
cur table: 1858
epoch: 1000
next table: 2021
cur table: 1926
epoch: 1000
next table: 1882
cur table: 2021
epoch: 1000
next table: 1900
cur table: 1882
epoch: 1000
next table: 6823
cur table: 6162
epoch: 1000
next table: 1922
cur table: 1900
epoch: 1000
next table: 1868
cur table: 1922
epoch: 1000
next table: 1909
cur table: 1868
epoch: 1000
next table: 1922
cur table: 1909
epoch: 1000
next table: 1865
cur table: 1922
epoch: 1000
next table: 1806
cur table: 1865
epoch: 1000
next table: 1838
cur table: 1806
epoch: 1000
next table: 1860
cur table: 1838
epoch: 1000
next table: 1862
cur table: 1860
epoch: 1000
next table: 1872
cur table: 1862
epoch: 1000
next table: 1866
cur table: 1872
epoch: 1000
next table: 2009
cur table: 1866
epoch: 1000
next table: 7926
cur table: 6823
epoch: 1000
next table: 2022
cur table: 2009
epoch: 1000
next table: 1882
cur table: 2022
epoch: 1000
next table: 1875
cur table: 1882
epoch: 1000
next table: 1917
cur table: 1875
epoch: 1000
next table: 1866
cur table: 1917
epoch: 1000
next table: 1854
cur table: 1866
epoch: 1000
next table: 2112
cur table: 1854
epoch: 1000
next table: 1826
cur table: 2112
epoch: 1000
next table: 1877
cur table: 1826
epoch: 1000
next table: 1873
cur table: 1877
epoch: 1000
next table: 1918
cur table: 1873
epoch: 1000
next table: 1883
cur table: 1918
epoch: 1000
next table: 1881
cur table: 1883
epoch: 1000
next table: 1944
cur table: 1881
epoch: 1000
next table: 8392
cur table: 7926
epoch: 1000
next table: 2052
cur table: 1944
epoch: 1000
next table: 1910
cur table: 2052
epoch: 1000
next table: 1893
cur table: 1910
epoch: 1000
next table: 1903
cur table: 1893
epoch: 1000
next table: 1881
cur table: 1903
epoch: 1000
next table: 1850
cur table: 1881
epoch: 1000
next table: 1893
cur table: 1850
epoch: 1000
next table: 1792
cur table: 1893
epoch: 1000
next table: 1848
cur table: 1792
epoch: 1000
next table: 1854
cur table: 1848
epoch: 1000
next table: 1870
cur table: 1854
epoch: 1000
next table: 1858
cur table: 1870
epoch: 1000
next table: 1861
cur table: 1858
epoch: 1000
next table: 8782
cur table: 8392
epoch: 1000
next table: 1899
cur table: 1861
epoch: 1000
next table: 2018
cur table: 1899
epoch: 1000
next table: 1935
cur table: 2018
epoch: 1000
next table: 1865
cur table: 1935
epoch: 1000
next table: 1891
cur table: 1865
epoch: 1000
next table: 1913
cur table: 1891
epoch: 1000
next table: 1852
cur table: 1913
epoch: 1000
next table: 1850
cur table: 1852
epoch: 1000
next table: 1815
cur table: 1850
epoch: 1000
next table: 1879
cur table: 1815
epoch: 1000
next table: 1866
cur table: 1879
epoch: 1000
next table: 1888
cur table: 1866
epoch: 1000
next table: 1882
cur table: 1888
epoch: 1000
next table: 1915
cur table: 1882
epoch: 1000
next table: 1910
cur table: 1915
epoch: 1000
next table: 2030
cur table: 1910
epoch: 1000
next table: 10279
cur table: 8782
epoch: 1000
next table: 1946
cur table: 2030
epoch: 1000
next table: 1901
cur table: 1946
epoch: 1000
next table: 1906
cur table: 1901
epoch: 1000
next table: 1888
cur table: 1906
epoch: 1000
next table: 1853
cur table: 1888
epoch: 1000
next table: 1856
cur table: 1853
epoch: 1000
next table: 1814
cur table: 1856
epoch: 1000
next table: 1881
cur table: 1814
epoch: 1000
next table: 1890
cur table: 1881
epoch: 1000
next table: 1915
cur table: 1890
epoch: 1000
next table: 1864
cur table: 1915
epoch: 1000
next table: 1895
cur table: 1864
epoch: 1000
next table: 1937
cur table: 1895
epoch: 1000
next table: 2040
cur table: 1937
epoch: 1000
next table: 1914
cur table: 2040
epoch: 1000
next table: 1902
cur table: 1914
epoch: 1000
next table: 1938
cur table: 1902
epoch: 1000
next table: 10588
cur table: 10279
epoch: 1000
next table: 1887
cur table: 1938
epoch: 1000
next table: 1876
cur table: 1887
epoch: 1000
next table: 1832
cur table: 1876
epoch: 1000
next table: 1816
cur table: 1832
epoch: 1000
next table: 1837
cur table: 1816
epoch: 1000
next table: 1876
cur table: 1837
epoch: 1000
next table: 1924
cur table: 1876
epoch: 1000
next table: 1897
cur table: 1924
epoch: 1000
next table: 1885
cur table: 1897
epoch: 1000
next table: 1907
cur table: 1885
epoch: 1000
next table: 2037
cur table: 1907
epoch: 1000
next table: 1931
cur table: 2037
epoch: 1000
next table: 1888
cur table: 1931
epoch: 1000
next table: 1946
cur table: 1888
epoch: 1000
next table: 1862
cur table: 1946
epoch: 1000
next table: 1864
cur table: 1862
epoch: 1000
next table: 1861
cur table: 1864
epoch: 1000
next table: 1810
cur table: 1861
epoch: 1000
next table: 11231
cur table: 10588
epoch: 1000
next table: 1846
cur table: 1810
epoch: 1000
next table: 1871
cur table: 1846
epoch: 1000
next table: 1909
cur table: 1871
epoch: 1000
next table: 1866
cur table: 1909
epoch: 1000
next table: 1912
cur table: 1866
epoch: 1000
next table: 1916
cur table: 1912
epoch: 1000
next table: 2062
cur table: 1916
epoch: 1000
next table: 1917
cur table: 2062
epoch: 1000
next table: 1879
cur table: 1917
epoch: 1000
next table: 1942
cur table: 1879
epoch: 1000
next table: 1866
cur table: 1942
epoch: 1000
next table: 1857
cur table: 1866
epoch: 1000
next table: 1880
cur table: 1857
epoch: 1000
next table: 1789
cur table: 1880
epoch: 1000
next table: 1809
cur table: 1789
epoch: 1000
next table: 1847
cur table: 1809
epoch: 1000
next table: 1873
cur table: 1847
epoch: 1000
next table: 1864
cur table: 1873
epoch: 1000
next table: 1883
cur table: 1864
epoch: 1000
next table: 1913
cur table: 1883
epoch: 1000
next table: 12148
cur table: 11231
epoch: 1000
next table: 2029
cur table: 1913
epoch: 1000
next table: 1956
cur table: 2029
epoch: 1000
next table: 1870
cur table: 1956
epoch: 1000
next table: 1882
cur table: 1870
epoch: 1000
next table: 1917
cur table: 1882
epoch: 1000
next table: 1850
cur table: 1917
epoch: 1000
next table: 1888
cur table: 1850
epoch: 1000
next table: 1822
cur table: 1888
epoch: 1000
next table: 1841
cur table: 1822
epoch: 1000
next table: 1841
cur table: 1841
epoch: 1000
next table: 1877
cur table: 1841
epoch: 1000
next table: 1855
cur table: 1877
epoch: 1000
next table: 1892
cur table: 1855
epoch: 1000
next table: 1917
cur table: 1892
epoch: 1000
next table: 2038
cur table: 1917
epoch: 1000
next table: 1948
cur table: 2038
epoch: 1000
next table: 1902
cur table: 1948
epoch: 1000
next table: 1880
cur table: 1902
epoch: 1000
next table: 1926
cur table: 1880
epoch: 1000
next table: 1893
cur table: 1926
epoch: 1000
next table: 1843
cur table: 1893
epoch: 1000
next table: 13449
cur table: 12148
epoch: 1000
next table: 1856
cur table: 1843
epoch: 1000
next table: 1808
cur table: 1856
epoch: 1000
next table: 1874
cur table: 1808
epoch: 1000
next table: 1923
cur table: 1874
epoch: 1000
next table: 1840
cur table: 1923
epoch: 1000
next table: 1863
cur table: 1840
epoch: 1000
next table: 1895
cur table: 1863
epoch: 1000
next table: 2009
cur table: 1895
epoch: 1000
next table: 1970
cur table: 2009
epoch: 1000
next table: 1884
cur table: 1970
epoch: 1000
next table: 1861
cur table: 1884
epoch: 1000
next table: 1944
cur table: 1861
epoch: 1000
next table: 1873
cur table: 1944
epoch: 1000
next table: 1806
cur table: 1873
epoch: 1000
next table: 1841
cur table: 1806
epoch: 1000
next table: 1820
cur table: 1841
epoch: 1000
next table: 1834
cur table: 1820
epoch: 1000
next table: 1927
cur table: 1834
epoch: 1000
next table: 1846
cur table: 1927
epoch: 1000
next table: 1881
cur table: 1846
epoch: 1000
next table: 1902
cur table: 1881
epoch: 1000
next table: 2005
cur table: 1902
epoch: 1000
next table: 1997
cur table: 2005
epoch: 1000
next table: 1856
cur table: 1997
epoch: 1000
next table: 14723
cur table: 13449
epoch: 1000
next table: 1900
cur table: 1856
epoch: 1000
next table: 1916
cur table: 1900
epoch: 1000
next table: 1841
cur table: 1916
epoch: 1000
next table: 1821
cur table: 1841
epoch: 1000
next table: 1905
cur table: 1821
epoch: 1000
next table: 1799
cur table: 1905
epoch: 1000
next table: 1844
cur table: 1799
epoch: 1000
next table: 1875
cur table: 1844
epoch: 1000
next table: 1905
cur table: 1875
epoch: 1000
next table: 1870
cur table: 1905
epoch: 1000
next table: 1868
cur table: 1870
epoch: 1000
next table: 1994
cur table: 1868
epoch: 1000
next table: 2001
cur table: 1994
epoch: 1000
next table: 1860
cur table: 2001
epoch: 1000
next table: 1885
cur table: 1860
epoch: 1000
next table: 1891
cur table: 1885
epoch: 1000
next table: 1864
cur table: 1891
epoch: 1000
next table: 1873
cur table: 1864
epoch: 1000
next table: 1748
cur table: 1873
epoch: 1000
next table: 1794
cur table: 1748
epoch: 1000
next table: 1830
cur table: 1794
epoch: 1000
next table: 1847
cur table: 1830
epoch: 1000
next table: 1882
cur table: 1847
epoch: 1000
next table: 1847
cur table: 1882
epoch: 1000
next table: 14138
cur table: 14723
epoch: 1000
next table: 1881
cur table: 1847
epoch: 1000
next table: 1917
cur table: 1881
epoch: 1000
next table: 2044
cur table: 1917
epoch: 1000
next table: 1894
cur table: 2044
epoch: 1000
next table: 1886
cur table: 1894
epoch: 1000
next table: 1883
cur table: 1886
epoch: 1000
next table: 1902
cur table: 1883
epoch: 1000
next table: 1867
cur table: 1902
epoch: 1000
next table: 1841
cur table: 1867
epoch: 1000
next table: 1829
cur table: 1841
epoch: 1000
next table: 1831
cur table: 1829
epoch: 1000
next table: 1869
cur table: 1831
epoch: 1000
next table: 1935
cur table: 1869
epoch: 1000
next table: 1865
cur table: 1935
epoch: 1000
next table: 1889
cur table: 1865
epoch: 1000
next table: 1920
cur table: 1889
epoch: 1000
next table: 2038
cur table: 1920
epoch: 1000
next table: 1919
cur table: 2038
epoch: 1000
next table: 1890
cur table: 1919
epoch: 1000
next table: 1908
cur table: 1890
epoch: 1000
next table: 1887
cur table: 1908
epoch: 1000
next table: 1863
cur table: 1887
epoch: 1000
next table: 1885
cur table: 1863
epoch: 1000
next table: 1813
cur table: 1885
epoch: 1000
next table: 1853
cur table: 1813
epoch: 1000
next table: 1863
cur table: 1853
epoch: 1000
next table: 1900
cur table: 1863
epoch: 1000
next table: 1884
cur table: 1900
epoch: 1000
next table: 1918
cur table: 1884
epoch: 1000
next table: 17735
cur table: 14138
epoch: 1000
next table: 1916
cur table: 1918
epoch: 1000
next table: 2029
cur table: 1916
epoch: 1000
next table: 1924
cur table: 2029
epoch: 1000
next table: 1904
cur table: 1924
epoch: 1000
next table: 1924
cur table: 1904
epoch: 1000
next table: 1890
cur table: 1924
epoch: 1000
next table: 1873
cur table: 1890
epoch: 1000
next table: 1911
cur table: 1873
epoch: 1000
next table: 1798
cur table: 1911
epoch: 1000
next table: 1848
cur table: 1798
epoch: 1000
next table: 1908
cur table: 1848
epoch: 1000
next table: 1922
cur table: 1908
epoch: 1000
next table: 1861
cur table: 1922
epoch: 1000
next table: 1882
cur table: 1861
epoch: 1000
next table: 1932
cur table: 1882
epoch: 1000
next table: 2056
cur table: 1932
epoch: 1000
next table: 1898
cur table: 2056
epoch: 1000
next table: 1880
cur table: 1898
epoch: 1000
next table: 1879
cur table: 1880
epoch: 1000
next table: 1852
cur table: 1879
epoch: 1000
next table: 1881
cur table: 1852
epoch: 1000
next table: 1858
cur table: 1881
epoch: 1000
next table: 1839
cur table: 1858
epoch: 1000
next table: 1818
cur table: 1839
epoch: 1000
next table: 1877
cur table: 1818
epoch: 1000
next table: 1898
cur table: 1877
epoch: 1000
next table: 1871
cur table: 1898
epoch: 1000
next table: 1883
cur table: 1871
epoch: 1000
next table: 1893
cur table: 1883
epoch: 1000
next table: 2059
cur table: 1893
epoch: 1000
next table: 1908
cur table: 2059
epoch: 1000
next table: 1885
cur table: 1908
epoch: 1000
next table: 1895
cur table: 1885
epoch: 1000
next table: 1893
cur table: 1895
epoch: 1000
next table: 1890
cur table: 1893
epoch: 1000
next table: 21309
cur table: 17735
epoch: 1000
next table: 1866
cur table: 1890
epoch: 1000
next table: 1818
cur table: 1866
epoch: 1000
next table: 1829
cur table: 1818
epoch: 1000
next table: 1859
cur table: 1829
epoch: 1000
next table: 1924
cur table: 1859
epoch: 1000
next table: 1836
cur table: 1924
epoch: 1000
next table: 1855
cur table: 1836
epoch: 1000
next table: 1909
cur table: 1855
epoch: 1000
next table: 2021
cur table: 1909
epoch: 1000
next table: 1933
cur table: 2021
epoch: 1000
next table: 1875
cur table: 1933
epoch: 1000
next table: 1891
cur table: 1875
epoch: 1000
next table: 1919
cur table: 1891
epoch: 1000
next table: 1873
cur table: 1919
epoch: 1000
next table: 1909
cur table: 1873
epoch: 1000
next table: 1825
cur table: 1909
epoch: 1000
next table: 1860
cur table: 1825
epoch: 1000
next table: 1891
cur table: 1860
epoch: 1000
next table: 1922
cur table: 1891
epoch: 1000
next table: 1868
cur table: 1922
epoch: 1000
next table: 1901
cur table: 1868
epoch: 1000
next table: 1919
cur table: 1901
epoch: 1000
next table: 2038
cur table: 1919
epoch: 1000
next table: 1961
cur table: 2038
epoch: 1000
next table: 1925
cur table: 1961
epoch: 1000
next table: 1911
cur table: 1925
epoch: 1000
next table: 1862
cur table: 1911
epoch: 1000
next table: 1912
cur table: 1862
epoch: 1000
next table: 1709
cur table: 1912
epoch: 1000
next table: 1883
cur table: 1709
epoch: 1000
next table: 17613
cur table: 21309
epoch: 1000
next table: 1860
cur table: 1883
epoch: 1000
next table: 1856
cur table: 1860
epoch: 1000
next table: 1946
cur table: 1856
epoch: 1000
next table: 1890
cur table: 1946
epoch: 1000
next table: 1907
cur table: 1890
epoch: 1000
next table: 1902
cur table: 1907
epoch: 1000
next table: 2049
cur table: 1902
epoch: 1000
next table: 1945
cur table: 2049
epoch: 1000
next table: 1871
cur table: 1945
epoch: 1000
next table: 1903
cur table: 1871
epoch: 1000
next table: 1918
cur table: 1903
epoch: 1000
next table: 1879
cur table: 1918
epoch: 1000
next table: 1842
cur table: 1879
epoch: 1000
next table: 1746
cur table: 1842
epoch: 1000
next table: 1811
cur table: 1746
epoch: 1000
next table: 1449
cur table: 1811
epoch: 1000
next table: 10177
cur table: 17613
epoch: 1000
next table: 1584
cur table: 1449
epoch: 1000
next table: 1685
cur table: 1584
epoch: 1000
next table: 1702
cur table: 1685
epoch: 1000
next table: 1779
cur table: 1702
epoch: 1000
next table: 1703
cur table: 1779
epoch: 1000
next table: 4069
cur table: 10177
epoch: 1000
next table: 1838
cur table: 1703
epoch: 1000
next table: 1683
cur table: 1838
epoch: 1000
next table: 1794
cur table: 1683
epoch: 1000
next table: 1866
cur table: 1794
epoch: 1000
next table: 3225
cur table: 4069
epoch: 1000
next table: 1843
cur table: 1866
epoch: 1000
next table: 1981
cur table: 1843
epoch: 1000
next table: 2819
cur table: 3225
epoch: 1000
next table: 1646
cur table: 1981
epoch: 1000
next table: 1391
cur table: 1646
epoch: 1000
next table: 1386
cur table: 1391
epoch: 1000
next table: 1498
cur table: 1386
epoch: 1000
next table: 1428
cur table: 1498
epoch: 1000
next table: 1490
cur table: 1428
epoch: 1000
next table: 1718
cur table: 1490
epoch: 1000
next table: 3783
cur table: 2819
epoch: 1000
next table: 1922
cur table: 1718
epoch: 1000
next table: 1774
cur table: 1922
epoch: 1000
next table: 1770
cur table: 1774
epoch: 1000
next table: 1530
cur table: 1770
epoch: 1000
next table: 1491
cur table: 1530
epoch: 1000
next table: 1484
cur table: 1491
epoch: 1000
next table: 3668
cur table: 3783
epoch: 1000
next table: 1554
cur table: 1484
epoch: 1000
next table: 1757
cur table: 1554
epoch: 1000
next table: 1936
cur table: 1757
epoch: 1000
next table: 3243
cur table: 3668
epoch: 1000
next table: 1741
cur table: 1936
epoch: 1000
next table: 1748
cur table: 1741
epoch: 1000
next table: 1685
cur table: 1748
epoch: 1000
next table: 1879
cur table: 1685
epoch: 1000
next table: 3184
cur table: 3243
epoch: 1000
next table: 1876
cur table: 1879
epoch: 1000
next table: 1440
cur table: 1876
epoch: 1000
next table: 1482
cur table: 1440
epoch: 1000
next table: 1503
cur table: 1482
epoch: 1000
next table: 1771
cur table: 1503
epoch: 1000
next table: 3380
cur table: 3184
epoch: 1000
next table: 1978
cur table: 1771
epoch: 1000
next table: 1743
cur table: 1978
epoch: 1000
next table: 1745
cur table: 1743
epoch: 1000
next table: 1807
cur table: 1745
epoch: 1000
next table: 3654
cur table: 3380
epoch: 1000
next table: 1812
cur table: 1807
epoch: 1000
next table: 1967
cur table: 1812
epoch: 1000
next table: 1861
cur table: 1967
epoch: 1000
next table: 1866
cur table: 1861
epoch: 1000
next table: 1893
cur table: 1866
epoch: 1000
next table: 1908
cur table: 1893
epoch: 1000
next table: 1866
cur table: 1908
epoch: 1000
next table: 1910
cur table: 1866
epoch: 1000
next table: 1919
cur table: 1910
epoch: 1000
next table: 1948
cur table: 1919
epoch: 1000
next table: 1890
cur table: 1948
epoch: 1000
next table: 1895
cur table: 1890
epoch: 1000
next table: 1888
cur table: 1895
epoch: 1000
next table: 1862
cur table: 1888
epoch: 1000
next table: 1874
cur table: 1862
epoch: 1000
next table: 1866
cur table: 1874
epoch: 1000
next table: 1831
cur table: 1866
epoch: 1000
next table: 1883
cur table: 1831
epoch: 1000
next table: 1881
cur table: 1883
epoch: 1000
next table: 1897
cur table: 1881
epoch: 1000
next table: 1865
cur table: 1897
epoch: 1000
next table: 1911
cur table: 1865
epoch: 1000
next table: 1962
cur table: 1911
epoch: 1000
next table: 2004
cur table: 1962
epoch: 1000
next table: 1907
cur table: 2004
epoch: 1000
next table: 1900
cur table: 1907
epoch: 1000
next table: 1917
cur table: 1900
epoch: 1000
next table: 1872
cur table: 1917
epoch: 1000
next table: 1882
cur table: 1872
epoch: 1000
next table: 1794
cur table: 1882
epoch: 1000
next table: 1858
cur table: 1794
epoch: 1000
next table: 18819
cur table: 3654
epoch: 1000
next table: 1852
cur table: 1858
epoch: 1000
next table: 1906
cur table: 1852
epoch: 1000
next table: 1956
cur table: 1906
epoch: 1000
next table: 1898
cur table: 1956
epoch: 1000
next table: 1916
cur table: 1898
epoch: 1000
next table: 1961
cur table: 1916
epoch: 1000
next table: 2040
cur table: 1961
epoch: 1000
next table: 1905
cur table: 2040
epoch: 1000
next table: 1869
cur table: 1905
epoch: 1000
next table: 1917
cur table: 1869
epoch: 1000
next table: 1895
cur table: 1917
epoch: 1000
next table: 1867
cur table: 1895
epoch: 1000
next table: 1810
cur table: 1867
epoch: 1000
next table: 1848
cur table: 1810
epoch: 1000
next table: 1864
cur table: 1848
epoch: 1000
next table: 1896
cur table: 1864
epoch: 1000
next table: 1893
cur table: 1896
epoch: 1000
next table: 1903
cur table: 1893
epoch: 1000
next table: 1874
cur table: 1903
epoch: 1000
next table: 1901
cur table: 1874
epoch: 1000
next table: 2033
cur table: 1901
epoch: 1000
next table: 1954
cur table: 2033
epoch: 1000
next table: 1881
cur table: 1954
epoch: 1000
next table: 1865
cur table: 1881
epoch: 1000
next table: 1875
cur table: 1865
epoch: 1000
next table: 1863
cur table: 1875
epoch: 1000
next table: 1820
cur table: 1863
epoch: 1000
next table: 1833
cur table: 1820
epoch: 1000
next table: 1784
cur table: 1833
epoch: 1000
next table: 1860
cur table: 1784
epoch: 1000
next table: 18487
cur table: 18819
epoch: 1000
next table: 1893
cur table: 1860
epoch: 1000
next table: 1888
cur table: 1893
epoch: 1000
next table: 1903
cur table: 1888
epoch: 1000
next table: 1921
cur table: 1903
epoch: 1000
next table: 2007
cur table: 1921
epoch: 1000
next table: 1981
cur table: 2007
epoch: 1000
next table: 1914
cur table: 1981
epoch: 1000
next table: 1865
cur table: 1914
epoch: 1000
next table: 1894
cur table: 1865
epoch: 1000
next table: 1876
cur table: 1894
epoch: 1000
next table: 1838
cur table: 1876
epoch: 1000
next table: 1893
cur table: 1838
epoch: 1000
next table: 1797
cur table: 1893
epoch: 1000
next table: 1875
cur table: 1797
epoch: 1000
next table: 1911
cur table: 1875
epoch: 1000
next table: 1976
cur table: 1911
epoch: 1000
next table: 1894
cur table: 1976
epoch: 1000
next table: 1923
cur table: 1894
epoch: 1000
next table: 2030
cur table: 1923
epoch: 1000
next table: 1988
cur table: 2030
epoch: 1000
next table: 1905
cur table: 1988
epoch: 1000
next table: 1878
cur table: 1905
epoch: 1000
next table: 13792
cur table: 18487
epoch: 1000
next table: 1942
cur table: 1878
epoch: 1000
next table: 1891
cur table: 1942
epoch: 1000
next table: 1838
cur table: 1891
epoch: 1000
next table: 1855
cur table: 1838
epoch: 1000
next table: 1834
cur table: 1855
epoch: 1000
next table: 1897
cur table: 1834
epoch: 1000
next table: 2005
cur table: 1897
epoch: 1000
next table: 1799
cur table: 2005
epoch: 1000
next table: 1849
cur table: 1799
epoch: 1000
next table: 1930
cur table: 1849
epoch: 1000
next table: 1931
cur table: 1930
epoch: 1000
next table: 1912
cur table: 1931
epoch: 1000
next table: 1893
cur table: 1912
epoch: 1000
next table: 2012
cur table: 1893
epoch: 1000
next table: 1969
cur table: 2012
epoch: 1000
next table: 1908
cur table: 1969
epoch: 1000
next table: 1911
cur table: 1908
epoch: 1000
next table: 1913
cur table: 1911
epoch: 1000
next table: 12130
cur table: 13792
epoch: 1000
next table: 1885
cur table: 1913
epoch: 1000
next table: 1873
cur table: 1885
epoch: 1000
next table: 1834
cur table: 1873
epoch: 1000
next table: 1867
cur table: 1834
epoch: 1000
next table: 1910
cur table: 1867
epoch: 1000
next table: 1942
cur table: 1910
epoch: 1000
next table: 1888
cur table: 1942
epoch: 1000
next table: 1901
cur table: 1888
epoch: 1000
next table: 1957
cur table: 1901
epoch: 1000
next table: 2046
cur table: 1957
epoch: 1000
next table: 1910
cur table: 2046
epoch: 1000
next table: 1917
cur table: 1910
epoch: 1000
next table: 1901
cur table: 1917
epoch: 1000
next table: 1837
cur table: 1901
epoch: 1000
next table: 1916
cur table: 1837
epoch: 1000
next table: 1654
cur table: 1916
epoch: 1000
next table: 1773
cur table: 1654
epoch: 1000
next table: 1840
cur table: 1773
epoch: 1000
next table: 1905
cur table: 1840
epoch: 1000
next table: 1945
cur table: 1905
epoch: 1000
next table: 1933
cur table: 1945
epoch: 1000
next table: 1893
cur table: 1933
epoch: 1000
next table: 1947
cur table: 1893
epoch: 1000
next table: 13434
cur table: 12130
epoch: 1000
next table: 2045
cur table: 1947
epoch: 1000
next table: 1946
cur table: 2045
epoch: 1000
next table: 1936
cur table: 1946
epoch: 1000
next table: 1927
cur table: 1936
epoch: 1000
next table: 1901
cur table: 1927
epoch: 1000
next table: 1883
cur table: 1901
epoch: 1000
next table: 1820
cur table: 1883
epoch: 1000
next table: 1864
cur table: 1820
epoch: 1000
next table: 1852
cur table: 1864
epoch: 1000
next table: 1874
cur table: 1852
epoch: 1000
next table: 1937
cur table: 1874
epoch: 1000
next table: 1874
cur table: 1937
epoch: 1000
next table: 1876
cur table: 1874
epoch: 1000
next table: 1922
cur table: 1876
epoch: 1000
next table: 2008
cur table: 1922
epoch: 1000
next table: 1961
cur table: 2008
epoch: 1000
next table: 1890
cur table: 1961
epoch: 1000
next table: 1860
cur table: 1890
epoch: 1000
next table: 1920
cur table: 1860
epoch: 1000
next table: 1886
cur table: 1920
epoch: 1000
next table: 1875
cur table: 1886
epoch: 1000
next table: 1831
cur table: 1875
epoch: 1000
next table: 1838
cur table: 1831
epoch: 1000
next table: 14295
cur table: 13434
epoch: 1000
next table: 1930
cur table: 1838
epoch: 1000
next table: 1923
cur table: 1930
epoch: 1000
next table: 1928
cur table: 1923
epoch: 1000
next table: 1857
cur table: 1928
epoch: 1000
next table: 1947
cur table: 1857
epoch: 1000
next table: 2033
cur table: 1947
epoch: 1000
next table: 1968
cur table: 2033
epoch: 1000
next table: 1899
cur table: 1968
epoch: 1000
next table: 1909
cur table: 1899
epoch: 1000
next table: 1926
cur table: 1909
epoch: 1000
next table: 1906
cur table: 1926
epoch: 1000
next table: 1832
cur table: 1906
epoch: 1000
next table: 1811
cur table: 1832
epoch: 1000
next table: 1837
cur table: 1811
epoch: 1000
next table: 1879
cur table: 1837
epoch: 1000
next table: 1947
cur table: 1879
epoch: 1000
next table: 1886
cur table: 1947
epoch: 1000
next table: 1901
cur table: 1886
epoch: 1000
next table: 1921
cur table: 1901
epoch: 1000
next table: 2044
cur table: 1921
epoch: 1000
next table: 1946
cur table: 2044
epoch: 1000
next table: 1939
cur table: 1946
epoch: 1000
next table: 1915
cur table: 1939
epoch: 1000
next table: 1884
cur table: 1915
epoch: 1000
next table: 1892
cur table: 1884
epoch: 1000
next table: 1828
cur table: 1892
epoch: 1000
next table: 16195
cur table: 14295
epoch: 1000
next table: 1804
cur table: 1828
epoch: 1000
next table: 1832
cur table: 1804
epoch: 1000
next table: 1896
cur table: 1832
epoch: 1000
next table: 1969
cur table: 1896
epoch: 1000
next table: 1904
cur table: 1969
epoch: 1000
next table: 1945
cur table: 1904
epoch: 1000
next table: 1967
cur table: 1945
epoch: 1000
next table: 2043
cur table: 1967
epoch: 1000
next table: 1977
cur table: 2043
epoch: 1000
next table: 1902
cur table: 1977
epoch: 1000
next table: 1928
cur table: 1902
epoch: 1000
next table: 1901
cur table: 1928
epoch: 1000
next table: 1880
cur table: 1901
epoch: 1000
next table: 1801
cur table: 1880
epoch: 1000
next table: 1838
cur table: 1801
epoch: 1000
next table: 1862
cur table: 1838
epoch: 1000
next table: 1861
cur table: 1862
epoch: 1000
next table: 1926
cur table: 1861
epoch: 1000
next table: 1931
cur table: 1926
epoch: 1000
next table: 1864
cur table: 1931
epoch: 1000
next table: 1925
cur table: 1864
epoch: 1000
next table: 2042
cur table: 1925
epoch: 1000
next table: 1956
cur table: 2042
epoch: 1000
next table: 1887
cur table: 1956
epoch: 1000
next table: 1883
cur table: 1887
epoch: 1000
next table: 1898
cur table: 1883
epoch: 1000
next table: 1864
cur table: 1898
epoch: 1000
next table: 1812
cur table: 1864
epoch: 1000
next table: 1843
cur table: 1812
epoch: 1000
next table: 17136
cur table: 16195
epoch: 1000
next table: 1835
cur table: 1843
epoch: 1000
next table: 1849
cur table: 1835
epoch: 1000
next table: 1932
cur table: 1849
epoch: 1000
next table: 1880
cur table: 1932
epoch: 1000
next table: 1897
cur table: 1880
epoch: 1000
next table: 1927
cur table: 1897
epoch: 1000
next table: 2004
cur table: 1927
epoch: 1000
next table: 1956
cur table: 2004
epoch: 1000
next table: 1894
cur table: 1956
epoch: 1000
next table: 1857
cur table: 1894
epoch: 1000
next table: 1947
cur table: 1857
epoch: 1000
next table: 1888
cur table: 1947
epoch: 1000
next table: 1803
cur table: 1888
epoch: 1000
next table: 1736
cur table: 1803
epoch: 1000
next table: 1807
cur table: 1736
epoch: 1000
next table: 1871
cur table: 1807
epoch: 1000
next table: 1887
cur table: 1871
epoch: 1000
next table: 1925
cur table: 1887
epoch: 1000
next table: 1875
cur table: 1925
epoch: 1000
next table: 1909
cur table: 1875
epoch: 1000
next table: 1982
cur table: 1909
epoch: 1000
next table: 1984
cur table: 1982
epoch: 1000
next table: 1919
cur table: 1984
epoch: 1000
next table: 1917
cur table: 1919
epoch: 1000
next table: 1897
cur table: 1917
epoch: 1000
next table: 1852
cur table: 1897
epoch: 1000
next table: 1890
cur table: 1852
epoch: 1000
next table: 1850
cur table: 1890
epoch: 1000
next table: 1822
cur table: 1850
epoch: 1000
next table: 1890
cur table: 1822
epoch: 1000
next table: 18376
cur table: 17136
epoch: 1000
next table: 1917
cur table: 1890
epoch: 1000
next table: 1936
cur table: 1917
epoch: 1000
next table: 1888
cur table: 1936
epoch: 1000
next table: 1878
cur table: 1888
epoch: 1000
next table: 1999
cur table: 1878
epoch: 1000
next table: 2034
cur table: 1999
epoch: 1000
next table: 1907
cur table: 2034
epoch: 1000
next table: 1910
cur table: 1907
epoch: 1000
next table: 1903
cur table: 1910
epoch: 1000
next table: 1870
cur table: 1903
epoch: 1000
next table: 1849
cur table: 1870
epoch: 1000
next table: 1924
cur table: 1849
epoch: 1000
next table: 1843
cur table: 1924
epoch: 1000
next table: 1913
cur table: 1843
epoch: 1000
next table: 1917
cur table: 1913
epoch: 1000
next table: 1886
cur table: 1917
epoch: 1000
next table: 1881
cur table: 1886
epoch: 1000
next table: 1872
cur table: 1881
epoch: 1000
next table: 2053
cur table: 1872
epoch: 1000
next table: 2024
cur table: 2053
epoch: 1000
next table: 1889
cur table: 2024
epoch: 1000
next table: 1871
cur table: 1889
epoch: 1000
next table: 1918
cur table: 1871
epoch: 1000
next table: 1873
cur table: 1918
epoch: 1000
next table: 1862
cur table: 1873
epoch: 1000
next table: 1911
cur table: 1862
epoch: 1000
next table: 1820
cur table: 1911
epoch: 1000
next table: 1907
cur table: 1820
epoch: 1000
next table: 1899
cur table: 1907
epoch: 1000
next table: 1884
cur table: 1899
epoch: 1000
next table: 1915
cur table: 1884
epoch: 1000
next table: 1905
cur table: 1915
epoch: 1000
next table: 19329
cur table: 18376
epoch: 1000
next table: 2092
cur table: 1905
epoch: 1000
next table: 2019
cur table: 2092
epoch: 1000
next table: 1871
cur table: 2019
epoch: 1000
next table: 1913
cur table: 1871
epoch: 1000
next table: 1906
cur table: 1913
epoch: 1000
next table: 1874
cur table: 1906
epoch: 1000
next table: 1880
cur table: 1874
epoch: 1000
next table: 1897
cur table: 1880
epoch: 1000
next table: 1822
cur table: 1897
epoch: 1000
next table: 1891
cur table: 1822
epoch: 1000
next table: 1895
cur table: 1891
epoch: 1000
next table: 1922
cur table: 1895
epoch: 1000
next table: 1870
cur table: 1922
epoch: 1000
next table: 1900
cur table: 1870
epoch: 1000
next table: 2112
cur table: 1900
epoch: 1000
next table: 2026
cur table: 2112
epoch: 1000
next table: 1907
cur table: 2026
epoch: 1000
next table: 1854
cur table: 1907
epoch: 1000
next table: 1921
cur table: 1854
epoch: 1000
next table: 1870
cur table: 1921
epoch: 1000
next table: 1905
cur table: 1870
epoch: 1000
next table: 1870
cur table: 1905
epoch: 1000
next table: 1833
cur table: 1870
epoch: 1000
next table: 1928
cur table: 1833
epoch: 1000
next table: 1903
cur table: 1928
epoch: 1000
next table: 1904
cur table: 1903
epoch: 1000
next table: 1886
cur table: 1904
epoch: 1000
next table: 1893
cur table: 1886
epoch: 1000
next table: 2180
cur table: 1893
epoch: 1000
next table: 1971
cur table: 2180
epoch: 1000
next table: 1878
cur table: 1971
epoch: 1000
next table: 1883
cur table: 1878
epoch: 1000
next table: 1881
cur table: 1883
epoch: 1000
next table: 1849
cur table: 1881
epoch: 1000
next table: 20955
cur table: 19329
epoch: 1000
next table: 1844
cur table: 1849
epoch: 1000
next table: 1848
cur table: 1844
epoch: 1000
next table: 1797
cur table: 1848
epoch: 1000
next table: 1859
cur table: 1797
epoch: 1000
next table: 1901
cur table: 1859
epoch: 1000
next table: 1887
cur table: 1901
epoch: 1000
next table: 1914
cur table: 1887
epoch: 1000
next table: 1859
cur table: 1914
epoch: 1000
next table: 2081
cur table: 1859
epoch: 1000
next table: 2094
cur table: 2081
epoch: 1000
next table: 1861
cur table: 2094
epoch: 1000
next table: 1888
cur table: 1861
epoch: 1000
next table: 1914
cur table: 1888
epoch: 1000
next table: 1858
cur table: 1914
epoch: 1000
next table: 1876
cur table: 1858
epoch: 1000
next table: 1920
cur table: 1876
epoch: 1000
next table: 1787
cur table: 1920
epoch: 1000
next table: 1866
cur table: 1787
epoch: 1000
next table: 1909
cur table: 1866
epoch: 1000
next table: 1910
cur table: 1909
epoch: 1000
next table: 1868
cur table: 1910
epoch: 1000
next table: 1900
cur table: 1868
epoch: 1000
next table: 2113
cur table: 1900
epoch: 1000
next table: 2056
cur table: 2113
epoch: 1000
next table: 1867
cur table: 2056
epoch: 1000
next table: 1880
cur table: 1867
epoch: 1000
next table: 1907
cur table: 1880
epoch: 1000
next table: 1872
cur table: 1907
epoch: 1000
next table: 1839
cur table: 1872
epoch: 1000
next table: 1914
cur table: 1839
epoch: 1000
next table: 1814
cur table: 1914
epoch: 1000
next table: 1893
cur table: 1814
epoch: 1000
next table: 1889
cur table: 1893
epoch: 1000
next table: 1898
cur table: 1889
epoch: 1000
next table: 1894
cur table: 1898
epoch: 1000
next table: 20509
cur table: 20955
epoch: 1000
next table: 1888
cur table: 1894
epoch: 1000
next table: 2121
cur table: 1888
epoch: 1000
next table: 2082
cur table: 2121
epoch: 1000
next table: 1875
cur table: 2082
epoch: 1000
next table: 1904
cur table: 1875
epoch: 1000
next table: 1971
cur table: 1904
epoch: 1000
next table: 1868
cur table: 1971
epoch: 1000
next table: 1860
cur table: 1868
epoch: 1000
next table: 1882
cur table: 1860
epoch: 1000
next table: 1801
cur table: 1882
epoch: 1000
next table: 1879
cur table: 1801
epoch: 1000
next table: 1888
cur table: 1879
epoch: 1000
next table: 1908
cur table: 1888
epoch: 1000
next table: 1858
cur table: 1908
epoch: 1000
next table: 1875
cur table: 1858
epoch: 1000
next table: 2124
cur table: 1875
epoch: 1000
next table: 2072
cur table: 2124
epoch: 1000
next table: 1864
cur table: 2072
epoch: 1000
next table: 1888
cur table: 1864
epoch: 1000
next table: 1920
cur table: 1888
epoch: 1000
next table: 1875
cur table: 1920
epoch: 1000
next table: 1879
cur table: 1875
epoch: 1000
next table: 1839
cur table: 1879
epoch: 1000
next table: 1843
cur table: 1839
epoch: 1000
next table: 1923
cur table: 1843
epoch: 1000
next table: 1904
cur table: 1923
epoch: 1000
next table: 1883
cur table: 1904
epoch: 1000
next table: 1920
cur table: 1883
epoch: 1000
next table: 1872
cur table: 1920
epoch: 1000
next table: 2183
cur table: 1872
epoch: 1000
next table: 2004
cur table: 2183
epoch: 1000
next table: 1876
cur table: 2004
epoch: 1000
next table: 1906
cur table: 1876
epoch: 1000
next table: 1910
cur table: 1906
epoch: 1000
next table: 1906
cur table: 1910
epoch: 1000
next table: 1906
cur table: 1906
epoch: 1000
next table: 1883
cur table: 1906
epoch: 1000
next table: 22144
cur table: 20509
epoch: 1000
next table: 1851
cur table: 1883
epoch: 1000
next table: 1882
cur table: 1851
epoch: 1000
next table: 1958
cur table: 1882
epoch: 1000
next table: 1901
cur table: 1958
epoch: 1000
next table: 1881
cur table: 1901
epoch: 1000
next table: 1986
cur table: 1881
epoch: 1000
next table: 2226
cur table: 1986
epoch: 1000
next table: 1880
cur table: 2226
epoch: 1000
next table: 1879
cur table: 1880
epoch: 1000
next table: 1909
cur table: 1879
epoch: 1000
next table: 1881
cur table: 1909
epoch: 1000
next table: 1895
cur table: 1881
epoch: 1000
next table: 1896
cur table: 1895
epoch: 1000
next table: 1801
cur table: 1896
epoch: 1000
next table: 1876
cur table: 1801
epoch: 1000
next table: 1905
cur table: 1876
epoch: 1000
next table: 1916
cur table: 1905
epoch: 1000
next table: 1881
cur table: 1916
epoch: 1000
next table: 1866
cur table: 1881
epoch: 1000
next table: 2046
cur table: 1866
epoch: 1000
next table: 2164
cur table: 2046
epoch: 1000
next table: 1895
cur table: 2164
epoch: 1000
next table: 1902
cur table: 1895
epoch: 1000
next table: 1908
cur table: 1902
epoch: 1000
next table: 1848
cur table: 1908
epoch: 1000
next table: 1874
cur table: 1848
epoch: 1000
next table: 1891
cur table: 1874
epoch: 1000
next table: 1862
cur table: 1891
epoch: 1000
next table: 1856
cur table: 1862
epoch: 1000
next table: 1907
cur table: 1856
epoch: 1000
next table: 1906
cur table: 1907
epoch: 1000
next table: 1867
cur table: 1906
epoch: 1000
next table: 1895
cur table: 1867
epoch: 1000
next table: 2074
cur table: 1895
epoch: 1000
next table: 2155
cur table: 2074
epoch: 1000
next table: 1865
cur table: 2155
epoch: 1000
next table: 1901
cur table: 1865
epoch: 1000
next table: 1915
cur table: 1901
epoch: 1000
next table: 23226
cur table: 22144
epoch: 1000
next table: 1876
cur table: 1915
epoch: 1000
next table: 1882
cur table: 1876
epoch: 1000
next table: 1886
cur table: 1882
epoch: 1000
next table: 1829
cur table: 1886
epoch: 1000
next table: 1885
cur table: 1829
epoch: 1000
next table: 1951
cur table: 1885
epoch: 1000
next table: 1954
cur table: 1951
epoch: 1000
next table: 1895
cur table: 1954
epoch: 1000
next table: 1917
cur table: 1895
epoch: 1000
next table: 2206
cur table: 1917
epoch: 1000
next table: 1962
cur table: 2206
epoch: 1000
next table: 1869
cur table: 1962
epoch: 1000
next table: 1884
cur table: 1869
epoch: 1000
next table: 1899
cur table: 1884
epoch: 1000
next table: 1870
cur table: 1899
epoch: 1000
next table: 1859
cur table: 1870
epoch: 1000
next table: 1843
cur table: 1859
epoch: 1000
next table: 1824
cur table: 1843
epoch: 1000
next table: 1876
cur table: 1824
epoch: 1000
next table: 1899
cur table: 1876
epoch: 1000
next table: 1886
cur table: 1899
epoch: 1000
next table: 1886
cur table: 1886
epoch: 1000
next table: 1879
cur table: 1886
epoch: 1000
next table: 2208
cur table: 1879
epoch: 1000
next table: 1988
cur table: 2208
epoch: 1000
next table: 1857
cur table: 1988
epoch: 1000
next table: 1902
cur table: 1857
epoch: 1000
next table: 1873
cur table: 1902
epoch: 1000
next table: 1866
cur table: 1873
epoch: 1000
next table: 1899
cur table: 1866
epoch: 1000
next table: 1875
cur table: 1899
epoch: 1000
next table: 1835
cur table: 1875
epoch: 1000
next table: 1875
cur table: 1835
epoch: 1000
next table: 1896
cur table: 1875
epoch: 1000
next table: 1891
cur table: 1896
epoch: 1000
next table: 1878
cur table: 1891
epoch: 1000
next table: 1886
cur table: 1878
epoch: 1000
next table: 2195
cur table: 1886
epoch: 1000
next table: 22537
cur table: 23226
epoch: 1000
next table: 1995
cur table: 2195
epoch: 1000
next table: 1869
cur table: 1995
epoch: 1000
next table: 1863
cur table: 1869
epoch: 1000
next table: 1910
cur table: 1863
epoch: 1000
next table: 1883
cur table: 1910
epoch: 1000
next table: 1975
cur table: 1883
epoch: 1000
next table: 1897
cur table: 1975
epoch: 1000
next table: 1862
cur table: 1897
epoch: 1000
next table: 1886
cur table: 1862
epoch: 1000
next table: 1923
cur table: 1886
epoch: 1000
next table: 1894
cur table: 1923
epoch: 1000
next table: 1886
cur table: 1894
epoch: 1000
next table: 1937
cur table: 1886
epoch: 1000
next table: 2267
cur table: 1937
epoch: 1000
next table: 1882
cur table: 2267
epoch: 1000
next table: 1880
cur table: 1882
epoch: 1000
next table: 1944
cur table: 1880
epoch: 1000
next table: 1873
cur table: 1944
epoch: 1000
next table: 1896
cur table: 1873
epoch: 1000
next table: 1912
cur table: 1896
epoch: 1000
next table: 1840
cur table: 1912
epoch: 1000
next table: 1875
cur table: 1840
epoch: 1000
next table: 1879
cur table: 1875
epoch: 1000
next table: 1900
cur table: 1879
epoch: 1000
next table: 1880
cur table: 1900
epoch: 1000
next table: 1907
cur table: 1880
epoch: 1000
next table: 2035
cur table: 1907
epoch: 1000
next table: 2168
cur table: 2035
epoch: 1000
next table: 1912
cur table: 2168
epoch: 1000
next table: 1903
cur table: 1912
epoch: 1000
next table: 1925
cur table: 1903
epoch: 1000
next table: 1911
cur table: 1925
epoch: 1000
next table: 1914
cur table: 1911
epoch: 1000
next table: 1930
cur table: 1914
epoch: 1000
next table: 1800
cur table: 1930
epoch: 1000
next table: 1909
cur table: 1800
epoch: 1000
next table: 1914
cur table: 1909
epoch: 1000
next table: 1897
cur table: 1914
epoch: 1000
next table: 1896
cur table: 1897
epoch: 1000
next table: 1902
cur table: 1896
epoch: 1000
next table: 2178
cur table: 1902
epoch: 1000
next table: 24732
cur table: 22537
epoch: 1000
next table: 2034
cur table: 2178
epoch: 1000
next table: 1898
cur table: 2034
epoch: 1000
next table: 1891
cur table: 1898
epoch: 1000
next table: 1899
cur table: 1891
epoch: 1000
next table: 1875
cur table: 1899
epoch: 1000
next table: 1897
cur table: 1875
epoch: 1000
next table: 1870
cur table: 1897
epoch: 1000
next table: 1828
cur table: 1870
epoch: 1000
next table: 1902
cur table: 1828
epoch: 1000
next table: 1928
cur table: 1902
epoch: 1000
next table: 1881
cur table: 1928
epoch: 1000
next table: 1900
cur table: 1881
epoch: 1000
next table: 1954
cur table: 1900
epoch: 1000
next table: 2242
cur table: 1954
epoch: 1000
next table: 1893
cur table: 2242
epoch: 1000
next table: 1871
cur table: 1893
epoch: 1000
next table: 1942
cur table: 1871
epoch: 1000
next table: 1879
cur table: 1942
epoch: 1000
next table: 1907
cur table: 1879
epoch: 1000
next table: 1900
cur table: 1907
epoch: 1000
next table: 1842
cur table: 1900
epoch: 1000
next table: 1876
cur table: 1842
epoch: 1000
next table: 1877
cur table: 1876
epoch: 1000
next table: 1914
cur table: 1877
epoch: 1000
next table: 1861
cur table: 1914
epoch: 1000
next table: 1894
cur table: 1861
epoch: 1000
next table: 2065
cur table: 1894
epoch: 1000
next table: 2138
cur table: 2065
epoch: 1000
next table: 1886
cur table: 2138
epoch: 1000
next table: 1878
cur table: 1886
epoch: 1000
next table: 1878
cur table: 1878
epoch: 1000
next table: 1850
cur table: 1878
epoch: 1000
next table: 1902
cur table: 1850
epoch: 1000
next table: 1968
cur table: 1902
epoch: 1000
next table: 1815
cur table: 1968
epoch: 1000
next table: 1850
cur table: 1815
epoch: 1000
next table: 1882
cur table: 1850
epoch: 1000
next table: 1898
cur table: 1882
epoch: 1000
next table: 1877
cur table: 1898
epoch: 1000
next table: 1879
cur table: 1877
epoch: 1000
next table: 2086
cur table: 1879
epoch: 1000
next table: 2106
cur table: 2086
epoch: 1000
next table: 25297
cur table: 24732
epoch: 1000
next table: 1871
cur table: 2106
epoch: 1000
next table: 1898
cur table: 1871
epoch: 1000
next table: 1916
cur table: 1898
epoch: 1000
next table: 1870
cur table: 1916
epoch: 1000
next table: 1873
cur table: 1870
epoch: 1000
next table: 1917
cur table: 1873
epoch: 1000
next table: 1841
cur table: 1917
epoch: 1000
next table: 1886
cur table: 1841
epoch: 1000
next table: 1924
cur table: 1886
epoch: 1000
next table: 1893
cur table: 1924
epoch: 1000
next table: 1891
cur table: 1893
epoch: 1000
next table: 1913
cur table: 1891
epoch: 1000
next table: 2202
cur table: 1913
epoch: 1000
next table: 1980
cur table: 2202
epoch: 1000
next table: 1896
cur table: 1980
epoch: 1000
next table: 1898
cur table: 1896
epoch: 1000
next table: 1934
cur table: 1898
epoch: 1000
next table: 1908
cur table: 1934
epoch: 1000
next table: 1913
cur table: 1908
epoch: 1000
next table: 1854
cur table: 1913
epoch: 1000
next table: 1862
cur table: 1854
epoch: 1000
next table: 1893
cur table: 1862
epoch: 1000
next table: 1961
cur table: 1893
epoch: 1000
next table: 1907
cur table: 1961
epoch: 1000
next table: 1902
cur table: 1907
epoch: 1000
next table: 2041
cur table: 1902
epoch: 1000
next table: 2142
cur table: 2041
epoch: 1000
next table: 1897
cur table: 2142
epoch: 1000
next table: 1899
cur table: 1897
epoch: 1000
next table: 1909
cur table: 1899
epoch: 1000
next table: 1883
cur table: 1909
epoch: 1000
next table: 1881
cur table: 1883
epoch: 1000
next table: 1947
cur table: 1881
epoch: 1000
next table: 1850
cur table: 1947
epoch: 1000
next table: 1900
cur table: 1850
epoch: 1000
next table: 1926
cur table: 1900
epoch: 1000
next table: 1897
cur table: 1926
epoch: 1000
next table: 1895
cur table: 1897
epoch: 1000
next table: 1909
cur table: 1895
epoch: 1000
next table: 2164
cur table: 1909
epoch: 1000
next table: 2046
cur table: 2164
epoch: 1000
next table: 1886
cur table: 2046
epoch: 1000
next table: 1920
cur table: 1886
epoch: 1000
next table: 1948
cur table: 1920
epoch: 1000
next table: 1893
cur table: 1948
epoch: 1000
next table: 1870
cur table: 1893
epoch: 1000
next table: 27126
cur table: 25297
epoch: 1000
next table: 1903
cur table: 1870
epoch: 1000
next table: 1898
cur table: 1903
epoch: 1000
next table: 1932
cur table: 1898
epoch: 1000
next table: 1904
cur table: 1932
epoch: 1000
next table: 1886
cur table: 1904
epoch: 1000
next table: 1915
cur table: 1886
epoch: 1000
next table: 2060
cur table: 1915
epoch: 1000
next table: 2187
cur table: 2060
epoch: 1000
next table: 1932
cur table: 2187
epoch: 1000
next table: 1885
cur table: 1932
epoch: 1000
next table: 1952
cur table: 1885
epoch: 1000
next table: 1901
cur table: 1952
epoch: 1000
next table: 1897
cur table: 1901
epoch: 1000
next table: 1950
cur table: 1897
epoch: 1000
next table: 1858
cur table: 1950
epoch: 1000
next table: 1914
cur table: 1858
epoch: 1000
next table: 1946
cur table: 1914
epoch: 1000
next table: 1933
cur table: 1946
epoch: 1000
next table: 1884
cur table: 1933
epoch: 1000
next table: 1975
cur table: 1884
epoch: 1000
next table: 2276
cur table: 1975
epoch: 1000
next table: 1905
cur table: 2276
epoch: 1000
next table: 1903
cur table: 1905
epoch: 1000
next table: 1940
cur table: 1903
epoch: 1000
next table: 1874
cur table: 1940
epoch: 1000
next table: 1897
cur table: 1874
epoch: 1000
next table: 1865
cur table: 1897
epoch: 1000
next table: 1894
cur table: 1865
epoch: 1000
next table: 1826
cur table: 1894
epoch: 1000
next table: 1866
cur table: 1826
epoch: 1000
next table: 1915
cur table: 1866
epoch: 1000
next table: 1868
cur table: 1915
epoch: 1000
next table: 1904
cur table: 1868
epoch: 1000
next table: 1981
cur table: 1904
epoch: 1000
next table: 2205
cur table: 1981
epoch: 1000
next table: 1882
cur table: 2205
epoch: 1000
next table: 1900
cur table: 1882
epoch: 1000
next table: 1913
cur table: 1900
epoch: 1000
next table: 1894
cur table: 1913
epoch: 1000
next table: 1914
cur table: 1894
epoch: 1000
next table: 24664
cur table: 27126
epoch: 1000
next table: 1953
cur table: 1914
epoch: 1000
next table: 1853
cur table: 1953
epoch: 1000
next table: 1863
cur table: 1853
epoch: 1000
next table: 1877
cur table: 1863
epoch: 1000
next table: 1937
cur table: 1877
epoch: 1000
next table: 1863
cur table: 1937
epoch: 1000
next table: 1880
cur table: 1863
epoch: 1000
next table: 2087
cur table: 1880
epoch: 1000
next table: 2147
cur table: 2087
epoch: 1000
next table: 1890
cur table: 2147
epoch: 1000
next table: 1913
cur table: 1890
epoch: 1000
next table: 1898
cur table: 1913
epoch: 1000
next table: 1862
cur table: 1898
epoch: 1000
next table: 1875
cur table: 1862
epoch: 1000
next table: 2000
cur table: 1875
epoch: 1000
next table: 1829
cur table: 2000
epoch: 1000
next table: 1879
cur table: 1829
epoch: 1000
next table: 1909
cur table: 1879
epoch: 1000
next table: 1916
cur table: 1909
epoch: 1000
next table: 1904
cur table: 1916
epoch: 1000
next table: 1922
cur table: 1904
epoch: 1000
next table: 2206
cur table: 1922
epoch: 1000
next table: 2052
cur table: 2206
epoch: 1000
next table: 1887
cur table: 2052
epoch: 1000
next table: 1953
cur table: 1887
epoch: 1000
next table: 1923
cur table: 1953
epoch: 1000
next table: 1913
cur table: 1923
epoch: 1000
next table: 1868
cur table: 1913
epoch: 1000
next table: 1864
cur table: 1868
epoch: 1000
next table: 1885
cur table: 1864
epoch: 1000
next table: 1871
cur table: 1885
epoch: 1000
next table: 1951
cur table: 1871
epoch: 1000
next table: 1891
cur table: 1951
epoch: 1000
next table: 1915
cur table: 1891
epoch: 1000
next table: 2075
cur table: 1915
epoch: 1000
next table: 2198
cur table: 2075
epoch: 1000
next table: 1913
cur table: 2198
epoch: 1000
next table: 1909
cur table: 1913
epoch: 1000
next table: 1906
cur table: 1909
epoch: 1000
next table: 1887
cur table: 1906
epoch: 1000
next table: 1895
cur table: 1887
epoch: 1000
next table: 24389
cur table: 24664
epoch: 1000
next table: 1899
cur table: 1895
epoch: 1000
next table: 1860
cur table: 1899
epoch: 1000
next table: 1919
cur table: 1860
epoch: 1000
next table: 1926
cur table: 1919
epoch: 1000
next table: 1907
cur table: 1926
epoch: 1000
next table: 1926
cur table: 1907
epoch: 1000
next table: 1941
cur table: 1926
epoch: 1000
next table: 2222
cur table: 1941
epoch: 1000
next table: 1987
cur table: 2222
epoch: 1000
next table: 1861
cur table: 1987
epoch: 1000
next table: 1946
cur table: 1861
epoch: 1000
next table: 1860
cur table: 1946
epoch: 1000
next table: 1896
cur table: 1860
epoch: 1000
next table: 1894
cur table: 1896
epoch: 1000
next table: 1888
cur table: 1894
epoch: 1000
next table: 1877
cur table: 1888
epoch: 1000
next table: 1871
cur table: 1877
epoch: 1000
next table: 1943
cur table: 1871
epoch: 1000
next table: 1862
cur table: 1943
epoch: 1000
next table: 1882
cur table: 1862
epoch: 1000
next table: 2044
cur table: 1882
epoch: 1000
next table: 2170
cur table: 2044
epoch: 1000
next table: 1878
cur table: 2170
epoch: 1000
next table: 1867
cur table: 1878
epoch: 1000
next table: 1887
cur table: 1867
epoch: 1000
next table: 1837
cur table: 1887
epoch: 1000
next table: 1898
cur table: 1837
epoch: 1000
next table: 1887
cur table: 1898
epoch: 1000
next table: 1856
cur table: 1887
epoch: 1000
next table: 1870
cur table: 1856
epoch: 1000
next table: 1928
cur table: 1870
epoch: 1000
next table: 1918
cur table: 1928
epoch: 1000
next table: 1888
cur table: 1918
epoch: 1000
next table: 1880
cur table: 1888
epoch: 1000
next table: 2086
cur table: 1880
epoch: 1000
next table: 2087
cur table: 2086
epoch: 1000
next table: 1878
cur table: 2087
epoch: 1000
next table: 1913
cur table: 1878
epoch: 1000
next table: 1914
cur table: 1913
epoch: 1000
next table: 1913
cur table: 1914
epoch: 1000
next table: 1889
cur table: 1913
epoch: 1000
next table: 1900
cur table: 1889
epoch: 1000
next table: 25102
cur table: 24389
epoch: 1000
next table: 1857
cur table: 1900
epoch: 1000
next table: 1876
cur table: 1857
epoch: 1000
next table: 1915
cur table: 1876
epoch: 1000
next table: 1896
cur table: 1915
epoch: 1000
next table: 1896
cur table: 1896
epoch: 1000
next table: 1957
cur table: 1896
epoch: 1000
next table: 2253
cur table: 1957
epoch: 1000
next table: 1929
cur table: 2253
epoch: 1000
next table: 1903
cur table: 1929
epoch: 1000
next table: 1975
cur table: 1903
epoch: 1000
next table: 1885
cur table: 1975
epoch: 1000
next table: 1907
cur table: 1885
epoch: 1000
next table: 1910
cur table: 1907
epoch: 1000
next table: 1888
cur table: 1910
epoch: 1000
next table: 1912
cur table: 1888
epoch: 1000
next table: 1936
cur table: 1912
epoch: 1000
next table: 1939
cur table: 1936
epoch: 1000
next table: 1906
cur table: 1939
epoch: 1000
next table: 1926
cur table: 1906
epoch: 1000
next table: 2119
cur table: 1926
epoch: 1000
next table: 2148
cur table: 2119
epoch: 1000
next table: 1938
cur table: 2148
epoch: 1000
next table: 1900
cur table: 1938
epoch: 1000
next table: 1943
cur table: 1900
epoch: 1000
next table: 1922
cur table: 1943
epoch: 1000
next table: 1924
cur table: 1922
epoch: 1000
next table: 1865
cur table: 1924
epoch: 1000
next table: 1874
cur table: 1865
epoch: 1000
next table: 1916
cur table: 1874
epoch: 1000
next table: 1949
cur table: 1916
epoch: 1000
next table: 1924
cur table: 1949
epoch: 1000
next table: 1925
cur table: 1924
epoch: 1000
next table: 2049
cur table: 1925
epoch: 1000
next table: 2222
cur table: 2049
epoch: 1000
next table: 1908
cur table: 2222
epoch: 1000
next table: 1928
cur table: 1908
epoch: 1000
next table: 1929
cur table: 1928
epoch: 1000
next table: 1886
cur table: 1929
epoch: 1000
next table: 1890
cur table: 1886
epoch: 1000
next table: 1924
cur table: 1890
epoch: 1000
next table: 1862
cur table: 1924
epoch: 1000
next table: 25051
cur table: 25102
epoch: 1000
next table: 1903
cur table: 1862
epoch: 1000
next table: 1934
cur table: 1903
epoch: 1000
next table: 1901
cur table: 1934
epoch: 1000
next table: 1924
cur table: 1901
epoch: 1000
next table: 1930
cur table: 1924
epoch: 1000
next table: 2239
cur table: 1930
epoch: 1000
next table: 2000
cur table: 2239
epoch: 1000
next table: 1895
cur table: 2000
epoch: 1000
next table: 1946
cur table: 1895
epoch: 1000
next table: 1914
cur table: 1946
epoch: 1000
next table: 1932
cur table: 1914
epoch: 1000
next table: 1932
cur table: 1932
epoch: 1000
next table: 1850
cur table: 1932
epoch: 1000
next table: 1897
cur table: 1850
epoch: 1000
next table: 1921
cur table: 1897
epoch: 1000
next table: 1933
cur table: 1921
epoch: 1000
next table: 1893
cur table: 1933
epoch: 1000
next table: 1887
cur table: 1893
epoch: 1000
next table: 2138
cur table: 1887
epoch: 1000
next table: 2127
cur table: 2138
epoch: 1000
next table: 1916
cur table: 2127
epoch: 1000
next table: 1884
cur table: 1916
epoch: 1000
next table: 1971
cur table: 1884
epoch: 1000
next table: 1880
cur table: 1971
epoch: 1000
next table: 1911
cur table: 1880
epoch: 1000
next table: 1903
cur table: 1911
epoch: 1000
next table: 1875
cur table: 1903
epoch: 1000
next table: 1904
cur table: 1875
epoch: 1000
next table: 1951
cur table: 1904
epoch: 1000
next table: 1893
cur table: 1951
epoch: 1000
next table: 1908
cur table: 1893
epoch: 1000
next table: 2046
cur table: 1908
epoch: 1000
next table: 2219
cur table: 2046
epoch: 1000
next table: 1905
cur table: 2219
epoch: 1000
next table: 1917
cur table: 1905
epoch: 1000
next table: 1924
cur table: 1917
epoch: 1000
next table: 1873
cur table: 1924
epoch: 1000
next table: 1907
cur table: 1873
epoch: 1000
next table: 1883
cur table: 1907
epoch: 1000
next table: 1838
cur table: 1883
epoch: 1000
next table: 24215
cur table: 25051
epoch: 1000
next table: 1896
cur table: 1838
epoch: 1000
next table: 1969
cur table: 1896
epoch: 1000
next table: 1930
cur table: 1969
epoch: 1000
next table: 1901
cur table: 1930
epoch: 1000
next table: 1906
cur table: 1901
epoch: 1000
next table: 2140
cur table: 1906
epoch: 1000
next table: 2115
cur table: 2140
epoch: 1000
next table: 1928
cur table: 2115
epoch: 1000
next table: 1898
cur table: 1928
epoch: 1000
next table: 1948
cur table: 1898
epoch: 1000
next table: 1926
cur table: 1948
epoch: 1000
next table: 1923
cur table: 1926
epoch: 1000
next table: 1898
cur table: 1923
epoch: 1000
next table: 1902
cur table: 1898
epoch: 1000
next table: 1940
cur table: 1902
epoch: 1000
next table: 1937
cur table: 1940
epoch: 1000
next table: 1898
cur table: 1937
epoch: 1000
next table: 1907
cur table: 1898
epoch: 1000
next table: 1994
cur table: 1907
epoch: 1000
next table: 2210
cur table: 1994
epoch: 1000
next table: 1917
cur table: 2210
epoch: 1000
next table: 1912
cur table: 1917
epoch: 1000
next table: 1887
cur table: 1912
epoch: 1000
next table: 1876
cur table: 1887
epoch: 1000
next table: 1882
cur table: 1876
epoch: 1000
next table: 1949
cur table: 1882
epoch: 1000
next table: 1891
cur table: 1949
epoch: 1000
next table: 1898
cur table: 1891
epoch: 1000
next table: 1900
cur table: 1898
epoch: 1000
next table: 1911
cur table: 1900
epoch: 1000
next table: 1852
cur table: 1911
epoch: 1000
next table: 1874
cur table: 1852
epoch: 1000
next table: 2071
cur table: 1874
epoch: 1000
next table: 2098
cur table: 2071
epoch: 1000
next table: 1913
cur table: 2098
epoch: 1000
next table: 1872
cur table: 1913
epoch: 1000
next table: 1916
cur table: 1872
epoch: 1000
next table: 1877
cur table: 1916
epoch: 1000
next table: 1866
cur table: 1877
epoch: 1000
next table: 1955
cur table: 1866
epoch: 1000
next table: 1842
cur table: 1955
epoch: 1000
next table: 1890
cur table: 1842
epoch: 1000
next table: 25087
cur table: 24215
epoch: 1000
next table: 1897
cur table: 1890
epoch: 1000
next table: 1917
cur table: 1897
epoch: 1000
next table: 1907
cur table: 1917
epoch: 1000
next table: 1903
cur table: 1907
epoch: 1000
next table: 2185
cur table: 1903
epoch: 1000
next table: 2041
cur table: 2185
epoch: 1000
next table: 1903
cur table: 2041
epoch: 1000
next table: 1910
cur table: 1903
epoch: 1000
next table: 1937
cur table: 1910
epoch: 1000
next table: 1880
cur table: 1937
epoch: 1000
next table: 1933
cur table: 1880
epoch: 1000
next table: 1945
cur table: 1933
epoch: 1000
next table: 1889
cur table: 1945
epoch: 1000
next table: 1882
cur table: 1889
epoch: 1000
next table: 1965
cur table: 1882
epoch: 1000
next table: 1888
cur table: 1965
epoch: 1000
next table: 1901
cur table: 1888
epoch: 1000
next table: 2001
cur table: 1901
epoch: 1000
next table: 2243
cur table: 2001
epoch: 1000
next table: 1918
cur table: 2243
epoch: 1000
next table: 1920
cur table: 1918
epoch: 1000
next table: 1900
cur table: 1920
epoch: 1000
next table: 1903
cur table: 1900
epoch: 1000
next table: 1923
cur table: 1903
epoch: 1000
next table: 1931
cur table: 1923
epoch: 1000
next table: 1830
cur table: 1931
epoch: 1000
next table: 1903
cur table: 1830
epoch: 1000
next table: 1891
cur table: 1903
epoch: 1000
next table: 1918
cur table: 1891
epoch: 1000
next table: 1891
cur table: 1918
epoch: 1000
next table: 1900
cur table: 1891
epoch: 1000
next table: 2133
cur table: 1900
epoch: 1000
next table: 2090
cur table: 2133
epoch: 1000
next table: 1888
cur table: 2090
epoch: 1000
next table: 1877
cur table: 1888
epoch: 1000
next table: 1921
cur table: 1877
epoch: 1000
next table: 1870
cur table: 1921
epoch: 1000
next table: 1886
cur table: 1870
epoch: 1000
next table: 1953
cur table: 1886
epoch: 1000
next table: 1816
cur table: 1953
epoch: 1000
next table: 1920
cur table: 1816
epoch: 1000
next table: 1925
cur table: 1920
epoch: 1000
next table: 1893
cur table: 1925
epoch: 1000
next table: 1893
cur table: 1893
epoch: 1000
next table: 1901
cur table: 1893
epoch: 1000
next table: 27243
cur table: 25087
epoch: 1000
next table: 2200
cur table: 1901
epoch: 1000
next table: 1985
cur table: 2200
epoch: 1000
next table: 1893
cur table: 1985
epoch: 1000
next table: 1895
cur table: 1893
epoch: 1000
next table: 1904
cur table: 1895
epoch: 1000
next table: 1885
cur table: 1904
epoch: 1000
next table: 1992
cur table: 1885
epoch: 1000
next table: 1872
cur table: 1992
epoch: 1000
next table: 1898
cur table: 1872
epoch: 1000
next table: 1884
cur table: 1898
epoch: 1000
next table: 1926
cur table: 1884
epoch: 1000
next table: 1866
cur table: 1926
epoch: 1000
next table: 1858
cur table: 1866
epoch: 1000
next table: 1984
cur table: 1858
epoch: 1000
next table: 2271
cur table: 1984
epoch: 1000
next table: 1875
cur table: 2271
epoch: 1000
next table: 1918
cur table: 1875
epoch: 1000
next table: 1901
cur table: 1918
epoch: 1000
next table: 1866
cur table: 1901
epoch: 1000
next table: 1916
cur table: 1866
epoch: 1000
next table: 1887
cur table: 1916
epoch: 1000
next table: 1880
cur table: 1887
epoch: 1000
next table: 1887
cur table: 1880
epoch: 1000
next table: 1892
cur table: 1887
epoch: 1000
next table: 1905
cur table: 1892
epoch: 1000
next table: 1887
cur table: 1905
epoch: 1000
next table: 1875
cur table: 1887
epoch: 1000
next table: 2162
cur table: 1875
epoch: 1000
next table: 2105
cur table: 2162
epoch: 1000
next table: 1899
cur table: 2105
epoch: 1000
next table: 1889
cur table: 1899
epoch: 1000
next table: 1928
cur table: 1889
epoch: 1000
next table: 1909
cur table: 1928
epoch: 1000
next table: 1871
cur table: 1909
epoch: 1000
next table: 1427
cur table: 1871
epoch: 1000
next table: 1861
cur table: 1427
epoch: 1000
next table: 1824
cur table: 1861
epoch: 1000
next table: 1878
cur table: 1824
epoch: 1000
next table: 1903
cur table: 1878
epoch: 1000
next table: 1895
cur table: 1903
epoch: 1000
next table: 1876
cur table: 1895
epoch: 1000
next table: 1909
cur table: 1876
epoch: 1000
next table: 2178
cur table: 1909
epoch: 1000
next table: 2030
cur table: 2178
epoch: 1000
next table: 26044
cur table: 27243
epoch: 1000
next table: 1882
cur table: 2030
epoch: 1000
next table: 1895
cur table: 1882
epoch: 1000
next table: 1912
cur table: 1895
epoch: 1000
next table: 1875
cur table: 1912
epoch: 1000
next table: 1948
cur table: 1875
epoch: 1000
next table: 1837
cur table: 1948
epoch: 1000
next table: 1879
cur table: 1837
epoch: 1000
next table: 1882
cur table: 1879
epoch: 1000
next table: 1906
cur table: 1882
epoch: 1000
next table: 1907
cur table: 1906
epoch: 1000
next table: 1896
cur table: 1907
epoch: 1000
next table: 1985
cur table: 1896
epoch: 1000
next table: 2227
cur table: 1985
epoch: 1000
next table: 1912
cur table: 2227
epoch: 1000
next table: 1923
cur table: 1912
epoch: 1000
next table: 1908
cur table: 1923
epoch: 1000
next table: 1897
cur table: 1908
epoch: 1000
next table: 1923
cur table: 1897
epoch: 1000
next table: 1930
cur table: 1923
epoch: 1000
next table: 1830
cur table: 1930
epoch: 1000
next table: 1868
cur table: 1830
epoch: 1000
next table: 1876
cur table: 1868
epoch: 1000
next table: 1909
cur table: 1876
epoch: 1000
next table: 1900
cur table: 1909
epoch: 1000
next table: 1893
cur table: 1900
epoch: 1000
next table: 2034
cur table: 1893
epoch: 1000
next table: 2150
cur table: 2034
epoch: 1000
next table: 1906
cur table: 2150
epoch: 1000
next table: 1894
cur table: 1906
epoch: 1000
next table: 1913
cur table: 1894
epoch: 1000
next table: 1866
cur table: 1913
epoch: 1000
next table: 1886
cur table: 1866
epoch: 1000
next table: 1911
cur table: 1886
epoch: 1000
next table: 1865
cur table: 1911
epoch: 1000
next table: 1917
cur table: 1865
epoch: 1000
next table: 1906
cur table: 1917
epoch: 1000
next table: 1903
cur table: 1906
epoch: 1000
next table: 1866
cur table: 1903
epoch: 1000
next table: 1875
cur table: 1866
epoch: 1000
next table: 2170
cur table: 1875
epoch: 1000
next table: 2022
cur table: 2170
epoch: 1000
next table: 1898
cur table: 2022
epoch: 1000
next table: 1874
cur table: 1898
epoch: 1000
next table: 1915
cur table: 1874
epoch: 1000
next table: 1896
cur table: 1915
epoch: 1000
next table: 1909
cur table: 1896
epoch: 1000
next table: 27515
cur table: 26044
epoch: 1000
next table: 1874
cur table: 1909
epoch: 1000
next table: 1848
cur table: 1874
epoch: 1000
next table: 1912
cur table: 1848
epoch: 1000
next table: 1893
cur table: 1912
epoch: 1000
next table: 1844
cur table: 1893
epoch: 1000
next table: 1866
cur table: 1844
epoch: 1000
next table: 1872
cur table: 1866
epoch: 1000
next table: 2224
cur table: 1872
epoch: 1000
next table: 1980
cur table: 2224
epoch: 1000
next table: 1888
cur table: 1980
epoch: 1000
next table: 1899
cur table: 1888
epoch: 1000
next table: 1876
cur table: 1899
epoch: 1000
next table: 1908
cur table: 1876
epoch: 1000
next table: 1970
cur table: 1908
epoch: 1000
next table: 1846
cur table: 1970
epoch: 1000
next table: 1868
cur table: 1846
epoch: 1000
next table: 1886
cur table: 1868
epoch: 1000
next table: 1922
cur table: 1886
epoch: 1000
next table: 1862
cur table: 1922
epoch: 1000
next table: 1879
cur table: 1862
epoch: 1000
next table: 1937
cur table: 1879
epoch: 1000
next table: 2242
cur table: 1937
epoch: 1000
next table: 1897
cur table: 2242
epoch: 1000
next table: 1889
cur table: 1897
epoch: 1000
next table: 1914
cur table: 1889
epoch: 1000
next table: 1919
cur table: 1914
epoch: 1000
next table: 1919
cur table: 1919
epoch: 1000
next table: 1948
cur table: 1919
epoch: 1000
next table: 1875
cur table: 1948
epoch: 1000
next table: 1908
cur table: 1875
epoch: 1000
next table: 1913
cur table: 1908
epoch: 1000
next table: 1918
cur table: 1913
epoch: 1000
next table: 1903
cur table: 1918
epoch: 1000
next table: 1883
cur table: 1903
epoch: 1000
next table: 2109
cur table: 1883
epoch: 1000
next table: 2093
cur table: 2109
epoch: 1000
next table: 1897
cur table: 2093
epoch: 1000
next table: 1874
cur table: 1897
epoch: 1000
next table: 1906
cur table: 1874
epoch: 1000
next table: 1880
cur table: 1906
epoch: 1000
next table: 1901
cur table: 1880
epoch: 1000
next table: 1951
cur table: 1901
epoch: 1000
next table: 1846
cur table: 1951
epoch: 1000
next table: 1882
cur table: 1846
epoch: 1000
next table: 1841
cur table: 1882
epoch: 1000
next table: 1924
cur table: 1841
epoch: 1000
next table: 27212
cur table: 27515
epoch: 1000
next table: 1886
cur table: 1924
epoch: 1000
next table: 1893
cur table: 1886
epoch: 1000
next table: 2183
cur table: 1893
Heartbeat CPU 0 instructions: 10000001 cycles: 3716750 heartbeat IPC: 2.69052 cumulative IPC: 2.69052 (Simulation time: 0 hr 10 min 33 sec) 
epoch: 1000
next table: 2013
cur table: 2183
epoch: 1000
next table: 1865
cur table: 2013
epoch: 1000
next table: 1859
cur table: 1865
epoch: 1000
next table: 1920
cur table: 1859
epoch: 1000
next table: 1899
cur table: 1920
epoch: 1000
next table: 1906
cur table: 1899
epoch: 1000
next table: 1925
cur table: 1906
epoch: 1000
next table: 1851
cur table: 1925
epoch: 1000
next table: 1899
cur table: 1851
epoch: 1000
next table: 1921
cur table: 1899
epoch: 1000
next table: 1925
cur table: 1921
epoch: 1000
next table: 1883
cur table: 1925
epoch: 1000
next table: 1960
cur table: 1883
epoch: 1000
next table: 2239
cur table: 1960
epoch: 1000
next table: 1919
cur table: 2239
epoch: 1000
next table: 1901
cur table: 1919
epoch: 1000
[...]
cur table: 2218
epoch: 1000
next table: 1816
cur table: 1814
epoch: 1000
next table: 1793
cur table: 1816
epoch: 1000
next table: 1854
cur table: 1793
epoch: 1000
next table: 1787
cur table: 1854
epoch: 1000
next table: 1768
cur table: 1787
epoch: 1000
next table: 22896
cur table: 22527
epoch: 1000
next table: 1959
cur table: 1768
epoch: 1000
next table: 1762
cur table: 1959
epoch: 1000
next table: 1839
cur table: 1762
epoch: 1000
next table: 1778
cur table: 1839
epoch: 1000
next table: 1809
cur table: 1778
epoch: 1000
next table: 1842
cur table: 1809
epoch: 1000
next table: 1780
cur table: 1842
epoch: 1000
next table: 1887
cur table: 1780
epoch: 1000
next table: 2220
cur table: 1887
epoch: 1000
next table: 1821
cur table: 2220
epoch: 1000
next table: 1771
cur table: 1821
epoch: 1000
next table: 1781
cur table: 1771
epoch: 1000
next table: 1816
cur table: 1781
epoch: 1000
next table: 1795
cur table: 1816
epoch: 1000
next table: 1755
cur table: 1795
epoch: 1000
next table: 1892
cur table: 1755
epoch: 1000
next table: 1724
cur table: 1892
epoch: 1000
next table: 1749
cur table: 1724
epoch: 1000
next table: 1788
cur table: 1749
epoch: 1000
next table: 1799
cur table: 1788
epoch: 1000
next table: 1811
cur table: 1799
epoch: 1000
next table: 1837
cur table: 1811
epoch: 1000
next table: 1799
cur table: 1837
epoch: 1000
next table: 2233
cur table: 1799
epoch: 1000
next table: 1876
cur table: 2233
epoch: 1000
next table: 1809
cur table: 1876
epoch: 1000
next table: 1755
cur table: 1809
epoch: 1000
next table: 1859
cur table: 1755
epoch: 1000
next table: 1820
cur table: 1859
epoch: 1000
next table: 1768
cur table: 1820
epoch: 1000
next table: 1951
cur table: 1768
epoch: 1000
next table: 1755
cur table: 1951
epoch: 1000
next table: 1826
cur table: 1755
epoch: 1000
next table: 1763
cur table: 1826
epoch: 1000
next table: 1859
cur table: 1763
epoch: 1000
next table: 1864
cur table: 1859
epoch: 1000
next table: 1817
cur table: 1864
epoch: 1000
next table: 1896
cur table: 1817
epoch: 1000
next table: 2291
cur table: 1896
epoch: 1000
next table: 1819
cur table: 2291
epoch: 1000
next table: 1792
cur table: 1819
epoch: 1000
next table: 1806
cur table: 1792
epoch: 1000
next table: 1807
cur table: 1806
epoch: 1000
next table: 1796
cur table: 1807
epoch: 1000
next table: 1760
cur table: 1796
epoch: 1000
next table: 1918
cur table: 1760
epoch: 1000
next table: 1731
cur table: 1918
epoch: 1000
next table: 1787
cur table: 1731
epoch: 1000
next table: 1747
cur table: 1787
epoch: 1000
next table: 1809
cur table: 1747
epoch: 1000
next table: 22387
cur table: 22896
epoch: 1000
next table: 1815
cur table: 1809
epoch: 1000
next table: 1790
cur table: 1815
epoch: 1000
next table: 1814
cur table: 1790
epoch: 1000
next table: 2142
cur table: 1814
epoch: 1000
next table: 1912
cur table: 2142
epoch: 1000
next table: 1821
cur table: 1912
epoch: 1000
next table: 1748
cur table: 1821
epoch: 1000
next table: 1874
cur table: 1748
epoch: 1000
next table: 1806
cur table: 1874
epoch: 1000
next table: 1733
cur table: 1806
epoch: 1000
next table: 1892
cur table: 1733
epoch: 1000
next table: 1801
cur table: 1892
epoch: 1000
next table: 1774
cur table: 1801
epoch: 1000
next table: 1762
cur table: 1774
epoch: 1000
next table: 1832
cur table: 1762
epoch: 1000
next table: 1832
cur table: 1832
Heartbeat CPU 0 instructions: 100000001 cycles: 224442351 heartbeat IPC: 0.225216 cumulative IPC: 0.242942 (Simulation time: 1 hr 43 min 13 sec) 
Finished CPU 0 instructions: 50000000 cycles: 205810201 cumulative IPC: 0.242942 (Simulation time: 1 hr 43 min 13 sec) 

ChampSim completed all CPUs

Region of Interest Statistics

CPU 0 cumulative IPC: 0.242942 instructions: 50000000 cycles: 205810201
ITLB TOTAL     ACCESS:    8028471  HIT:    8028471  MISS:          0  HIT %:        100  MISS %:          0   MPKI: 0
ITLB LOAD TRANSLATION ACCESS:    8028471  HIT:    8028471  MISS:          0  HIT %:        100  MISS %:          0   MPKI: 0
ITLB PREFETCH  REQUESTED:          0  ISSUED:          0  USEFUL:          0  USELESS:          0
ITLB USEFUL LOAD PREFETCHES:          0 PREFETCH ISSUED TO LOWER LEVEL:          0  ACCURACY: -nan
ITLB TIMELY PREFETCHES:          0 LATE PREFETCHES: 0 DROPPED PREFETCHES: 0
ITLB PREFETCHES SAME FILL-ORIGIN LEVEL: 0 DIFFERENT FILL-ORIGIN LEVEL: 0
ITLB AVERAGE MISS LATENCY: -nan cycles
ITLB RQ	ACCESS:    8147397	FORWARD:          0	MERGED:     118927	TO_CACHE:    8028470

Revised Interactions: positive negative neutral
ITLB_interactions 0 0 0 -nan -nan -nan
DTLB TOTAL     ACCESS:   10642048  HIT:    6390491  MISS:    4251557  HIT %:    60.0494  MISS %:    39.9506   MPKI: 85.0311
DTLB LOAD TRANSLATION ACCESS:   10642048  HIT:    6390491  MISS:    4251557  HIT %:    60.0494  MISS %:    39.9506   MPKI: 85.0311
DTLB PREFETCH  REQUESTED:          0  ISSUED:          0  USEFUL:          0  USELESS:          0
DTLB USEFUL LOAD PREFETCHES:          0 PREFETCH ISSUED TO LOWER LEVEL:          0  ACCURACY: -nan
DTLB TIMELY PREFETCHES:          0 LATE PREFETCHES: 0 DROPPED PREFETCHES: 0
DTLB PREFETCHES SAME FILL-ORIGIN LEVEL: 0 DIFFERENT FILL-ORIGIN LEVEL: 0
DTLB AVERAGE MISS LATENCY: 11.0139 cycles
DTLB RQ	ACCESS:   11832482	FORWARD:          0	MERGED:    1114639	TO_CACHE:   10717843

Revised Interactions: positive negative neutral
DTLB_interactions 0 0 0 -nan -nan -nan
STLB TOTAL     ACCESS:    4251557  HIT:    4194499  MISS:      57058  HIT %:     98.658  MISS %:    1.34205   MPKI: 1.14116
STLB LOAD TRANSLATION ACCESS:    4251557  HIT:    4194499  MISS:      57058  HIT %:     98.658  MISS %:    1.34205   MPKI: 1.14116
STLB PREFETCH  REQUESTED:          0  ISSUED:          0  USEFUL:          0  USELESS:          0
STLB USEFUL LOAD PREFETCHES:          0 PREFETCH ISSUED TO LOWER LEVEL:          0  ACCURACY: -nan
STLB TIMELY PREFETCHES:          0 LATE PREFETCHES: 0 DROPPED PREFETCHES: 0
STLB PREFETCHES SAME FILL-ORIGIN LEVEL: 0 DIFFERENT FILL-ORIGIN LEVEL: 0
STLB AVERAGE MISS LATENCY: 125.645 cycles
STLB RQ	ACCESS:    4251557	FORWARD:          0	MERGED:          0	TO_CACHE:    4251557

Revised Interactions: positive negative neutral
STLB_interactions 0 0 0 -nan -nan -nan
STLB Hit, L1D data hit: 0
STLB Hit, L2C data hit: 0
STLB Hit, LLC data hit: 0
STLB Hit, LLC data miss: 0
STLB STLB hints to L2: 0
L1D TOTAL     ACCESS:   11649364  HIT:    4216254  MISS:    7433110  HIT %:     36.193  MISS %:     63.807   MPKI: 148.662
L1D LOAD      ACCESS:   10619356  HIT:    3203932  MISS:    7415424  HIT %:    30.1707  MISS %:    69.8293   MPKI: 148.308
L1D RFO       ACCESS:    1030008  HIT:    1012322  MISS:      17686  HIT %:    98.2829  MISS %:    1.71707   MPKI: 0.35372
L1D PREFETCH  REQUESTED:          0  ISSUED:          0  USEFUL:          0  USELESS:          0
L1D USEFUL LOAD PREFETCHES:          0 PREFETCH ISSUED TO LOWER LEVEL:          0  ACCURACY: -nan
L1D TIMELY PREFETCHES:          0 LATE PREFETCHES: 0 DROPPED PREFETCHES: 0
L1D PREFETCHES SAME FILL-ORIGIN LEVEL: 0 DIFFERENT FILL-ORIGIN LEVEL: 0
L1D AVERAGE MISS LATENCY: 44.3145 cycles
L1D RQ	ACCESS:   17782457	FORWARD:          0	MERGED:    6859570	TO_CACHE:   10758464
L1D WQ	ACCESS:    1110839	FORWARD:     164423	MERGED:      36821	TO_CACHE:    1074018

Revised Interactions: positive negative neutral
L1D_interactions 0 0 0 -nan -nan -nan
L1D UNIQUE REGIONS ACCESSED: 0
L1D REGIONS CONFLICTS: 0
L1D Cross Page Prefetch Requests: 0
L1D Same Page Prefetch Requests: 0
L1D ROI Sum of L1D PQ occupancy: 0
L1D PREFETCHES PUSHED FROM L2C: 0
L1I TOTAL     ACCESS:    8147397  HIT:    8147397  MISS:          0  HIT %:        100  MISS %:          0   MPKI: 0
L1I LOAD      ACCESS:    8147397  HIT:    8147397  MISS:          0  HIT %:        100  MISS %:          0   MPKI: 0
L1I PREFETCH  REQUESTED:          0  ISSUED:          0  USEFUL:          0  USELESS:          0
L1I USEFUL LOAD PREFETCHES:          0 PREFETCH ISSUED TO LOWER LEVEL:          0  ACCURACY: -nan
L1I TIMELY PREFETCHES:          0 LATE PREFETCHES: 0 DROPPED PREFETCHES: 0
L1I PREFETCHES SAME FILL-ORIGIN LEVEL: 0 DIFFERENT FILL-ORIGIN LEVEL: 0
L1I AVERAGE MISS LATENCY: -nan cycles
L1I RQ	ACCESS:   11091438	FORWARD:          0	MERGED:    2944041	TO_CACHE:    8147397

Revised Interactions: positive negative neutral
L1I_interactions 0 0 0 -nan -nan -nan
BTB TOTAL     ACCESS:   14775492  HIT:   14712698  MISS:      62794  HIT %:     99.575  MISS %:   0.424988   MPKI: 1.25588
BTB BRANCH_DIRECT_JUMP	ACCESS:    1899339  HIT:    1899303  MISS:         36
BTB BRANCH_INDIRECT	ACCESS:          0  HIT:          0  MISS:          0
BTB BRANCH_CONDITIONAL	ACCESS:   12452165  HIT:   12452086  MISS:         79
BTB BRANCH_DIRECT_CALL	ACCESS:     195242  HIT:     195225  MISS:         17
BTB BRANCH_INDIRECT_CALL	ACCESS:      16752  HIT:      16744  MISS:          8
BTB BRANCH_RETURN	ACCESS:     211994  HIT:     149340  MISS:      62654
BTB BRANCH_OTHER ACCESS:          0  HIT:          0  MISS:          0

L2C TOTAL     ACCESS:   14143793  HIT:    5066776  MISS:    9077017  HIT %:    35.8233  MISS %:    64.1767   MPKI: 181.54
L2C LOAD      ACCESS:    7415419  HIT:    3370331  MISS:    4045088  HIT %:    45.4503  MISS %:    54.5497   MPKI: 80.9018
L2C DATA LOAD MPKI: 80.9018
L2C INSTRUCTION LOAD MPKI: 0
L2C RFO       ACCESS:      17686  HIT:       2255  MISS:      15431  HIT %:    12.7502  MISS %:    87.2498   MPKI: 0.30862
L2C PREFETCH  ACCESS:    6509847  HIT:    1569847  MISS:    4940000  HIT %:     24.115  MISS %:     75.885   MPKI: 98.8
L2C DATA PREFETCH MPKI: 98.8
L2C INSTRUCTION PREFETCH MPKI: 0
L2C WRITEBACK ACCESS:     143248  HIT:      87274  MISS:      55974  HIT %:    60.9251  MISS %:    39.0749   MPKI: 1.11948
L2C LOAD TRANSLATION ACCESS:      57593  HIT:      37069  MISS:      20524  HIT %:    64.3637  MISS %:    35.6363   MPKI: 0.41048
L2C PREFETCH  REQUESTED:    6898478  ISSUED:    6898478  USEFUL:    2344823  USELESS:    2594926
L2C USEFUL LOAD PREFETCHES:    2344823 PREFETCH ISSUED TO LOWER LEVEL:    5171553  ACCURACY: 45.3408
L2C TIMELY PREFETCHES:    2344823 LATE PREFETCHES: 231552 DROPPED PREFETCHES: 0
L2C PREFETCHES SAME FILL-ORIGIN LEVEL: 5171553 DIFFERENT FILL-ORIGIN LEVEL: 0
L2C AVERAGE MISS LATENCY: 110.475 cycles
L2C RQ	ACCESS:    7490701	FORWARD:          0	MERGED:          0	TO_CACHE:    7490696
L2C WQ	ACCESS:     143248	FORWARD:          5	MERGED:          0	TO_CACHE:     143248
L2C PQ	ACCESS:    6898478	FORWARD:          0	MERGED:       1614	TO_CACHE:    6896864

Revised Interactions: positive negative neutral
L2C_interactions 2372153 2584342 980987 39.9522 43.5259 16.5219
L2C Instructions Evicting Data 0
L2C Translations Evicting Data 20457
L2C Data Evicting Data 8980249
L2C Instructions Evicting Instructions 0
L2C Translations Evicting Instructions 0
L2C Data Evicting Instructions 0
L2C Instructions Evicting Translations 0
L2C Translations Evicting Translations 67
L2C Data Evicting Translations 20270
L2C Dense regions hint from L2: 0
PSCL5 TOTAL     ACCESS:      57058  HIT:      57058  MISS:          0  HIT %:        100  MISS %:          0   MPKI: 0
PSCL5 LOAD TRANSLATION ACCESS:      57058  HIT:      57058  MISS:          0  HIT %:        100  MISS %:          0   MPKI: 0
PSCL5 PREFETCH  REQUESTED:          0  ISSUED:          0  USEFUL:          0  USELESS:          0
PSCL5 USEFUL LOAD PREFETCHES:          0 PREFETCH ISSUED TO LOWER LEVEL:          0  ACCURACY: -nan
PSCL5 TIMELY PREFETCHES:          0 LATE PREFETCHES: 0 DROPPED PREFETCHES: 0
PSCL5 PREFETCHES SAME FILL-ORIGIN LEVEL: 0 DIFFERENT FILL-ORIGIN LEVEL: 0

Revised Interactions: positive negative neutral
PSCL5_interactions 0 0 0 -nan -nan -nan
PSCL4 TOTAL     ACCESS:      57058  HIT:      57058  MISS:          0  HIT %:        100  MISS %:          0   MPKI: 0
PSCL4 LOAD TRANSLATION ACCESS:      57058  HIT:      57058  MISS:          0  HIT %:        100  MISS %:          0   MPKI: 0
PSCL4 PREFETCH  REQUESTED:          0  ISSUED:          0  USEFUL:          0  USELESS:          0
PSCL4 USEFUL LOAD PREFETCHES:          0 PREFETCH ISSUED TO LOWER LEVEL:          0  ACCURACY: -nan
PSCL4 TIMELY PREFETCHES:          0 LATE PREFETCHES: 0 DROPPED PREFETCHES: 0
PSCL4 PREFETCHES SAME FILL-ORIGIN LEVEL: 0 DIFFERENT FILL-ORIGIN LEVEL: 0

Revised Interactions: positive negative neutral
PSCL4_interactions 0 0 0 -nan -nan -nan
PSCL3 TOTAL     ACCESS:      57058  HIT:      57058  MISS:          0  HIT %:        100  MISS %:          0   MPKI: 0
PSCL3 LOAD TRANSLATION ACCESS:      57058  HIT:      57058  MISS:          0  HIT %:        100  MISS %:          0   MPKI: 0
PSCL3 PREFETCH  REQUESTED:          0  ISSUED:          0  USEFUL:          0  USELESS:          0
PSCL3 USEFUL LOAD PREFETCHES:          0 PREFETCH ISSUED TO LOWER LEVEL:          0  ACCURACY: -nan
PSCL3 TIMELY PREFETCHES:          0 LATE PREFETCHES: 0 DROPPED PREFETCHES: 0
PSCL3 PREFETCHES SAME FILL-ORIGIN LEVEL: 0 DIFFERENT FILL-ORIGIN LEVEL: 0

Revised Interactions: positive negative neutral
PSCL3_interactions 0 0 0 -nan -nan -nan
PSCL2 TOTAL     ACCESS:      57058  HIT:      56324  MISS:        734  HIT %:    98.7136  MISS %:    1.28641   MPKI: 0.01468
PSCL2 LOAD TRANSLATION ACCESS:      57058  HIT:      56324  MISS:        734  HIT %:    98.7136  MISS %:    1.28641   MPKI: 0.01468
PSCL2 PREFETCH  REQUESTED:          0  ISSUED:          0  USEFUL:          0  USELESS:          0
PSCL2 USEFUL LOAD PREFETCHES:          0 PREFETCH ISSUED TO LOWER LEVEL:          0  ACCURACY: -nan
PSCL2 TIMELY PREFETCHES:          0 LATE PREFETCHES: 0 DROPPED PREFETCHES: 0
PSCL2 PREFETCHES SAME FILL-ORIGIN LEVEL: 0 DIFFERENT FILL-ORIGIN LEVEL: 0

Revised Interactions: positive negative neutral
PSCL2_interactions 0 0 0 -nan -nan -nan
LLC TOTAL     ACCESS:    9145337  HIT:    5085214  MISS:    4060123  HIT %:    55.6044  MISS %:    44.3956   MPKI: 81.2025
LLC LOAD      ACCESS:    3813534  HIT:    3404157  MISS:     409377  HIT %:    89.2652  MISS %:    10.7348   MPKI: 8.18754
LLC RFO       ACCESS:      15431  HIT:      14261  MISS:       1170  HIT %:    92.4179  MISS %:    7.58214   MPKI: 0.0234
LLC PREFETCH  ACCESS:    5171551  HIT:    1542600  MISS:    3628951  HIT %:    29.8286  MISS %:    70.1714   MPKI: 72.579
LLC WRITEBACK ACCESS:     124297  HIT:     111825  MISS:      12472  HIT %:     89.966  MISS %:     10.034   MPKI: 0.24944
LLC LOAD TRANSLATION ACCESS:      20524  HIT:      12371  MISS:       8153  HIT %:    60.2758  MISS %:    39.7242   MPKI: 0.16306
LLC PREFETCH  REQUESTED:          0  ISSUED:          0  USEFUL:          4  USELESS:         14
LLC USEFUL LOAD PREFETCHES:          4 PREFETCH ISSUED TO LOWER LEVEL:    3628952  ACCURACY: 0.000110225
LLC TIMELY PREFETCHES:          4 LATE PREFETCHES: 0 DROPPED PREFETCHES: 0
LLC PREFETCHES SAME FILL-ORIGIN LEVEL: 0 DIFFERENT FILL-ORIGIN LEVEL: 0
LLC AVERAGE MISS LATENCY: 183.085 cycles
LLC RQ	ACCESS:    3849489	FORWARD:          0	MERGED:          0	TO_CACHE:    3849488
LLC WQ	ACCESS:     124297	FORWARD:          2	MERGED:          0	TO_CACHE:     124297
LLC PQ	ACCESS:    5171553	FORWARD:          0	MERGED:          0	TO_CACHE:    5171552

Revised Interactions: positive negative neutral
LLC_interactions 4 0 10 28.5714 0 71.4286
LLC Dense regions hint to LLC: 0

RAW hits: 127870
Loads Generated: 17910327
Loads sent to L1D: 17782457
Stores Generated: 1110839
Stores sent to L1D: 1110839
Major fault: 0 Minor fault: 86300
Allocated PAGES: 86300
[Bingo] PHT Access: 4256704
[Bingo] PHT Hit PC+Addr: 489972
[Bingo] PHT Hit PC+Offs: 3757909
[Bingo] PHT Miss: 8823
[Bingo] Prefetch PC+Addr: 0
[Bingo] Prefetch PC+Offs: 0
[Bingo] Useful PC+Addr: 0
[Bingo] Useful PC+Offs: 0
[Bingo] Useless PC+Addr: 0
[Bingo] Useless PC+Offs: 0
[Bingo] L1 Prefetch per Region: 0
[Bingo] L2 Prefetch per Region: 2.66508
[Bingo] L3 Prefetch per Region: 0
[Bingo] No Prefetch per Region: 29.3349
[Bingo] Number of Voters Mean: 15.8868
[Bingo] Number of Voters SD: 15.9238
PHT read accesses: 64266737
PHT write accesses: 426855
AT read accesses: 3569353
AT write accesses: 3585338
FT read accesses: 2006507
FT write accesses: 4256704
PS read accesses: 8899738
PS write accesses: 4247881
PHT tag read accesses: 75682744
PHT tag write accesses: 916827
AT tag read accesses: 280156562
AT tag write accesses: 3996199
FT tag read accesses: 354426921
FT tag write accesses: 5836144
PS tag read accesses: 270497545
PS tag write accesses: 13089177

DRAM Statistics
 CHANNEL 0
 RQ ROW_BUFFER_HIT:    2300546  ROW_BUFFER_MISS:    1747098
 DBUS_CONGESTED:        168
 WQ ROW_BUFFER_HIT:       4513  ROW_BUFFER_MISS:      25150  FULL:          0

 AVG_CONGESTED_CYCLE: 4
 All warmup complete: 2
Channel 0 Bank busy for read cycles: 0
Channel 0 Bank busy for write cycles: 0
Channel 0
Rank 0
0banks busy for read cycles: 79698671
0banks busy for write cycles: 22713
1banks busy for read cycles: 44292149
1banks busy for write cycles: 4314579
2banks busy for read cycles: 23927349
2banks busy for write cycles: 547468
3banks busy for read cycles: 14221683
3banks busy for write cycles: 125802
4banks busy for read cycles: 8901862
4banks busy for write cycles: 44041
5banks busy for read cycles: 5681812
5banks busy for write cycles: 22844
6banks busy for read cycles: 4088837
6banks busy for write cycles: 10431
7banks busy for read cycles: 5358289
7banks busy for write cycles: 5737
8banks busy for read cycles: 14537406
8banks busy for write cycles: 8529

CPU 0 Branch Prediction Accuracy: 96.256% MPKI: 11.3017 Average ROB Occupancy at Mispredict: 38.3251
Branch types
NOT_BRANCH: 34906534 69.8131%
BRANCH_DIRECT_JUMP: 1899339 3.79868%
BRANCH_INDIRECT: 0 0%
BRANCH_CONDITIONAL: 12769873 25.5397%
BRANCH_DIRECT_CALL: 195242 0.390484%
BRANCH_INDIRECT_CALL: 16752 0.033504%
BRANCH_RETURN: 211994 0.423988%
BRANCH_OTHER: 0 0%

@sumon_overall_L1D         0         0         0         0         0         0         0
@Sumon_Early_by_class_L1D         0         0         0         0
@Sumon_Late_by_class_L1D         0         0         0         0

@Sumon_Early_by_cycle_L1D         0         0         0         0         0         0         0         0         0         0         0         0
@Sumon_Late_by_cycle_L1D         0         0         0         0         0         0
@Sumon_Early_stream_L1D         0         0         0         0         0         0         0         0         0         0         0         0
@Sumon_Early_CS_L1D         0         0         0         0         0         0         0         0         0         0         0         0
@Sumon_Early_CPLX_L1D         0         0         0         0         0         0         0         0         0         0         0         0
@Sumon_Late_stream_L1D         0         0         0         0         0         0
@Sumon_Late_CS_L1D         0         0         0         0         0         0
@Sumon_Late_CPLX_L1D         0         0         0         0         0         0
@sumon_overall_L2C   2344823    231552         0   2594926   4940000   6898478   6898478
@Sumon_Early_by_class_L2C         0         0         0         0
@Sumon_Late_by_class_L2C         0         0         0         0

@Sumon_Early_by_cycle_L2C     81481    243361    455810    390564    332397    775919     26892      5558      5588     12604      7722      6927
@Sumon_Late_by_cycle_L2C      9720     13721     20390     62652    124874       195
@Sumon_Early_stream_L2C         0         0         0         0         0         0         0         0         0         0         0         0
@Sumon_Early_CS_L2C         0         0         0         0         0         0         0         0         0         0         0         0
@Sumon_Early_CPLX_L2C         0         0         0         0         0         0         0         0         0         0         0         0
@Sumon_Late_stream_L2C         0         0         0         0         0         0
@Sumon_Late_CS_L2C         0         0         0         0         0         0
@Sumon_Late_CPLX_L2C         0         0         0         0         0         0
DRAM PAGES: 1048576
Allocated PAGES: 86300
