
*** ChampSim Multicore Out-of-Order Simulator ***

Warmup Instructions: 50000000
Simulation Instructions: 50000000
Number of CPUs: 1
LLC sets: 2048
LLC ways: 16
Off-chip DRAM Size: 4096 MB Channels: 1 Width: 64-bit Data Rate: 6400 MT/s
CPU 0 runs ../../biswa/SPEC2017Traces/619.lbm_s-2677B.champsimtrace.xz
.xz
CPU 0 Bimodal branch predictor
BTB has LRU replacement policy
ITLB has LRU replacement policy
DTLB has LRU replacement policy
STLB has LRU replacement policy
L1I has LRU replacement policy
L1D has LRU replacement policy
Bingo PHT WAYS: 16 and PHT_SIZE: 16384
Initialize DRRIP state for L2C
epoch: 1000
next table: 2873
cur table: 13452
epoch: 1000
next table: 2681
cur table: 2873
epoch: 1000
next table: 2659
cur table: 2681
epoch: 1000
next table: 2643
cur table: 2659
epoch: 1000
next table: 2651
cur table: 2643
epoch: 1000
next table: 2652
cur table: 2651
epoch: 1000
next table: 2570
cur table: 2652
epoch: 1000
next table: 2657
cur table: 2570
epoch: 1000
next table: 2610
cur table: 2657
epoch: 1000
next table: 2621
cur table: 2610
epoch: 1000
next table: 2682
cur table: 2621
epoch: 1000
next table: 2653
cur table: 2682
epoch: 1000
next table: 2611
cur table: 2653
epoch: 1000
next table: 2539
cur table: 2611
epoch: 1000
next table: 2475
cur table: 2539
epoch: 1000
next table: 2574
cur table: 2475
epoch: 1000
next table: 2509
cur table: 2574
epoch: 1000
next table: 2590
cur table: 2509
epoch: 1000
next table: 2587
cur table: 2590
epoch: 1000
next table: 2591
cur table: 2587
epoch: 1000
next table: 2626
cur table: 2591
epoch: 1000
next table: 2673
cur table: 2626
epoch: 1000
next table: 2638
cur table: 2673
epoch: 1000
next table: 2605
cur table: 2638
epoch: 1000
next table: 2522
cur table: 2605
epoch: 1000
next table: 2587
cur table: 2522
epoch: 1000
next table: 2441
cur table: 28058
epoch: 1000
next table: 2576
cur table: 2587
epoch: 1000
next table: 2003
cur table: 2441
epoch: 1000
next table: 2565
cur table: 2576
epoch: 1000
next table: 1836
cur table: 2003
epoch: 1000
next table: 2644
cur table: 2565
epoch: 1000
next table: 1836
cur table: 1836
epoch: 1000
next table: 2649
cur table: 2644
epoch: 1000
next table: 1796
cur table: 1836
epoch: 1000
next table: 2625
cur table: 2649
epoch: 1000
next table: 1780
cur table: 1796
epoch: 1000
next table: 2646
cur table: 2625
epoch: 1000
next table: 1783
cur table: 1780
epoch: 1000
next table: 2643
cur table: 2646
epoch: 1000
next table: 1788
cur table: 1783
epoch: 1000
next table: 2636
cur table: 2643
epoch: 1000
next table: 1772
cur table: 1788
epoch: 1000
next table: 2651
cur table: 2636
epoch: 1000
next table: 1785
cur table: 1772
epoch: 1000
next table: 2638
cur table: 2651
epoch: 1000
next table: 1782
cur table: 1785
epoch: 1000
next table: 2697
cur table: 2638
epoch: 1000
next table: 1784
cur table: 1782
epoch: 1000
next table: 2646
cur table: 2697
epoch: 1000
next table: 1763
cur table: 1784
epoch: 1000
next table: 2661
cur table: 2646
epoch: 1000
next table: 1784
cur table: 1763
epoch: 1000
next table: 2627
cur table: 2661
epoch: 1000
next table: 1794
cur table: 1784
epoch: 1000
next table: 2677
cur table: 2627
epoch: 1000
next table: 1796
cur table: 1794
epoch: 1000
next table: 2630
cur table: 2677
epoch: 1000
next table: 1782
cur table: 1796
epoch: 1000
next table: 2647
cur table: 2630
epoch: 1000
next table: 1771
cur table: 1782
epoch: 1000
next table: 2645
cur table: 2647
epoch: 1000
next table: 1781
cur table: 1771
epoch: 1000
next table: 2655
cur table: 2645
epoch: 1000
next table: 1780
cur table: 1781
epoch: 1000
next table: 2624
cur table: 2655
epoch: 1000
next table: 1762
cur table: 1780
epoch: 1000
next table: 2645
cur table: 2624
epoch: 1000
next table: 1819
cur table: 1762
epoch: 1000
next table: 2646
cur table: 2645
epoch: 1000
next table: 1809
cur table: 1819
epoch: 1000
next table: 2587
cur table: 2646
epoch: 1000
next table: 1812
cur table: 1809
epoch: 1000
next table: 2635
cur table: 2587
epoch: 1000
next table: 1769
cur table: 1812
epoch: 1000
next table: 2659
cur table: 2635
epoch: 1000
next table: 1779
cur table: 1769
epoch: 1000
next table: 2660
cur table: 2659
epoch: 1000
next table: 1799
cur table: 1779
epoch: 1000
next table: 2632
cur table: 2660
epoch: 1000
next table: 1812
cur table: 1799
epoch: 1000
next table: 2654
cur table: 2632
epoch: 1000
next table: 1803
cur table: 1812
epoch: 1000
next table: 2636
cur table: 2654
epoch: 1000
next table: 1792
cur table: 1803
epoch: 1000
next table: 2603
cur table: 2636
epoch: 1000
next table: 1840
cur table: 1792
epoch: 1000
next table: 2560
cur table: 2603
epoch: 1000
next table: 1824
cur table: 1840
epoch: 1000
next table: 2609
cur table: 2560
epoch: 1000
next table: 2603
cur table: 2609
epoch: 1000
next table: 1812
cur table: 1824
epoch: 1000
next table: 2646
cur table: 2603
epoch: 1000
next table: 1779
cur table: 1812
epoch: 1000
next table: 2631
cur table: 2646
epoch: 1000
next table: 1804
cur table: 1779
epoch: 1000
next table: 2600
cur table: 2631
epoch: 1000
next table: 1794
cur table: 1804
epoch: 1000
next table: 2653
cur table: 2600
epoch: 1000
next table: 1824
cur table: 1794
epoch: 1000
next table: 2499
cur table: 2653
epoch: 1000
next table: 1861
cur table: 1824
epoch: 1000
next table: 2633
cur table: 2499
epoch: 1000
next table: 1800
cur table: 1861
epoch: 1000
next table: 2582
cur table: 2633
epoch: 1000
next table: 1791
cur table: 1800
epoch: 1000
next table: 2671
cur table: 2582
epoch: 1000
next table: 1801
cur table: 1791
epoch: 1000
next table: 2666
cur table: 2671
epoch: 1000
next table: 1789
cur table: 1801
epoch: 1000
next table: 2656
cur table: 2666
epoch: 1000
next table: 1788
cur table: 1789
epoch: 1000
next table: 2618
cur table: 2656
epoch: 1000
next table: 1789
cur table: 1788
epoch: 1000
next table: 2646
cur table: 2618
epoch: 1000
next table: 1811
cur table: 1789
epoch: 1000
next table: 2570
cur table: 2646
epoch: 1000
next table: 1839
cur table: 1811
epoch: 1000
next table: 2598
cur table: 2570
epoch: 1000
next table: 1815
cur table: 1839
epoch: 1000
next table: 2626
cur table: 2598
epoch: 1000
next table: 1789
cur table: 1815
epoch: 1000
next table: 2666
cur table: 2626
epoch: 1000
next table: 1767
cur table: 1789
epoch: 1000
next table: 2645
cur table: 2666
epoch: 1000
next table: 1773
cur table: 1767
epoch: 1000
next table: 2689
cur table: 2645
epoch: 1000
next table: 1792
cur table: 1773
epoch: 1000
next table: 2630
cur table: 2689
epoch: 1000
next table: 1783
cur table: 1792
epoch: 1000
next table: 2664
cur table: 2630
epoch: 1000
next table: 1787
cur table: 1783
epoch: 1000
next table: 2628
cur table: 2664
epoch: 1000
next table: 1778
cur table: 1787
epoch: 1000
next table: 2678
cur table: 2628
epoch: 1000
next table: 1784
cur table: 1778
epoch: 1000
next table: 2659
cur table: 2678
epoch: 1000
next table: 1759
cur table: 1784
epoch: 1000
next table: 2653
cur table: 2659
epoch: 1000
next table: 1788
cur table: 1759
epoch: 1000
next table: 2638
cur table: 2653
epoch: 1000
next table: 1768
cur table: 1788
epoch: 1000
next table: 2687
cur table: 2638
epoch: 1000
next table: 1775
cur table: 1768
epoch: 1000
next table: 2683
cur table: 2687
epoch: 1000
next table: 1902
cur table: 1775
epoch: 1000
next table: 2655
cur table: 2683
epoch: 1000
next table: 2641
cur table: 2655
epoch: 1000
next table: 2240
cur table: 1902
epoch: 1000
next table: 2677
cur table: 2641
epoch: 1000
next table: 2651
cur table: 2677
epoch: 1000
next table: 2663
cur table: 2240
epoch: 1000
next table: 2686
cur table: 2651
epoch: 1000
next table: 2649
cur table: 2686
epoch: 1000
next table: 2809
cur table: 2663
epoch: 1000
next table: 2669
cur table: 2649
epoch: 1000
next table: 2643
cur table: 2669
epoch: 1000
next table: 2680
cur table: 2643
epoch: 1000
next table: 2894
cur table: 2809
epoch: 1000
next table: 2652
cur table: 2680
epoch: 1000
next table: 2654
cur table: 2652
epoch: 1000
next table: 2994
cur table: 2894
epoch: 1000
next table: 2652
cur table: 2654
epoch: 1000
next table: 2671
cur table: 2652
epoch: 1000
next table: 2665
cur table: 2671
epoch: 1000
next table: 2970
cur table: 2994
epoch: 1000
next table: 2672
cur table: 2665
epoch: 1000
next table: 2643
cur table: 2672
epoch: 1000
next table: 2977
cur table: 2970
epoch: 1000
next table: 2649
cur table: 2643
epoch: 1000
next table: 2694
cur table: 2649
epoch: 1000
next table: 2651
cur table: 2694
epoch: 1000
next table: 2961
cur table: 2977
epoch: 1000
next table: 2673
cur table: 2651
epoch: 1000
next table: 2645
cur table: 2673
epoch: 1000
next table: 2968
cur table: 2961
epoch: 1000
next table: 2658
cur table: 2645
epoch: 1000
next table: 2661
cur table: 2658
epoch: 1000
next table: 2688
cur table: 2661
epoch: 1000
next table: 2992
cur table: 2968
epoch: 1000
next table: 2642
cur table: 2688
epoch: 1000
next table: 2612
cur table: 2642
epoch: 1000
next table: 3040
cur table: 2992
epoch: 1000
next table: 2655
cur table: 2612
epoch: 1000
next table: 2651
cur table: 2655
epoch: 1000
next table: 2634
cur table: 2651
epoch: 1000
next table: 3052
cur table: 3040
epoch: 1000
next table: 2639
cur table: 2634
epoch: 1000
next table: 2674
cur table: 2639
epoch: 1000
next table: 2677
cur table: 2674
epoch: 1000
next table: 3086
cur table: 3052
epoch: 1000
next table: 2646
cur table: 2677
epoch: 1000
next table: 2645
cur table: 2646
epoch: 1000
next table: 2652
cur table: 2645
epoch: 1000
next table: 3131
cur table: 3086
epoch: 1000
next table: 2612
cur table: 2652
epoch: 1000
next table: 2577
cur table: 2612
epoch: 1000
next table: 3256
cur table: 3131
epoch: 1000
next table: 2583
cur table: 2577
epoch: 1000
next table: 2613
cur table: 2583
epoch: 1000
next table: 2664
cur table: 2613
epoch: 1000
next table: 3146
cur table: 3256
epoch: 1000
next table: 2648
cur table: 2664
epoch: 1000
next table: 2676
cur table: 2648
epoch: 1000
next table: 2648
cur table: 2676
epoch: 1000
next table: 2942
cur table: 3146
epoch: 1000
next table: 2654
cur table: 2648
epoch: 1000
next table: 2584
cur table: 2654
epoch: 1000
next table: 3173
cur table: 2942
epoch: 1000
next table: 2645
cur table: 2584
epoch: 1000
next table: 2610
cur table: 2645
epoch: 1000
next table: 2639
cur table: 2610
epoch: 1000
next table: 2670
cur table: 2639
epoch: 1000
next table: 3486
cur table: 3173
epoch: 1000
next table: 2669
cur table: 2670
epoch: 1000
next table: 2649
cur table: 2669
epoch: 1000
next table: 2620
cur table: 2649
epoch: 1000
next table: 3546
cur table: 3486
epoch: 1000
next table: 2667
cur table: 2620
epoch: 1000
next table: 2679
cur table: 2667
epoch: 1000
next table: 2647
cur table: 2679
epoch: 1000
next table: 3548
cur table: 3546
epoch: 1000
next table: 2650
cur table: 2647
epoch: 1000
next table: 2675
cur table: 2650
epoch: 1000
next table: 2666
cur table: 2675
epoch: 1000
next table: 2579
cur table: 2666
epoch: 1000
next table: 3598
cur table: 3548
epoch: 1000
next table: 2614
cur table: 2579
epoch: 1000
next table: 2600
cur table: 2614
epoch: 1000
next table: 2661
cur table: 2600
epoch: 1000
next table: 3669
cur table: 3598
epoch: 1000
next table: 2547
cur table: 2661
epoch: 1000
next table: 2613
cur table: 2547
epoch: 1000
next table: 2629
cur table: 2613
epoch: 1000
next table: 3662
cur table: 3669
epoch: 1000
next table: 2616
cur table: 2629
epoch: 1000
next table: 2650
cur table: 2616
epoch: 1000
next table: 2665
cur table: 2650
epoch: 1000
next table: 2629
cur table: 2665
epoch: 1000
next table: 3603
cur table: 3662
epoch: 1000
next table: 2612
cur table: 2629
epoch: 1000
next table: 2635
cur table: 2612
epoch: 1000
next table: 2618
cur table: 2635
epoch: 1000
next table: 3661
cur table: 3603
epoch: 1000
next table: 2631
cur table: 2618
epoch: 1000
next table: 2571
cur table: 2631
epoch: 1000
next table: 2560
cur table: 2571
epoch: 1000
next table: 2566
cur table: 2560
epoch: 1000
next table: 3753
cur table: 3661
epoch: 1000
next table: 2653
cur table: 2566
epoch: 1000
next table: 2612
cur table: 2653
epoch: 1000
next table: 2514
cur table: 2612
epoch: 1000
next table: 3697
cur table: 3753
epoch: 1000
next table: 2589
cur table: 2514
epoch: 1000
next table: 2593
cur table: 2589
epoch: 1000
next table: 2638
cur table: 2593
epoch: 1000
next table: 3647
cur table: 3697
epoch: 1000
next table: 2674
cur table: 2638
epoch: 1000
next table: 2644
cur table: 2674
epoch: 1000
next table: 2613
cur table: 2644
epoch: 1000
next table: 2684
cur table: 2613
epoch: 1000
next table: 3575
cur table: 3647
epoch: 1000
next table: 2661
cur table: 2684
epoch: 1000
next table: 2539
cur table: 2661
epoch: 1000
next table: 2533
cur table: 2539
epoch: 1000
next table: 3721
cur table: 3575
epoch: 1000
next table: 2665
cur table: 2533
epoch: 1000
next table: 2683
cur table: 2665
epoch: 1000
next table: 2597
cur table: 2683
epoch: 1000
next table: 3594
cur table: 3721
epoch: 1000
next table: 2644
cur table: 2597
epoch: 1000
next table: 2664
cur table: 2644
epoch: 1000
next table: 2542
cur table: 2664
epoch: 1000
next table: 2519
cur table: 2542
epoch: 1000
next table: 3769
cur table: 3594
epoch: 1000
next table: 2604
cur table: 2519
epoch: 1000
next table: 2598
cur table: 2604
epoch: 1000
next table: 2633
cur table: 2598
epoch: 1000
next table: 3660
cur table: 3769
epoch: 1000
next table: 2630
cur table: 2633
epoch: 1000
next table: 2622
cur table: 2630
epoch: 1000
next table: 2634
cur table: 2622
epoch: 1000
next table: 2621
cur table: 2634
epoch: 1000
next table: 3641
cur table: 3660
epoch: 1000
next table: 2565
cur table: 2621
epoch: 1000
next table: 2574
cur table: 2565
epoch: 1000
next table: 2633
cur table: 2574
epoch: 1000
next table: 3735
cur table: 3641
epoch: 1000
next table: 2612
cur table: 2633
epoch: 1000
next table: 2627
cur table: 2612
epoch: 1000
next table: 2637
cur table: 2627
epoch: 1000
next table: 3651
cur table: 3735
epoch: 1000
next table: 2550
cur table: 2637
epoch: 1000
next table: 2508
cur table: 2550
epoch: 1000
next table: 2550
cur table: 2508
epoch: 1000
next table: 2616
cur table: 2550
epoch: 1000
next table: 3795
cur table: 3651
epoch: 1000
next table: 2608
cur table: 2616
epoch: 1000
next table: 2617
cur table: 2608
epoch: 1000
next table: 2681
cur table: 2617
epoch: 1000
next table: 3666
cur table: 3795
epoch: 1000
next table: 2632
cur table: 2681
epoch: 1000
next table: 2626
cur table: 2632
epoch: 1000
next table: 2671
cur table: 2626
epoch: 1000
next table: 2602
cur table: 2671
epoch: 1000
next table: 3722
cur table: 3666
epoch: 1000
next table: 2629
cur table: 2602
epoch: 1000
next table: 2649
cur table: 2629
epoch: 1000
next table: 2652
cur table: 2649
epoch: 1000
next table: 3786
cur table: 3722
epoch: 1000
next table: 2647
cur table: 2652
epoch: 1000
next table: 2640
cur table: 2647
epoch: 1000
next table: 2675
cur table: 2640
epoch: 1000
next table: 2624
cur table: 2675
epoch: 1000
next table: 3871
cur table: 3786
epoch: 1000
next table: 2670
cur table: 2624
epoch: 1000
next table: 2621
cur table: 2670
epoch: 1000
next table: 2643
cur table: 2621
epoch: 1000
next table: 2648
cur table: 2643
epoch: 1000
next table: 4045
cur table: 3871
epoch: 1000
next table: 2618
cur table: 2648
epoch: 1000
next table: 2681
cur table: 2618
epoch: 1000
next table: 2657
cur table: 2681
epoch: 1000
next table: 2659
cur table: 2657
epoch: 1000
next table: 4061
cur table: 4045
epoch: 1000
next table: 2637
cur table: 2659
epoch: 1000
next table: 2699
cur table: 2637
epoch: 1000
next table: 2659
cur table: 2699
epoch: 1000
next table: 2652
cur table: 2659
epoch: 1000
next table: 3887
cur table: 4061
epoch: 1000
next table: 2651
cur table: 2652
epoch: 1000
next table: 2682
cur table: 2651
epoch: 1000
next table: 2641
cur table: 2682
epoch: 1000
next table: 3728
cur table: 3887
epoch: 1000
next table: 2677
cur table: 2641
epoch: 1000
next table: 2662
cur table: 2677
epoch: 1000
next table: 2654
cur table: 2662
epoch: 1000
next table: 2642
cur table: 2654
epoch: 1000
next table: 3808
cur table: 3728
epoch: 1000
next table: 2678
cur table: 2642
epoch: 1000
next table: 2687
cur table: 2678
epoch: 1000
next table: 2652
cur table: 2687
epoch: 1000
next table: 3744
cur table: 3808
epoch: 1000
next table: 2645
cur table: 2652
epoch: 1000
next table: 2652
cur table: 2645
epoch: 1000
next table: 2674
cur table: 2652
epoch: 1000
next table: 2604
cur table: 2674
epoch: 1000
next table: 3715
cur table: 3744
epoch: 1000
next table: 2572
cur table: 2604
epoch: 1000
next table: 2598
cur table: 2572
epoch: 1000
next table: 2639
cur table: 2598
epoch: 1000
next table: 3790
cur table: 3715
epoch: 1000
next table: 2675
cur table: 2639
epoch: 1000
next table: 2650
cur table: 2675
epoch: 1000
next table: 2622
cur table: 2650
epoch: 1000
next table: 2657
cur table: 2622
epoch: 1000
next table: 3738
cur table: 3790
epoch: 1000
next table: 2685
cur table: 2657
epoch: 1000
next table: 2651
cur table: 2685
epoch: 1000
next table: 2611
cur table: 2651
epoch: 1000
next table: 3795
cur table: 3738
epoch: 1000
next table: 2672
cur table: 2611
epoch: 1000
next table: 2668
cur table: 2672
epoch: 1000
next table: 2632
cur table: 2668
epoch: 1000
next table: 2634
cur table: 2632
epoch: 1000
next table: 3837
cur table: 3795
epoch: 1000
next table: 2693
cur table: 2634
epoch: 1000
next table: 2645
cur table: 2693
epoch: 1000
next table: 2609
cur table: 2645
epoch: 1000
next table: 2628
cur table: 2609
epoch: 1000
next table: 3970
cur table: 3837
epoch: 1000
next table: 2651
cur table: 2628
epoch: 1000
next table: 2568
cur table: 2651
epoch: 1000
next table: 2667
cur table: 2568
epoch: 1000
next table: 3842
cur table: 3970
epoch: 1000
next table: 2667
cur table: 2667
epoch: 1000
next table: 2619
cur table: 2667
epoch: 1000
next table: 2673
cur table: 2619
epoch: 1000
next table: 2651
cur table: 2673
epoch: 1000
next table: 3838
cur table: 3842
epoch: 1000
next table: 2681
cur table: 2651
epoch: 1000
next table: 2656
cur table: 2681
epoch: 1000
next table: 2665
cur table: 2656
epoch: 1000
next table: 2618
cur table: 2665
epoch: 1000
next table: 4091
cur table: 3838
epoch: 1000
next table: 2696
cur table: 2618
epoch: 1000
next table: 2627
cur table: 2696
epoch: 1000
next table: 2651
cur table: 2627
epoch: 1000
next table: 2636
cur table: 2651
epoch: 1000
next table: 4017
cur table: 4091
epoch: 1000
next table: 2678
cur table: 2636
epoch: 1000
next table: 2645
cur table: 2678
epoch: 1000
next table: 2600
cur table: 2645
epoch: 1000
next table: 3838
cur table: 4017
epoch: 1000
next table: 2639
cur table: 2600
epoch: 1000
next table: 2552
cur table: 2639
epoch: 1000
next table: 2649
cur table: 2552
epoch: 1000
next table: 2593
cur table: 2649
epoch: 1000
next table: 3952
cur table: 3838
epoch: 1000
next table: 2636
cur table: 2593
epoch: 1000
next table: 2600
cur table: 2636
epoch: 1000
next table: 2622
cur table: 2600
epoch: 1000
next table: 2672
cur table: 2622
epoch: 1000
next table: 3964
cur table: 3952
epoch: 1000
next table: 2618
cur table: 2672
epoch: 1000
next table: 2642
cur table: 2618
epoch: 1000
next table: 2669
cur table: 2642
epoch: 1000
next table: 2654
cur table: 2669
epoch: 1000
next table: 4311
cur table: 3964
epoch: 1000
next table: 2645
cur table: 2654
epoch: 1000
next table: 2629
cur table: 2645
epoch: 1000
next table: 2612
cur table: 2629
epoch: 1000
next table: 2581
cur table: 2612
epoch: 1000
next table: 2654
cur table: 2581
epoch: 1000
next table: 5288
cur table: 4311
epoch: 1000
next table: 2629
cur table: 2654
epoch: 1000
next table: 2648
cur table: 2629
epoch: 1000
next table: 2658
cur table: 2648
epoch: 1000
next table: 2672
cur table: 2658
epoch: 1000
next table: 2617
cur table: 2672
epoch: 1000
next table: 2615
cur table: 2617
epoch: 1000
next table: 5394
cur table: 5288
epoch: 1000
next table: 2668
cur table: 2615
epoch: 1000
next table: 2638
cur table: 2668
epoch: 1000
next table: 2662
cur table: 2638
epoch: 1000
next table: 2641
cur table: 2662
epoch: 1000
next table: 2668
cur table: 2641
epoch: 1000
next table: 2652
cur table: 2668
epoch: 1000
next table: 2642
cur table: 2652
epoch: 1000
next table: 2677
cur table: 2642
epoch: 1000
next table: 7304
cur table: 5394
epoch: 1000
next table: 2663
cur table: 2677
epoch: 1000
next table: 2664
cur table: 2663
epoch: 1000
next table: 2644
cur table: 2664
epoch: 1000
next table: 2665
cur table: 2644
epoch: 1000
next table: 2662
cur table: 2665
epoch: 1000
next table: 2641
cur table: 2662
epoch: 1000
next table: 2604
cur table: 2641
epoch: 1000
next table: 2643
cur table: 2604
epoch: 1000
next table: 2633
cur table: 2643
epoch: 1000
next table: 2635
cur table: 2633
epoch: 1000
next table: 2579
cur table: 2635
epoch: 1000
next table: 2494
cur table: 2579
epoch: 1000
next table: 10467
cur table: 7304
epoch: 1000
next table: 2530
cur table: 2494
epoch: 1000
next table: 2615
cur table: 2530
epoch: 1000
next table: 2641
cur table: 2615
epoch: 1000
next table: 2666
cur table: 2641
epoch: 1000
next table: 2668
cur table: 2666
epoch: 1000
next table: 2616
cur table: 2668
epoch: 1000
next table: 2660
cur table: 2616
epoch: 1000
next table: 2582
cur table: 2660
epoch: 1000
next table: 2634
cur table: 2582
epoch: 1000
next table: 2636
cur table: 2634
epoch: 1000
next table: 2653
cur table: 2636
epoch: 1000
next table: 2637
cur table: 2653
epoch: 1000
next table: 2650
cur table: 2637
epoch: 1000
next table: 2672
cur table: 2650
epoch: 1000
next table: 2656
cur table: 2672
epoch: 1000
next table: 2638
cur table: 2656
epoch: 1000
next table: 2669
cur table: 2638
epoch: 1000
next table: 2649
cur table: 2669
epoch: 1000
next table: 15232
cur table: 10467
epoch: 1000
next table: 2646
cur table: 2649
epoch: 1000
next table: 2660
cur table: 2646
epoch: 1000
next table: 2637
cur table: 2660
epoch: 1000
next table: 2697
cur table: 2637
epoch: 1000
next table: 2664
cur table: 2697
epoch: 1000
next table: 2634
cur table: 2664
epoch: 1000
next table: 2615
cur table: 2634
epoch: 1000
next table: 2686
cur table: 2615
epoch: 1000
next table: 2638
cur table: 2686
epoch: 1000
next table: 2657
cur table: 2638
epoch: 1000
next table: 2618
cur table: 2657
epoch: 1000
next table: 2698
cur table: 2618
epoch: 1000
next table: 2659
cur table: 2698
epoch: 1000
next table: 2639
cur table: 2659
epoch: 1000
next table: 2620
cur table: 2639
epoch: 1000
next table: 2703
cur table: 2620
epoch: 1000
next table: 2597
cur table: 2703
epoch: 1000
next table: 2595
cur table: 2597
epoch: 1000
next table: 2672
cur table: 2595
epoch: 1000
next table: 2639
cur table: 2672
epoch: 1000
next table: 2648
cur table: 2639
epoch: 1000
next table: 2653
cur table: 2648
epoch: 1000
next table: 2644
cur table: 2653
epoch: 1000
next table: 2660
cur table: 2644
epoch: 1000
next table: 2648
cur table: 2660
epoch: 1000
next table: 2643
cur table: 2648
epoch: 1000
next table: 2631
cur table: 2643
epoch: 1000
next table: 2655
cur table: 2631
epoch: 1000
next table: 2651
cur table: 2655
epoch: 1000
next table: 2654
cur table: 2651
epoch: 1000
next table: 2658
cur table: 2654
epoch: 1000
next table: 2649
cur table: 2658
epoch: 1000
next table: 2640
cur table: 2649
epoch: 1000
next table: 2647
cur table: 2640
epoch: 1000
next table: 2604
cur table: 2647
epoch: 1000
next table: 2664
cur table: 2604
epoch: 1000
next table: 2661
cur table: 2664
epoch: 1000
next table: 2571
cur table: 2661
epoch: 1000
next table: 2623
cur table: 2571
epoch: 1000
next table: 2658
cur table: 2623
epoch: 1000
next table: 2640
cur table: 2658
epoch: 1000
next table: 2629
cur table: 2640
epoch: 1000
next table: 2647
cur table: 2629
epoch: 1000
next table: 2654
cur table: 2647
epoch: 1000
next table: 2638
cur table: 2654
epoch: 1000
next table: 2677
cur table: 2638
epoch: 1000
next table: 2634
cur table: 2677
epoch: 1000
next table: 2608
cur table: 2634
epoch: 1000
next table: 2644
cur table: 2608
epoch: 1000
next table: 2690
cur table: 2644
epoch: 1000
next table: 2643
cur table: 2690
epoch: 1000
next table: 2651
cur table: 2643
epoch: 1000
next table: 2635
cur table: 2651
epoch: 1000
next table: 2671
cur table: 2635
epoch: 1000
next table: 2646
cur table: 2671
epoch: 1000
next table: 2607
cur table: 2646
epoch: 1000
next table: 2671
cur table: 2607
epoch: 1000
next table: 2638
cur table: 2671
epoch: 1000
next table: 2652
cur table: 2638
epoch: 1000
next table: 2625
cur table: 2652
epoch: 1000
next table: 2652
cur table: 2625
epoch: 1000
next table: 2535
cur table: 2652
epoch: 1000
next table: 2508
cur table: 2535
epoch: 1000
next table: 2484
cur table: 2508
epoch: 1000
next table: 2630
cur table: 2484
epoch: 1000
next table: 2568
cur table: 2630
epoch: 1000
next table: 2587
cur table: 2568
epoch: 1000
next table: 2599
cur table: 2587
epoch: 1000
next table: 2578
cur table: 2599
epoch: 1000
next table: 2495
cur table: 2578
epoch: 1000
next table: 2420
cur table: 2495
epoch: 1000
next table: 2499
cur table: 2420
epoch: 1000
next table: 2584
cur table: 2499
epoch: 1000
next table: 2534
cur table: 2584
epoch: 1000
next table: 2496
cur table: 2534
epoch: 1000
next table: 2562
cur table: 2496
epoch: 1000
next table: 2549
cur table: 2562
epoch: 1000
next table: 2617
cur table: 2549
epoch: 1000
next table: 2556
cur table: 2617
epoch: 1000
next table: 2599
cur table: 2556
epoch: 1000
next table: 2548
cur table: 2599
epoch: 1000
next table: 2476
cur table: 2548
epoch: 1000
next table: 2532
cur table: 2476
epoch: 1000
next table: 2563
cur table: 2532
epoch: 1000
next table: 2489
cur table: 2563
epoch: 1000
next table: 2524
cur table: 2489
epoch: 1000
next table: 2470
cur table: 2524
epoch: 1000
next table: 2546
cur table: 2470
epoch: 1000
next table: 2544
cur table: 2546
epoch: 1000
next table: 2542
cur table: 2544
epoch: 1000
next table: 2439
cur table: 2542
epoch: 1000
next table: 2533
cur table: 2439
epoch: 1000
next table: 2498
cur table: 2533
epoch: 1000
next table: 2582
cur table: 2498
epoch: 1000
next table: 2613
cur table: 2582
epoch: 1000
next table: 2625
cur table: 2613
epoch: 1000
next table: 2600
cur table: 2625
epoch: 1000
next table: 2643
cur table: 2600
epoch: 1000
next table: 2592
cur table: 2643
epoch: 1000
next table: 2623
cur table: 2592
epoch: 1000
next table: 2613
cur table: 2623
epoch: 1000
next table: 2615
cur table: 2613
epoch: 1000
next table: 2618
cur table: 2615
epoch: 1000
next table: 2413
cur table: 2618
epoch: 1000
next table: 2491
cur table: 2413
epoch: 1000
next table: 2597
cur table: 2491
epoch: 1000
next table: 2596
cur table: 2597
epoch: 1000
next table: 2626
cur table: 2596
epoch: 1000
next table: 2589
cur table: 2626
epoch: 1000
next table: 2605
cur table: 2589
epoch: 1000
next table: 2592
cur table: 2605
epoch: 1000
next table: 2544
cur table: 2592
epoch: 1000
next table: 2563
cur table: 2544
epoch: 1000
next table: 2534
cur table: 2563
epoch: 1000
next table: 2640
cur table: 2534
epoch: 1000
next table: 2638
cur table: 2640
epoch: 1000
next table: 2584
cur table: 2638
epoch: 1000
next table: 2560
cur table: 2584
epoch: 1000
next table: 2548
cur table: 2560
epoch: 1000
next table: 2539
cur table: 2548
epoch: 1000
next table: 2528
cur table: 2539
epoch: 1000
next table: 2588
cur table: 2528
epoch: 1000
next table: 2598
cur table: 2588
epoch: 1000
next table: 2519
cur table: 2598
epoch: 1000
next table: 2524
cur table: 2519
epoch: 1000
next table: 2634
cur table: 2524
epoch: 1000
next table: 2580
cur table: 2634
epoch: 1000
next table: 2615
cur table: 2580
epoch: 1000
next table: 2539
cur table: 2615
epoch: 1000
next table: 2547
cur table: 2539
epoch: 1000
next table: 2645
cur table: 2547
epoch: 1000
next table: 2603
cur table: 2645
epoch: 1000
next table: 2632
cur table: 2603
epoch: 1000
next table: 2522
cur table: 2632
epoch: 1000
next table: 2579
cur table: 2522
epoch: 1000
next table: 2577
cur table: 2579
epoch: 1000
next table: 2534
cur table: 2577
epoch: 1000
next table: 2472
cur table: 2534
epoch: 1000
next table: 2543
cur table: 2472
epoch: 1000
next table: 2399
cur table: 2543
epoch: 1000
next table: 2508
cur table: 2399
epoch: 1000
next table: 2510
cur table: 2508
epoch: 1000
next table: 2579
cur table: 2510
epoch: 1000
next table: 2577
cur table: 2579
Heartbeat CPU 0 instructions: 10000001 cycles: 2917525 heartbeat IPC: 3.42756 cumulative IPC: 3.42756 (Simulation time: 0 hr 6 min 19 sec) 
epoch: 1000
next table: 2624
cur table: 2577
epoch: 1000
next table: 2607
cur table: 2624
epoch: 1000
next table: 2593
cur table: 2607
epoch: 1000
next table: 2576
cur table: 2593
epoch: 1000
next table: 2500
cur table: 2576
epoch: 1000
next table: 2498
cur table: 2500
epoch: 1000
next table: 2517
cur table: 2498
epoch: 1000
next table: 2545
cur table: 2517
epoch: 1000
next table: 2515
cur table: 2545
epoch: 1000
next table: 2490
cur table: 2515
epoch: 1000
next table: 2505
cur table: 2490
epoch: 1000
next table: 2577
cur table: 2505
epoch: 1000
next table: 2593
cur table: 2577
epoch: 1000
next table: 2597
cur table: 2593
epoch: 1000
next table: 2632
cur table: 2597
epoch: 1000
next table: 2634
cur table: 2632
epoch: 1000
next table: 2534
cur table: 2634
epoch: 1000
next table: 2618
cur table: 2534
epoch: 1000
next table: 2513
cur table: 2618
epoch: 1000
next table: 2541
cur table: 2513
epoch: 1000
next table: 2620
cur table: 2541
epoch: 1000
next table: 2524
cur table: 2620
epoch: 1000
next table: 2574
cur table: 2524
epoch: 1000
next table: 2567
cur table: 2574
epoch: 1000
next table: 2600
cur table: 2567
epoch: 1000
next table: 2577
cur table: 2600
epoch: 1000
next table: 2590
cur table: 2577
epoch: 1000
next table: 2522
cur table: 2590
epoch: 1000
next table: 2634
cur table: 2522
epoch: 1000
next table: 2517
cur table: 2634
epoch: 1000
next table: 2590
cur table: 2517
epoch: 1000
next table: 2533
cur table: 2590
epoch: 1000
next table: 2543
cur table: 2533
epoch: 1000
next table: 2526
cur table: 2543
epoch: 1000
next table: 2463
cur table: 2526
epoch: 1000
next table: 2563
cur table: 2463
epoch: 1000
next table: 2485
cur table: 2563
epoch: 1000
next table: 2617
cur table: 2485
epoch: 1000
next table: 2502
cur table: 2617
epoch: 1000
next table: 2553
cur table: 2502
epoch: 1000
next table: 2531
cur table: 2553
epoch: 1000
next table: 2604
cur table: 2531
epoch: 1000
next table: 2566
cur table: 2604
epoch: 1000
next table: 2510
cur table: 2566
epoch: 1000
next table: 2560
cur table: 2510
epoch: 1000
next table: 2529
cur table: 2560
epoch: 1000
next table: 2537
cur table: 2529
epoch: 1000
next table: 2561
cur table: 2537
epoch: 1000
next table: 2655
cur table: 2561
epoch: 1000
next table: 2621
cur table: 2655
epoch: 1000
next table: 2586
cur table: 2621
epoch: 1000
next table: 2603
cur table: 2586
epoch: 1000
next table: 2611
cur table: 2603
epoch: 1000
next table: 2571
cur table: 2611
epoch: 1000
next table: 2581
cur table: 2571
epoch: 1000
next table: 2541
cur table: 2581
epoch: 1000
next table: 2584
cur table: 2541
epoch: 1000
next table: 2500
cur table: 2584
epoch: 1000
next table: 2566
cur table: 2500
epoch: 1000
next table: 2576
cur table: 2566
epoch: 1000
next table: 2546
cur table: 2576
epoch: 1000
next table: 2565
cur table: 2546
epoch: 1000
next table: 2560
cur table: 2565
epoch: 1000
next table: 2561
cur table: 2560
epoch: 1000
next table: 2633
cur table: 2561
epoch: 1000
next table: 2646
cur table: 2633
epoch: 1000
next table: 2615
cur table: 2646
epoch: 1000
next table: 2610
cur table: 2615
epoch: 1000
next table: 2606
cur table: 2610
epoch: 1000
next table: 2569
cur table: 2606
epoch: 1000
next table: 2589
cur table: 2569
epoch: 1000
next table: 2466
cur table: 2589
epoch: 1000
next table: 2415
cur table: 2466
epoch: 1000
next table: 2507
cur table: 2415
epoch: 1000
next table: 2550
cur table: 2507
epoch: 1000
next table: 2621
cur table: 2550
epoch: 1000
next table: 2606
cur table: 2621
epoch: 1000
next table: 2621
cur table: 2606
epoch: 1000
next table: 2645
cur table: 2621
epoch: 1000
next table: 2625
cur table: 2645
epoch: 1000
next table: 2625
cur table: 2625
epoch: 1000
next table: 2504
cur table: 2625
epoch: 1000
next table: 2536
cur table: 2504
epoch: 1000
next table: 2440
cur table: 2536
epoch: 1000
next table: 2519
cur table: 2440
epoch: 1000
next table: 2526
cur table: 2519
epoch: 1000
next table: 2525
cur table: 2526
epoch: 1000
next table: 2591
cur table: 2525
epoch: 1000
next table: 2519
cur table: 2591
epoch: 1000
next table: 2611
cur table: 2519
epoch: 1000
next table: 2561
cur table: 2611
epoch: 1000
next table: 2462
cur table: 2561
epoch: 1000
next table: 2546
cur table: 2462
epoch: 1000
next table: 2581
cur table: 2546
epoch: 1000
next table: 2599
cur table: 2581
epoch: 1000
next table: 2612
cur table: 2599
epoch: 1000
next table: 2634
cur table: 2612
epoch: 1000
next table: 2609
cur table: 2634
epoch: 1000
next table: 2555
cur table: 2609
epoch: 1000
next table: 2616
cur table: 2555
epoch: 1000
next table: 2569
cur table: 2616
epoch: 1000
next table: 2491
cur table: 2569
epoch: 1000
next table: 2512
cur table: 2491
epoch: 1000
next table: 2643
cur table: 2512
epoch: 1000
next table: 2585
cur table: 2643
epoch: 1000
next table: 2578
cur table: 2585
epoch: 1000
next table: 2557
cur table: 2578
epoch: 1000
next table: 2543
cur table: 2557
epoch: 1000
next table: 2620
cur table: 2543
epoch: 1000
next table: 2502
cur table: 2620
epoch: 1000
next table: 2557
cur table: 2502
epoch: 1000
next table: 2620
cur table: 2557
epoch: 1000
next table: 2570
cur table: 2620
epoch: 1000
next table: 2486
cur table: 2570
epoch: 1000
next table: 2502
cur table: 2486
epoch: 1000
next table: 2562
cur table: 2502
epoch: 1000
next table: 2600
cur table: 2562
epoch: 1000
next table: 2574
cur table: 2600
epoch: 1000
next table: 2576
cur table: 2574
epoch: 1000
next table: 2525
cur table: 2576
epoch: 1000
next table: 2536
cur table: 2525
epoch: 1000
next table: 2532
cur table: 2536
epoch: 1000
next table: 2516
cur table: 2532
epoch: 1000
next table: 2484
cur table: 2516
epoch: 1000
next table: 2436
cur table: 2484
epoch: 1000
next table: 2532
cur table: 2436
epoch: 1000
next table: 2594
cur table: 2532
epoch: 1000
next table: 2514
cur table: 2594
epoch: 1000
next table: 2503
cur table: 2514
epoch: 1000
next table: 2460
cur table: 2503
epoch: 1000
next table: 2511
cur table: 2460
epoch: 1000
next table: 2524
cur table: 2511
epoch: 1000
next table: 2524
cur table: 2524
epoch: 1000
next table: 2605
cur table: 2524
epoch: 1000
next table: 2450
cur table: 2605
epoch: 1000
next table: 2462
cur table: 2450
epoch: 1000
next table: 2484
cur table: 2462
epoch: 1000
next table: 2514
cur table: 2484
epoch: 1000
next table: 2538
cur table: 2514
epoch: 1000
next table: 2576
cur table: 2538
epoch: 1000
next table: 2526
cur table: 2576
epoch: 1000
next table: 2527
cur table: 2526
epoch: 1000
next table: 2559
cur table: 2527
epoch: 1000
next table: 2585
cur table: 2559
epoch: 1000
next table: 2662
cur table: 2585
epoch: 1000
next table: 2605
cur table: 2662
epoch: 1000
next table: 2645
cur table: 2605
epoch: 1000
next table: 2658
cur table: 2645
epoch: 1000
next table: 2645
cur table: 2658
epoch: 1000
next table: 2627
cur table: 2645
epoch: 1000
next table: 2643
cur table: 2627
epoch: 1000
next table: 2577
cur table: 2643
epoch: 1000
next table: 2557
cur table: 2577
epoch: 1000
next table: 2560
cur table: 2557
epoch: 1000
next table: 2561
cur table: 2560
epoch: 1000
next table: 2545
cur table: 2561
epoch: 1000
next table: 2590
cur table: 2545
epoch: 1000
next table: 2521
cur table: 2590
epoch: 1000
next table: 2600
cur table: 2521
epoch: 1000
next table: 2576
cur table: 2600
epoch: 1000
next table: 2503
cur table: 2576
epoch: 1000
next table: 2563
cur table: 2503
epoch: 1000
next table: 2596
cur table: 2563
epoch: 1000
next table: 2528
cur table: 2596
epoch: 1000
next table: 2549
cur table: 2528
epoch: 1000
next table: 2648
cur table: 2549
epoch: 1000
next table: 2550
cur table: 2648
epoch: 1000
next table: 2595
cur table: 2550
epoch: 1000
next table: 2635
cur table: 2595
epoch: 1000
next table: 2612
cur table: 2635
epoch: 1000
next table: 2559
cur table: 2612
epoch: 1000
next table: 2602
cur table: 2559
epoch: 1000
next table: 2609
cur table: 2602
epoch: 1000
next table: 2548
cur table: 2609
epoch: 1000
next table: 2526
cur table: 2548
epoch: 1000
next table: 2561
cur table: 2526
epoch: 1000
next table: 2553
cur table: 2561
epoch: 1000
next table: 2531
cur table: 2553
epoch: 1000
next table: 2591
cur table: 2531
epoch: 1000
next table: 2509
cur table: 2591
epoch: 1000
next table: 2549
cur table: 2509
epoch: 1000
next table: 2620
cur table: 2549
epoch: 1000
next table: 2573
cur table: 2620
epoch: 1000
next table: 2639
cur table: 2573
epoch: 1000
next table: 2506
cur table: 2639
epoch: 1000
next table: 2590
cur table: 2506
epoch: 1000
next table: 2589
cur table: 2590
epoch: 1000
next table: 2516
cur table: 2589
epoch: 1000
next table: 2545
cur table: 2516
epoch: 1000
next table: 2553
cur table: 2545
epoch: 1000
next table: 2599
cur table: 2553
epoch: 1000
next table: 2552
cur table: 2599
epoch: 1000
next table: 2609
cur table: 2552
epoch: 1000
next table: 2502
cur table: 2609
epoch: 1000
next table: 2532
cur table: 2502
epoch: 1000
next table: 2534
cur table: 2532
epoch: 1000
next table: 2495
cur table: 2534
epoch: 1000
next table: 2542
cur table: 2495
epoch: 1000
next table: 2592
cur table: 2542
epoch: 1000
next table: 2584
cur table: 2592
epoch: 1000
next table: 2530
cur table: 2584
epoch: 1000
next table: 2579
cur table: 2530
epoch: 1000
next table: 2616
cur table: 2579
epoch: 1000
next table: 2601
cur table: 2616
epoch: 1000
next table: 2619
cur table: 2601
epoch: 1000
next table: 2557
cur table: 2619
epoch: 1000
next table: 2644
cur table: 2557
epoch: 1000
next table: 2551
cur table: 2644
epoch: 1000
next table: 2611
cur table: 2551
epoch: 1000
next table: 2544
cur table: 2611
epoch: 1000
next table: 2558
cur table: 2544
epoch: 1000
next table: 2550
cur table: 2558
epoch: 1000
next table: 2555
cur table: 2550
epoch: 1000
next table: 2553
cur table: 2555
epoch: 1000
next table: 2561
cur table: 2553
epoch: 1000
next table: 2561
cur table: 2561
epoch: 1000
next table: 2590
cur table: 2561
epoch: 1000
next table: 2619
cur table: 2590
epoch: 1000
next table: 2562
cur table: 2619
epoch: 1000
next table: 2639
cur table: 2562
epoch: 1000
next table: 2609
cur table: 2639
epoch: 1000
next table: 2423
cur table: 2609
epoch: 1000
next table: 2521
cur table: 2423
epoch: 1000
next table: 2492
cur table: 2521
epoch: 1000
next table: 2489
cur table: 2492
epoch: 1000
next table: 2481
cur table: 2489
epoch: 1000
next table: 2610
cur table: 2481
epoch: 1000
next table: 2610
cur table: 2610
epoch: 1000
next table: 2620
cur table: 2610
epoch: 1000
next table: 2564
cur table: 2620
epoch: 1000
next table: 2498
cur table: 2564
epoch: 1000
next table: 2482
cur table: 2498
epoch: 1000
next table: 2540
cur table: 2482
epoch: 1000
next table: 2465
cur table: 2540
epoch: 1000
next table: 2582
cur table: 2465
epoch: 1000
next table: 2582
cur table: 2582
epoch: 1000
next table: 2582
cur table: 2582
epoch: 1000
next table: 2595
cur table: 2582
epoch: 1000
next table: 2532
cur table: 2595
epoch: 1000
next table: 2568
cur table: 2532
epoch: 1000
next table: 2591
cur table: 2568
epoch: 1000
next table: 2531
cur table: 2591
epoch: 1000
next table: 2604
cur table: 2531
epoch: 1000
next table: 2498
cur table: 2604
epoch: 1000
next table: 2559
cur table: 2498
epoch: 1000
next table: 2587
cur table: 2559
epoch: 1000
next table: 2559
cur table: 2587
epoch: 1000
next table: 2566
cur table: 2559
epoch: 1000
next table: 2521
cur table: 2566
epoch: 1000
next table: 2538
cur table: 2521
epoch: 1000
next table: 2536
cur table: 2538
epoch: 1000
next table: 2619
cur table: 2536
epoch: 1000
next table: 2628
cur table: 2619
epoch: 1000
next table: 2564
cur table: 2628
epoch: 1000
next table: 2609
cur table: 2564
epoch: 1000
next table: 2552
cur table: 2609
epoch: 1000
next table: 2544
cur table: 2552
epoch: 1000
next table: 2524
cur table: 2544
epoch: 1000
next table: 2574
cur table: 2524
epoch: 1000
next table: 2601
cur table: 2574
epoch: 1000
next table: 2650
cur table: 2601
epoch: 1000
next table: 2549
cur table: 2650
epoch: 1000
next table: 2601
cur table: 2549
epoch: 1000
next table: 2636
cur table: 2601
epoch: 1000
next table: 2548
cur table: 2636
epoch: 1000
next table: 2591
cur table: 2548
epoch: 1000
next table: 2598
cur table: 2591
epoch: 1000
next table: 2597
cur table: 2598
epoch: 1000
next table: 2623
cur table: 2597
epoch: 1000
next table: 2627
cur table: 2623
epoch: 1000
next table: 2638
cur table: 2627
epoch: 1000
next table: 2611
cur table: 2638
epoch: 1000
next table: 2572
cur table: 2611
epoch: 1000
next table: 2608
cur table: 2572
epoch: 1000
next table: 2600
cur table: 2608
epoch: 1000
next table: 2564
cur table: 2600
epoch: 1000
next table: 2538
cur table: 2564
epoch: 1000
next table: 2539
cur table: 2538
epoch: 1000
next table: 2577
cur table: 2539
epoch: 1000
next table: 2624
cur table: 2577
epoch: 1000
next table: 2630
cur table: 2624
epoch: 1000
next table: 2592
cur table: 2630
epoch: 1000
next table: 2533
cur table: 2592
epoch: 1000
next table: 2502
cur table: 2533
epoch: 1000
next table: 2540
cur table: 2502
epoch: 1000
next table: 2448
cur table: 2540
epoch: 1000
next table: 2512
cur table: 2448
epoch: 1000
next table: 2531
cur table: 2512
epoch: 1000
next table: 2551
cur table: 2531
epoch: 1000
next table: 2618
cur table: 2551
epoch: 1000
next table: 2604
cur table: 2618
epoch: 1000
next table: 2602
cur table: 2604
epoch: 1000
next table: 2620
cur table: 2602
epoch: 1000
next table: 2547
cur table: 2620
epoch: 1000
next table: 2509
cur table: 2547
epoch: 1000
next table: 2529
cur table: 2509
epoch: 1000
next table: 2591
cur table: 2529
epoch: 1000
next table: 2574
cur table: 2591
epoch: 1000
next table: 2614
cur table: 2574
epoch: 1000
next table: 2621
cur table: 2614
epoch: 1000
next table: 2629
cur table: 2621
epoch: 1000
next table: 2632
cur table: 2629
epoch: 1000
next table: 2630
cur table: 2632
epoch: 1000
next table: 2627
cur table: 2630
epoch: 1000
next table: 2606
cur table: 2627
epoch: 1000
next table: 2606
cur table: 2606
epoch: 1000
next table: 2631
cur table: 2606
epoch: 1000
next table: 2553
cur table: 2631
epoch: 1000
next table: 2584
cur table: 2553
epoch: 1000
next table: 2606
cur table: 2584
epoch: 1000
next table: 2597
cur table: 2606
epoch: 1000
next table: 2622
cur table: 2597
epoch: 1000
next table: 2623
cur table: 2622
epoch: 1000
next table: 2587
cur table: 2623
epoch: 1000
next table: 2577
cur table: 2587
epoch: 1000
next table: 2528
cur table: 2577
epoch: 1000
next table: 2578
cur table: 2528
epoch: 1000
next table: 2607
cur table: 2578
epoch: 1000
next table: 2589
cur table: 2607
epoch: 1000
next table: 2599
cur table: 2589
epoch: 1000
next table: 2589
cur table: 2599
epoch: 1000
next table: 2639
cur table: 2589
epoch: 1000
next table: 2573
cur table: 2639
epoch: 1000
next table: 2575
cur table: 2573
epoch: 1000
next table: 2587
cur table: 2575
epoch: 1000
next table: 2523
cur table: 2587
epoch: 1000
next table: 2708
cur table: 2523
epoch: 1000
next table: 2578
cur table: 2708
epoch: 1000
next table: 2657
cur table: 2578
epoch: 1000
next table: 2606
cur table: 2657
epoch: 1000
next table: 2625
cur table: 2606
epoch: 1000
next table: 2620
cur table: 2625
epoch: 1000
next table: 2588
cur table: 2620
epoch: 1000
next table: 2565
cur table: 2588
epoch: 1000
next table: 2562
cur table: 2565
epoch: 1000
next table: 2544
cur table: 2562
epoch: 1000
next table: 2450
cur table: 2544
epoch: 1000
next table: 2505
cur table: 2450
epoch: 1000
next table: 2645
cur table: 2505
epoch: 1000
next table: 2549
cur table: 2645
epoch: 1000
next table: 2634
cur table: 2549
epoch: 1000
next table: 2520
cur table: 2634
epoch: 1000
next table: 2531
cur table: 2520
epoch: 1000
next table: 2530
cur table: 2531
epoch: 1000
next table: 2568
cur table: 2530
epoch: 1000
next table: 2648
cur table: 2568
epoch: 1000
next table: 2606
cur table: 2648
epoch: 1000
next table: 2577
cur table: 2606
epoch: 1000
next table: 2534
cur table: 2577
epoch: 1000
next table: 2546
cur table: 2534
epoch: 1000
next table: 2502
cur table: 2546
epoch: 1000
next table: 2527
cur table: 2502
epoch: 1000
next table: 2512
cur table: 2527
epoch: 1000
next table: 2655
cur table: 2512
epoch: 1000
next table: 2593
cur table: 2655
epoch: 1000
next table: 2514
cur table: 2593
epoch: 1000
next table: 2562
cur table: 2514
epoch: 1000
next table: 2574
cur table: 2562
epoch: 1000
next table: 2567
cur table: 2574
epoch: 1000
next table: 2598
cur table: 2567
epoch: 1000
next table: 2562
cur table: 2598
epoch: 1000
next table: 2582
cur table: 2562
epoch: 1000
next table: 2546
cur table: 2582
epoch: 1000
next table: 2489
cur table: 2546
epoch: 1000
next table: 2546
cur table: 2489
epoch: 1000
next table: 2478
cur table: 2546
epoch: 1000
next table: 2500
cur table: 2478
epoch: 1000
next table: 2580
cur table: 2500
epoch: 1000
next table: 2584
cur table: 2580
epoch: 1000
next table: 2609
cur table: 2584
epoch: 1000
next table: 2591
cur table: 2609
epoch: 1000
next table: 2555
cur table: 2591
epoch: 1000
next table: 2629
cur table: 2555
epoch: 1000
next table: 2517
cur table: 2629
epoch: 1000
next table: 2661
cur table: 2517
epoch: 1000
next table: 2578
cur table: 2661
epoch: 1000
next table: 2565
cur table: 2578
epoch: 1000
next table: 2554
cur table: 2565
epoch: 1000
next table: 2611
cur table: 2554
epoch: 1000
next table: 2538
cur table: 2611
epoch: 1000
next table: 2549
cur table: 2538
epoch: 1000
next table: 2516
cur table: 2549
epoch: 1000
next table: 2502
cur table: 2516
epoch: 1000
next table: 2629
cur table: 2502
epoch: 1000
next table: 2623
cur table: 2629
epoch: 1000
next table: 2630
cur table: 2623
epoch: 1000
next table: 2537
cur table: 2630
epoch: 1000
next table: 2620
cur table: 2537
epoch: 1000
next table: 2575
cur table: 2620
epoch: 1000
next table: 2594
cur table: 2575
epoch: 1000
next table: 2601
cur table: 2594
epoch: 1000
next table: 2488
cur table: 2601
epoch: 1000
next table: 2569
cur table: 2488
epoch: 1000
next table: 2599
cur table: 2569
epoch: 1000
next table: 2627
cur table: 2599
epoch: 1000
next table: 2580
cur table: 2627
epoch: 1000
next table: 2664
cur table: 2580
epoch: 1000
next table: 2536
cur table: 2664
epoch: 1000
next table: 2587
cur table: 2536
epoch: 1000
next table: 2516
cur table: 2587
epoch: 1000
next table: 2572
cur table: 2516
epoch: 1000
next table: 2542
cur table: 2572
epoch: 1000
next table: 2553
cur table: 2542
epoch: 1000
next table: 2590
cur table: 2553
epoch: 1000
next table: 2510
cur table: 2590
epoch: 1000
next table: 2501
cur table: 2510
epoch: 1000
next table: 2474
cur table: 2501
epoch: 1000
next table: 2471
cur table: 2474
epoch: 1000
next table: 2556
cur table: 2471
epoch: 1000
next table: 2570
cur table: 2556
epoch: 1000
next table: 2555
cur table: 2570
epoch: 1000
next table: 2509
cur table: 2555
epoch: 1000
next table: 2523
cur table: 2509
epoch: 1000
next table: 2420
cur table: 2523
epoch: 1000
next table: 2471
cur table: 2420
epoch: 1000
next table: 2471
cur table: 2471
epoch: 1000
next table: 2420
cur table: 2471
epoch: 1000
next table: 2554
cur table: 2420
epoch: 1000
next table: 2475
cur table: 2554
epoch: 1000
next table: 2612
cur table: 2475
epoch: 1000
next table: 2547
cur table: 2612
epoch: 1000
next table: 2521
cur table: 2547
epoch: 1000
next table: 2558
cur table: 2521
epoch: 1000
next table: 2593
cur table: 2558
epoch: 1000
next table: 2532
cur table: 2593
epoch: 1000
next table: 2574
cur table: 2532
epoch: 1000
next table: 2555
cur table: 2574
epoch: 1000
next table: 2522
cur table: 2555
epoch: 1000
next table: 2528
cur table: 2522
epoch: 1000
next table: 2576
cur table: 2528
epoch: 1000
next table: 2500
cur table: 2576
epoch: 1000
next table: 2532
cur table: 2500
epoch: 1000
next table: 2534
cur table: 2532
epoch: 1000
next table: 2623
cur table: 2534
epoch: 1000
next table: 2562
cur table: 2623
epoch: 1000
next table: 2600
cur table: 2562
epoch: 1000
next table: 2573
cur table: 2600
epoch: 1000
next table: 2508
cur table: 2573
epoch: 1000
next table: 2612
cur table: 2508
epoch: 1000
next table: 2518
cur table: 2612
epoch: 1000
next table: 2532
cur table: 2518
epoch: 1000
next table: 2521
cur table: 2532
epoch: 1000
next table: 2494
cur table: 2521
epoch: 1000
next table: 2571
cur table: 2494
epoch: 1000
next table: 2595
cur table: 2571
epoch: 1000
next table: 2563
cur table: 2595
epoch: 1000
next table: 2633
cur table: 2563
epoch: 1000
next table: 2553
cur table: 2633
epoch: 1000
next table: 2567
cur table: 2553
epoch: 1000
next table: 2431
cur table: 2567
epoch: 1000
next table: 2522
cur table: 2431
epoch: 1000
next table: 2517
cur table: 2522
epoch: 1000
next table: 2510
cur table: 2517
epoch: 1000
next table: 2585
cur table: 2510
epoch: 1000
next table: 2583
cur table: 2585
epoch: 1000
next table: 2601
cur table: 2583
epoch: 1000
next table: 2552
cur table: 2601
epoch: 1000
next table: 2605
cur table: 2552
epoch: 1000
next table: 2621
cur table: 2605
epoch: 1000
next table: 2635
cur table: 2621
epoch: 1000
next table: 2570
cur table: 2635
epoch: 1000
next table: 2591
cur table: 2570
epoch: 1000
next table: 2594
cur table: 2591
epoch: 1000
next table: 2518
cur table: 2594
epoch: 1000
next table: 2625
cur table: 2518
epoch: 1000
next table: 2593
cur table: 2625
epoch: 1000
next table: 2597
cur table: 2593
epoch: 1000
next table: 2518
cur table: 2597
epoch: 1000
next table: 2581
cur table: 2518
epoch: 1000
next table: 2527
cur table: 2581
epoch: 1000
next table: 2567
cur table: 2527
epoch: 1000
next table: 2605
cur table: 2567
epoch: 1000
next table: 2597
cur table: 2605
epoch: 1000
next table: 2608
cur table: 2597
epoch: 1000
next table: 2579
cur table: 2608
epoch: 1000
next table: 2524
cur table: 2579
epoch: 1000
next table: 2495
cur table: 2524
epoch: 1000
next table: 2497
cur table: 2495
epoch: 1000
next table: 2581
cur table: 2497
epoch: 1000
next table: 2548
cur table: 2581
epoch: 1000
next table: 2521
cur table: 2548
epoch: 1000
next table: 2485
cur table: 2521
epoch: 1000
next table: 2513
cur table: 2485
epoch: 1000
next table: 2565
cur table: 2513
epoch: 1000
next table: 2614
cur table: 2565
epoch: 1000
next table: 2571
cur table: 2614
epoch: 1000
next table: 2582
cur table: 2571
epoch: 1000
next table: 2574
cur table: 2582
epoch: 1000
next table: 2598
cur table: 2574
epoch: 1000
next table: 2563
cur table: 2598
epoch: 1000
next table: 2426
cur table: 2563
epoch: 1000
next table: 2440
cur table: 2426
epoch: 1000
next table: 2510
cur table: 2440
Heartbeat CPU 0 instructions: 20000001 cycles: 5824466 heartbeat IPC: 3.44004 cumulative IPC: 3.43379 (Simulation time: 0 hr 12 min 9 sec) 
epoch: 1000
next table: 2453
cur table: 2510
epoch: 1000
next table: 2491
cur table: 2453
epoch: 1000
next table: 2530
cur table: 2491
epoch: 1000
next table: 2581
cur table: 2530
epoch: 1000
next table: 2493
cur table: 2581
epoch: 1000
next table: 2537
cur table: 2493
epoch: 1000
next table: 2554
cur table: 2537
epoch: 1000
next table: 2604
cur table: 2554
epoch: 1000
next table: 2531
cur table: 2604
epoch: 1000
next table: 2625
cur table: 2531
epoch: 1000
next table: 2541
cur table: 2625
epoch: 1000
next table: 2500
cur table: 2541
epoch: 1000
next table: 2458
cur table: 2500
epoch: 1000
next table: 2427
cur table: 2458
epoch: 1000
next table: 2459
cur table: 2427
epoch: 1000
next table: 2461
cur table: 2459
epoch: 1000
next table: 2531
cur table: 2461
epoch: 1000
next table: 2532
cur table: 2531
epoch: 1000
next table: 2533
cur table: 2532
epoch: 1000
next table: 2590
cur table: 2533
epoch: 1000
next table: 2592
cur table: 2590
epoch: 1000
next table: 2584
cur table: 2592
epoch: 1000
next table: 2616
cur table: 2584
epoch: 1000
next table: 2584
cur table: 2616
epoch: 1000
next table: 2641
cur table: 2584
epoch: 1000
next table: 2581
cur table: 2641
epoch: 1000
next table: 2622
cur table: 2581
epoch: 1000
next table: 2556
cur table: 2622
epoch: 1000
next table: 2656
cur table: 2556
epoch: 1000
next table: 2536
cur table: 2656
epoch: 1000
next table: 2573
cur table: 2536
epoch: 1000
next table: 2610
cur table: 2573
epoch: 1000
next table: 2611
cur table: 2610
epoch: 1000
next table: 2565
cur table: 2611
epoch: 1000
next table: 2520
cur table: 2565
epoch: 1000
next table: 2604
cur table: 2520
epoch: 1000
next table: 2582
cur table: 2604
epoch: 1000
next table: 2544
cur table: 2582
epoch: 1000
next table: 2503
cur table: 2544
epoch: 1000
next table: 2533
cur table: 2503
epoch: 1000
next table: 2544
cur table: 2533
epoch: 1000
next table: 2577
cur table: 2544
epoch: 1000
next table: 2538
cur table: 2577
epoch: 1000
next table: 2622
cur table: 2538
epoch: 1000
next table: 2543
cur table: 2622
epoch: 1000
next table: 2507
cur table: 2543
epoch: 1000
next table: 2424
cur table: 2507
epoch: 1000
next table: 2475
cur table: 2424
epoch: 1000
next table: 2520
cur table: 2475
epoch: 1000
next table: 2500
cur table: 2520
epoch: 1000
next table: 2539
cur table: 2500
epoch: 1000
next table: 2559
cur table: 2539
epoch: 1000
next table: 2561
cur table: 2559
epoch: 1000
next table: 2623
cur table: 2561
epoch: 1000
next table: 2606
cur table: 2623
epoch: 1000
next table: 2612
cur table: 2606
epoch: 1000
next table: 2587
cur table: 2612
epoch: 1000
next table: 2554
cur table: 2587
epoch: 1000
next table: 2554
cur table: 2554
epoch: 1000
next table: 2448
cur table: 2554
epoch: 1000
next table: 2500
cur table: 2448
epoch: 1000
next table: 2449
cur table: 2500
epoch: 1000
next table: 2508
cur table: 2449
epoch: 1000
next table: 2505
cur table: 2508
epoch: 1000
next table: 2557
cur table: 2505
epoch: 1000
next table: 2542
cur table: 2557
epoch: 1000
next table: 2560
cur table: 2542
epoch: 1000
next table: 2573
cur table: 2560
epoch: 1000
next table: 2557
cur table: 2573
epoch: 1000
next table: 2551
cur table: 2557
epoch: 1000
next table: 2589
cur table: 2551
epoch: 1000
next table: 2596
cur table: 2589
epoch: 1000
next table: 2593
cur table: 2596
epoch: 1000
next table: 2611
cur table: 2593
epoch: 1000
next table: 2594
cur table: 2611
epoch: 1000
next table: 2609
cur table: 2594
epoch: 1000
next table: 2516
cur table: 2609
epoch: 1000
next table: 2468
cur table: 2516
epoch: 1000
next table: 2536
cur table: 2468
epoch: 1000
next table: 2597
cur table: 2536
epoch: 1000
next table: 2548
cur table: 2597
epoch: 1000
next table: 2541
cur table: 2548
epoch: 1000
next table: 2542
cur table: 2541
epoch: 1000
next table: 2572
cur table: 2542
epoch: 1000
next table: 2522
cur table: 2572
epoch: 1000
next table: 2502
cur table: 2522
epoch: 1000
next table: 2584
cur table: 2502
epoch: 1000
next table: 2531
cur table: 2584
epoch: 1000
next table: 2519
cur table: 2531
epoch: 1000
next table: 2431
cur table: 2519
epoch: 1000
next table: 2470
cur table: 2431
epoch: 1000
next table: 2533
cur table: 2470
epoch: 1000
next table: 2526
cur table: 2533
epoch: 1000
next table: 2477
cur table: 2526
epoch: 1000
next table: 2574
cur table: 2477
epoch: 1000
next table: 2651
cur table: 2574
epoch: 1000
next table: 2491
cur table: 2651
epoch: 1000
next table: 2537
cur table: 2491
epoch: 1000
next table: 2545
cur table: 2537
epoch: 1000
next table: 2649
cur table: 2545
epoch: 1000
next table: 2593
cur table: 2649
epoch: 1000
next table: 2601
cur table: 2593
epoch: 1000
next table: 2494
cur table: 2601
epoch: 1000
next table: 2506
cur table: 2494
epoch: 1000
next table: 2602
cur table: 2506
epoch: 1000
next table: 2488
cur table: 2602
epoch: 1000
next table: 2473
cur table: 2488
epoch: 1000
next table: 2481
cur table: 2473
epoch: 1000
next table: 2495
cur table: 2481
epoch: 1000
next table: 2532
cur table: 2495
epoch: 1000
next table: 2501
cur table: 2532
epoch: 1000
next table: 2559
cur table: 2501
epoch: 1000
next table: 2517
cur table: 2559
epoch: 1000
next table: 2539
cur table: 2517
epoch: 1000
next table: 2643
cur table: 2539
epoch: 1000
next table: 2545
cur table: 2643
epoch: 1000
next table: 2604
cur table: 2545
epoch: 1000
next table: 2563
cur table: 2604
epoch: 1000
next table: 2600
cur table: 2563
epoch: 1000
next table: 2616
cur table: 2600
epoch: 1000
next table: 2609
cur table: 2616
epoch: 1000
next table: 2587
cur table: 2609
epoch: 1000
next table: 2605
cur table: 2587
epoch: 1000
next table: 2558
cur table: 2605
epoch: 1000
next table: 2605
cur table: 2558
epoch: 1000
next table: 2590
cur table: 2605
epoch: 1000
next table: 2587
cur table: 2590
epoch: 1000
next table: 2583
cur table: 2587
epoch: 1000
next table: 2562
cur table: 2583
epoch: 1000
next table: 2572
cur table: 2562
epoch: 1000
next table: 2614
cur table: 2572
epoch: 1000
next table: 2658
cur table: 2614
epoch: 1000
next table: 2625
cur table: 2658
epoch: 1000
next table: 2613
cur table: 2625
epoch: 1000
next table: 2567
cur table: 2613
epoch: 1000
next table: 2633
cur table: 2567
epoch: 1000
next table: 2636
cur table: 2633
epoch: 1000
next table: 2593
cur table: 2636
epoch: 1000
next table: 2505
cur table: 2593
epoch: 1000
next table: 2593
cur table: 2505
epoch: 1000
next table: 2543
cur table: 2593
epoch: 1000
next table: 2557
cur table: 2543
epoch: 1000
next table: 2591
cur table: 2557
epoch: 1000
next table: 2580
cur table: 2591
epoch: 1000
next table: 2522
cur table: 2580
epoch: 1000
next table: 2623
cur table: 2522
epoch: 1000
next table: 2554
cur table: 2623
epoch: 1000
next table: 2493
cur table: 2554
epoch: 1000
next table: 2556
cur table: 2493
epoch: 1000
next table: 2601
cur table: 2556
epoch: 1000
next table: 2575
cur table: 2601
epoch: 1000
next table: 2596
cur table: 2575
epoch: 1000
next table: 2518
cur table: 2596
epoch: 1000
next table: 2539
cur table: 2518
epoch: 1000
next table: 2597
cur table: 2539
epoch: 1000
next table: 2610
cur table: 2597
epoch: 1000
next table: 2582
cur table: 2610
epoch: 1000
next table: 2558
cur table: 2582
epoch: 1000
next table: 2562
cur table: 2558
epoch: 1000
next table: 2572
cur table: 2562
epoch: 1000
next table: 2581
cur table: 2572
epoch: 1000
next table: 2580
cur table: 2581
epoch: 1000
next table: 2591
cur table: 2580
epoch: 1000
next table: 2590
cur table: 2591
epoch: 1000
next table: 2600
cur table: 2590
epoch: 1000
next table: 2520
cur table: 2600
epoch: 1000
next table: 2565
cur table: 2520
epoch: 1000
next table: 2548
cur table: 2565
epoch: 1000
next table: 2544
cur table: 2548
epoch: 1000
next table: 2496
cur table: 2544
epoch: 1000
next table: 2494
cur table: 2496
epoch: 1000
next table: 2513
cur table: 2494
epoch: 1000
next table: 2486
cur table: 2513
epoch: 1000
next table: 2561
cur table: 2486
epoch: 1000
next table: 2489
cur table: 2561
epoch: 1000
next table: 2586
cur table: 2489
epoch: 1000
next table: 2551
cur table: 2586
epoch: 1000
next table: 2521
cur table: 2551
epoch: 1000
next table: 2494
cur table: 2521
epoch: 1000
next table: 2494
cur table: 2494
epoch: 1000
next table: 2504
cur table: 2494
epoch: 1000
next table: 2530
cur table: 2504
epoch: 1000
next table: 2542
cur table: 2530
epoch: 1000
next table: 2558
cur table: 2542
epoch: 1000
next table: 2562
cur table: 2558
epoch: 1000
next table: 2508
cur table: 2562
epoch: 1000
next table: 2500
cur table: 2508
epoch: 1000
next table: 2447
cur table: 2500
epoch: 1000
next table: 2524
cur table: 2447
epoch: 1000
next table: 2467
cur table: 2524
epoch: 1000
next table: 2497
cur table: 2467
epoch: 1000
next table: 2557
cur table: 2497
epoch: 1000
next table: 2605
cur table: 2557
epoch: 1000
next table: 2571
cur table: 2605
epoch: 1000
next table: 2552
cur table: 2571
epoch: 1000
next table: 2577
cur table: 2552
epoch: 1000
next table: 2497
cur table: 2577
epoch: 1000
next table: 2570
cur table: 2497
epoch: 1000
next table: 2543
cur table: 2570
epoch: 1000
next table: 2553
cur table: 2543
epoch: 1000
next table: 2518
cur table: 2553
epoch: 1000
next table: 2617
cur table: 2518
epoch: 1000
next table: 2521
cur table: 2617
epoch: 1000
next table: 2533
cur table: 2521
epoch: 1000
next table: 2639
cur table: 2533
epoch: 1000
next table: 2574
cur table: 2639
epoch: 1000
next table: 2620
cur table: 2574
epoch: 1000
next table: 2636
cur table: 2620
epoch: 1000
next table: 2640
cur table: 2636
epoch: 1000
next table: 2637
cur table: 2640
epoch: 1000
next table: 2591
cur table: 2637
epoch: 1000
next table: 2630
cur table: 2591
epoch: 1000
next table: 2553
cur table: 2630
epoch: 1000
next table: 2587
cur table: 2553
epoch: 1000
next table: 2570
cur table: 2587
epoch: 1000
next table: 2549
cur table: 2570
epoch: 1000
next table: 2624
cur table: 2549
epoch: 1000
next table: 2554
cur table: 2624
epoch: 1000
next table: 2641
cur table: 2554
epoch: 1000
next table: 2602
cur table: 2641
epoch: 1000
next table: 2630
cur table: 2602
epoch: 1000
next table: 2571
cur table: 2630
epoch: 1000
next table: 2517
cur table: 2571
epoch: 1000
next table: 2551
cur table: 2517
epoch: 1000
next table: 2574
cur table: 2551
epoch: 1000
next table: 2568
cur table: 2574
epoch: 1000
next table: 2505
cur table: 2568
epoch: 1000
next table: 2623
cur table: 2505
epoch: 1000
next table: 2624
cur table: 2623
epoch: 1000
next table: 2550
cur table: 2624
epoch: 1000
next table: 2598
cur table: 2550
epoch: 1000
next table: 2529
cur table: 2598
epoch: 1000
next table: 2543
cur table: 2529
epoch: 1000
next table: 2539
cur table: 2543
epoch: 1000
next table: 2477
cur table: 2539
epoch: 1000
next table: 2527
cur table: 2477
epoch: 1000
next table: 2612
cur table: 2527
epoch: 1000
next table: 2450
cur table: 2612
epoch: 1000
next table: 2593
cur table: 2450
epoch: 1000
next table: 2506
cur table: 2593
epoch: 1000
next table: 2542
cur table: 2506
epoch: 1000
next table: 2496
cur table: 2542
epoch: 1000
next table: 2484
cur table: 2496
epoch: 1000
next table: 2456
cur table: 2484
epoch: 1000
next table: 2580
cur table: 2456
epoch: 1000
next table: 2428
cur table: 2580
epoch: 1000
next table: 2566
cur table: 2428
epoch: 1000
next table: 2577
cur table: 2566
epoch: 1000
next table: 2509
cur table: 2577
epoch: 1000
next table: 2508
cur table: 2509
epoch: 1000
next table: 2540
cur table: 2508
epoch: 1000
next table: 2476
cur table: 2540
epoch: 1000
next table: 2549
cur table: 2476
epoch: 1000
next table: 2475
cur table: 2549
epoch: 1000
next table: 2476
cur table: 2475
epoch: 1000
next table: 2416
cur table: 2476
epoch: 1000
next table: 2491
cur table: 2416
epoch: 1000
next table: 2529
cur table: 2491
epoch: 1000
next table: 2524
cur table: 2529
epoch: 1000
next table: 2586
cur table: 2524
epoch: 1000
next table: 2537
cur table: 2586
epoch: 1000
next table: 2555
cur table: 2537
epoch: 1000
next table: 2517
cur table: 2555
epoch: 1000
next table: 2566
cur table: 2517
epoch: 1000
next table: 2414
cur table: 2566
epoch: 1000
next table: 2405
cur table: 2414
epoch: 1000
next table: 2551
cur table: 2405
epoch: 1000
next table: 2480
cur table: 2551
epoch: 1000
next table: 2532
cur table: 2480
epoch: 1000
next table: 2599
cur table: 2532
epoch: 1000
next table: 2538
cur table: 2599
epoch: 1000
next table: 2582
cur table: 2538
epoch: 1000
next table: 2539
cur table: 2582
epoch: 1000
next table: 2546
cur table: 2539
epoch: 1000
next table: 2543
cur table: 2546
epoch: 1000
next table: 2583
cur table: 2543
epoch: 1000
next table: 2587
cur table: 2583
epoch: 1000
next table: 2594
cur table: 2587
epoch: 1000
next table: 2544
cur table: 2594
epoch: 1000
next table: 2567
cur table: 2544
epoch: 1000
next table: 2617
cur table: 2567
epoch: 1000
next table: 2438
cur table: 2617
epoch: 1000
next table: 2416
cur table: 2438
epoch: 1000
next table: 2468
cur table: 2416
epoch: 1000
next table: 2443
cur table: 2468
epoch: 1000
next table: 2466
cur table: 2443
epoch: 1000
next table: 2451
cur table: 2466
epoch: 1000
next table: 2556
cur table: 2451
epoch: 1000
next table: 2598
cur table: 2556
epoch: 1000
next table: 2657
cur table: 2598
epoch: 1000
next table: 2624
cur table: 2657
epoch: 1000
next table: 2466
cur table: 2624
epoch: 1000
next table: 2459
cur table: 2466
epoch: 1000
next table: 2477
cur table: 2459
epoch: 1000
next table: 2532
cur table: 2477
epoch: 1000
next table: 2563
cur table: 2532
epoch: 1000
next table: 2559
cur table: 2563
epoch: 1000
next table: 2569
cur table: 2559
epoch: 1000
next table: 2581
cur table: 2569
epoch: 1000
next table: 2595
cur table: 2581
epoch: 1000
next table: 2603
cur table: 2595
epoch: 1000
next table: 2509
cur table: 2603
epoch: 1000
next table: 2427
cur table: 2509
epoch: 1000
next table: 2462
cur table: 2427
epoch: 1000
next table: 2396
cur table: 2462
epoch: 1000
next table: 2487
cur table: 2396
epoch: 1000
next table: 2504
cur table: 2487
epoch: 1000
next table: 2461
cur table: 2504
epoch: 1000
next table: 2505
cur table: 2461
epoch: 1000
next table: 2483
cur table: 2505
epoch: 1000
next table: 2430
cur table: 2483
epoch: 1000
next table: 2384
cur table: 2430
epoch: 1000
next table: 2456
cur table: 2384
epoch: 1000
next table: 2462
cur table: 2456
epoch: 1000
next table: 2493
cur table: 2462
epoch: 1000
next table: 2455
cur table: 2493
epoch: 1000
next table: 2424
cur table: 2455
epoch: 1000
next table: 2491
cur table: 2424
epoch: 1000
next table: 2526
cur table: 2491
epoch: 1000
next table: 2579
cur table: 2526
epoch: 1000
next table: 2574
cur table: 2579
epoch: 1000
next table: 2648
cur table: 2574
epoch: 1000
next table: 2650
cur table: 2648
epoch: 1000
next table: 2651
cur table: 2650
epoch: 1000
next table: 2641
cur table: 2651
epoch: 1000
next table: 2670
cur table: 2641
epoch: 1000
next table: 2676
cur table: 2670
epoch: 1000
next table: 2524
cur table: 2676
epoch: 1000
next table: 2479
cur table: 2524
epoch: 1000
next table: 2384
cur table: 2479
epoch: 1000
next table: 2458
cur table: 2384
epoch: 1000
next table: 2456
cur table: 2458
epoch: 1000
next table: 2484
cur table: 2456
epoch: 1000
next table: 2489
cur table: 2484
epoch: 1000
next table: 2542
cur table: 2489
epoch: 1000
next table: 2616
cur table: 2542
epoch: 1000
next table: 2595
cur table: 2616
epoch: 1000
next table: 2617
cur table: 2595
epoch: 1000
next table: 2615
cur table: 2617
epoch: 1000
next table: 2635
cur table: 2615
epoch: 1000
next table: 2679
cur table: 2635
epoch: 1000
next table: 2661
cur table: 2679
epoch: 1000
next table: 2621
cur table: 2661
epoch: 1000
next table: 2639
cur table: 2621
epoch: 1000
next table: 2648
cur table: 2639
epoch: 1000
next table: 2666
cur table: 2648
epoch: 1000
next table: 2639
cur table: 2666
epoch: 1000
next table: 2662
cur table: 2639
epoch: 1000
next table: 2636
cur table: 2662
epoch: 1000
next table: 2562
cur table: 2636
epoch: 1000
next table: 2648
cur table: 2562
epoch: 1000
next table: 2645
cur table: 2648
epoch: 1000
next table: 2636
cur table: 2645
epoch: 1000
next table: 2645
cur table: 2636
epoch: 1000
next table: 2624
cur table: 2645
epoch: 1000
next table: 2598
cur table: 2624
epoch: 1000
next table: 2631
cur table: 2598
epoch: 1000
next table: 2620
cur table: 2631
epoch: 1000
next table: 2623
cur table: 2620
epoch: 1000
next table: 2599
cur table: 2623
epoch: 1000
next table: 2633
cur table: 2599
epoch: 1000
next table: 2612
cur table: 2633
epoch: 1000
next table: 2606
cur table: 2612
epoch: 1000
next table: 2631
cur table: 2606
epoch: 1000
next table: 2560
cur table: 2631
epoch: 1000
next table: 2623
cur table: 2560
epoch: 1000
next table: 2576
cur table: 2623
epoch: 1000
next table: 2606
cur table: 2576
epoch: 1000
next table: 2560
cur table: 2606
epoch: 1000
next table: 2632
cur table: 2560
epoch: 1000
next table: 2576
cur table: 2632
epoch: 1000
next table: 2614
cur table: 2576
epoch: 1000
next table: 2613
cur table: 2614
epoch: 1000
next table: 2622
cur table: 2613
epoch: 1000
next table: 2638
cur table: 2622
epoch: 1000
next table: 2648
cur table: 2638
epoch: 1000
next table: 2652
cur table: 2648
epoch: 1000
next table: 2669
cur table: 2652
epoch: 1000
next table: 2627
cur table: 2669
epoch: 1000
next table: 2611
cur table: 2627
epoch: 1000
next table: 2678
cur table: 2611
epoch: 1000
next table: 2650
cur table: 2678
epoch: 1000
next table: 2639
cur table: 2650
epoch: 1000
next table: 2640
cur table: 2639
epoch: 1000
next table: 2666
cur table: 2640
epoch: 1000
next table: 2640
cur table: 2666
epoch: 1000
next table: 2603
cur table: 2640
epoch: 1000
next table: 2656
cur table: 2603
epoch: 1000
next table: 2619
cur table: 2656
epoch: 1000
next table: 2639
cur table: 2619
epoch: 1000
next table: 2628
cur table: 2639
epoch: 1000
next table: 2607
cur table: 2628
epoch: 1000
next table: 2586
cur table: 2607
epoch: 1000
next table: 2553
cur table: 2586
epoch: 1000
next table: 2585
cur table: 2553
epoch: 1000
next table: 2530
cur table: 2585
epoch: 1000
next table: 2584
cur table: 2530
epoch: 1000
next table: 2574
cur table: 2584
epoch: 1000
next table: 2604
cur table: 2574
epoch: 1000
next table: 2618
cur table: 2604
epoch: 1000
next table: 2506
cur table: 2618
epoch: 1000
next table: 2525
cur table: 2506
epoch: 1000
next table: 2597
cur table: 2525
epoch: 1000
next table: 2651
cur table: 2597
epoch: 1000
next table: 2561
cur table: 2651
epoch: 1000
next table: 2519
cur table: 2561
epoch: 1000
next table: 2400
cur table: 2519
epoch: 1000
next table: 2446
cur table: 2400
epoch: 1000
next table: 2353
cur table: 2446
epoch: 1000
next table: 2478
cur table: 2353
epoch: 1000
next table: 2509
cur table: 2478
epoch: 1000
next table: 2590
cur table: 2509
epoch: 1000
next table: 2578
cur table: 2590
epoch: 1000
next table: 2669
cur table: 2578
epoch: 1000
next table: 2614
cur table: 2669
epoch: 1000
next table: 2639
cur table: 2614
epoch: 1000
next table: 2680
cur table: 2639
epoch: 1000
next table: 2667
cur table: 2680
epoch: 1000
next table: 2641
cur table: 2667
epoch: 1000
next table: 2623
cur table: 2641
epoch: 1000
next table: 2692
cur table: 2623
epoch: 1000
next table: 2660
cur table: 2692
epoch: 1000
next table: 2648
cur table: 2660
epoch: 1000
next table: 2644
cur table: 2648
epoch: 1000
next table: 2624
cur table: 2644
epoch: 1000
next table: 2541
cur table: 2624
epoch: 1000
next table: 2676
cur table: 2541
epoch: 1000
next table: 2606
cur table: 2676
epoch: 1000
next table: 2613
cur table: 2606
epoch: 1000
next table: 2606
cur table: 2613
epoch: 1000
next table: 2605
cur table: 2606
epoch: 1000
next table: 2483
cur table: 2605
epoch: 1000
next table: 2547
cur table: 2483
epoch: 1000
next table: 2521
cur table: 2547
epoch: 1000
next table: 2591
cur table: 2521
epoch: 1000
next table: 2557
cur table: 2591
epoch: 1000
next table: 2593
cur table: 2557
epoch: 1000
next table: 2581
cur table: 2593
epoch: 1000
next table: 2597
cur table: 2581
epoch: 1000
next table: 2639
cur table: 2597
epoch: 1000
next table: 2671
cur table: 2639
epoch: 1000
next table: 2653
cur table: 2671
epoch: 1000
next table: 2612
cur table: 2653
epoch: 1000
next table: 2630
cur table: 2612
epoch: 1000
next table: 2597
cur table: 2630
epoch: 1000
next table: 2597
cur table: 2597
epoch: 1000
next table: 2598
cur table: 2597
epoch: 1000
next table: 2596
cur table: 2598
epoch: 1000
next table: 2606
cur table: 2596
epoch: 1000
next table: 2627
cur table: 2606
epoch: 1000
next table: 2519
cur table: 2627
epoch: 1000
next table: 2530
cur table: 2519
epoch: 1000
next table: 2494
cur table: 2530
epoch: 1000
next table: 2458
cur table: 2494
epoch: 1000
next table: 2512
cur table: 2458
epoch: 1000
next table: 2589
cur table: 2512
epoch: 1000
next table: 2561
cur table: 2589
epoch: 1000
next table: 2445
cur table: 2561
epoch: 1000
next table: 2412
cur table: 2445
epoch: 1000
next table: 2485
cur table: 2412
epoch: 1000
next table: 2494
cur table: 2485
epoch: 1000
next table: 2562
cur table: 2494
epoch: 1000
next table: 2586
cur table: 2562
epoch: 1000
next table: 2661
cur table: 2586
epoch: 1000
next table: 2633
cur table: 2661
epoch: 1000
next table: 2528
cur table: 2633
epoch: 1000
next table: 2503
cur table: 2528
epoch: 1000
next table: 2478
cur table: 2503
epoch: 1000
next table: 2436
cur table: 2478
epoch: 1000
next table: 2484
cur table: 2436
epoch: 1000
next table: 2567
cur table: 2484
epoch: 1000
next table: 2597
cur table: 2567
epoch: 1000
next table: 2612
cur table: 2597
epoch: 1000
next table: 2606
cur table: 2612
epoch: 1000
next table: 2625
cur table: 2606
epoch: 1000
next table: 2648
cur table: 2625
epoch: 1000
next table: 2515
cur table: 2648
epoch: 1000
next table: 2530
cur table: 2515
epoch: 1000
next table: 2587
cur table: 2530
epoch: 1000
next table: 2519
cur table: 2587
epoch: 1000
next table: 2635
cur table: 2519
epoch: 1000
next table: 2588
cur table: 2635
epoch: 1000
next table: 2538
cur table: 2588
epoch: 1000
next table: 2564
cur table: 2538
epoch: 1000
next table: 2507
cur table: 2564
epoch: 1000
next table: 2546
cur table: 2507
epoch: 1000
next table: 2554
cur table: 2546
epoch: 1000
next table: 2603
cur table: 2554
epoch: 1000
next table: 2629
cur table: 2603
epoch: 1000
next table: 2608
cur table: 2629
epoch: 1000
next table: 2603
cur table: 2608
epoch: 1000
next table: 2537
cur table: 2603
epoch: 1000
next table: 2620
cur table: 2537
epoch: 1000
next table: 2643
cur table: 2620
epoch: 1000
next table: 2615
cur table: 2643
epoch: 1000
next table: 2678
cur table: 2615
epoch: 1000
next table: 2637
cur table: 2678
epoch: 1000
next table: 2656
cur table: 2637
epoch: 1000
next table: 2644
cur table: 2656
epoch: 1000
next table: 2677
cur table: 2644
epoch: 1000
next table: 2679
cur table: 2677
epoch: 1000
next table: 2659
cur table: 2679
epoch: 1000
next table: 2641
cur table: 2659
epoch: 1000
next table: 2646
cur table: 2641
epoch: 1000
next table: 2669
cur table: 2646
Heartbeat CPU 0 instructions: 30000000 cycles: 8738999 heartbeat IPC: 3.43108 cumulative IPC: 3.43289 (Simulation time: 0 hr 17 min 40 sec) 
epoch: 1000
next table: 2660
cur table: 2669
epoch: 1000
next table: 2655
cur table: 2660
epoch: 1000
next table: 2581
cur table: 2655
epoch: 1000
next table: 2633
cur table: 2581
epoch: 1000
next table: 2426
cur table: 2633
epoch: 1000
next table: 2389
cur table: 2426
epoch: 1000
next table: 2406
cur table: 2389
epoch: 1000
next table: 2523
cur table: 2406
epoch: 1000
next table: 2556
cur table: 2523
epoch: 1000
next table: 2515
cur table: 2556
epoch: 1000
next table: 2438
cur table: 2515
epoch: 1000
next table: 2468
cur table: 2438
epoch: 1000
next table: 2528
cur table: 2468
epoch: 1000
next table: 2555
cur table: 2528
epoch: 1000
next table: 2633
cur table: 2555
epoch: 1000
next table: 2573
cur table: 2633
epoch: 1000
next table: 2513
cur table: 2573
epoch: 1000
next table: 2572
cur table: 2513
epoch: 1000
next table: 2590
cur table: 2572
epoch: 1000
next table: 2612
cur table: 2590
epoch: 1000
next table: 2509
cur table: 2612
epoch: 1000
next table: 2432
cur table: 2509
epoch: 1000
next table: 2513
cur table: 2432
epoch: 1000
next table: 2478
cur table: 2513
epoch: 1000
next table: 2477
cur table: 2478
epoch: 1000
next table: 2488
cur table: 2477
epoch: 1000
next table: 2524
cur table: 2488
epoch: 1000
next table: 2451
cur table: 2524
epoch: 1000
next table: 2419
cur table: 2451
epoch: 1000
next table: 2269
cur table: 2419
epoch: 1000
next table: 2301
cur table: 2269
epoch: 1000
next table: 2456
cur table: 2301
epoch: 1000
next table: 2526
cur table: 2456
epoch: 1000
next table: 2503
cur table: 2526
epoch: 1000
next table: 2473
cur table: 2503
epoch: 1000
next table: 2534
cur table: 2473
epoch: 1000
next table: 2500
cur table: 2534
epoch: 1000
next table: 2402
cur table: 2500
epoch: 1000
next table: 2412
cur table: 2402
epoch: 1000
next table: 2531
cur table: 2412
epoch: 1000
next table: 2470
cur table: 2531
epoch: 1000
next table: 2354
cur table: 2470
epoch: 1000
next table: 2426
cur table: 2354
epoch: 1000
next table: 2395
cur table: 2426
epoch: 1000
next table: 2427
cur table: 2395
epoch: 1000
next table: 2474
cur table: 2427
epoch: 1000
next table: 2493
cur table: 2474
epoch: 1000
next table: 2447
cur table: 2493
epoch: 1000
next table: 2442
cur table: 2447
epoch: 1000
next table: 2520
cur table: 2442
epoch: 1000
next table: 2487
cur table: 2520
epoch: 1000
next table: 2427
cur table: 2487
epoch: 1000
next table: 2412
cur table: 2427
epoch: 1000
next table: 2453
cur table: 2412
epoch: 1000
next table: 2503
cur table: 2453
epoch: 1000
next table: 2479
cur table: 2503
epoch: 1000
next table: 2489
cur table: 2479
epoch: 1000
next table: 2459
cur table: 2489
epoch: 1000
next table: 2514
cur table: 2459
epoch: 1000
next table: 2499
cur table: 2514
epoch: 1000
next table: 2492
cur table: 2499
epoch: 1000
next table: 2516
cur table: 2492
epoch: 1000
next table: 2586
cur table: 2516
epoch: 1000
next table: 2561
cur table: 2586
epoch: 1000
next table: 2576
cur table: 2561
epoch: 1000
next table: 2538
cur table: 2576
epoch: 1000
next table: 2520
cur table: 2538
epoch: 1000
next table: 2500
cur table: 2520
epoch: 1000
next table: 2438
cur table: 2500
epoch: 1000
next table: 2522
cur table: 2438
epoch: 1000
next table: 2560
cur table: 2522
epoch: 1000
next table: 2617
cur table: 2560
epoch: 1000
next table: 2598
cur table: 2617
epoch: 1000
next table: 2601
cur table: 2598
epoch: 1000
next table: 2641
cur table: 2601
epoch: 1000
next table: 2647
cur table: 2641
epoch: 1000
next table: 2678
cur table: 2647
epoch: 1000
next table: 2562
cur table: 2678
epoch: 1000
next table: 2655
cur table: 2562
epoch: 1000
next table: 2632
cur table: 2655
epoch: 1000
next table: 2644
cur table: 2632
epoch: 1000
next table: 2639
cur table: 2644
epoch: 1000
next table: 2539
cur table: 2639
epoch: 1000
next table: 2591
cur table: 2539
epoch: 1000
next table: 2568
cur table: 2591
epoch: 1000
next table: 2504
cur table: 2568
epoch: 1000
next table: 2609
cur table: 2504
epoch: 1000
next table: 2537
cur table: 2609
epoch: 1000
next table: 2615
cur table: 2537
epoch: 1000
next table: 2612
cur table: 2615
epoch: 1000
next table: 2604
cur table: 2612
epoch: 1000
next table: 2556
cur table: 2604
epoch: 1000
next table: 2637
cur table: 2556
epoch: 1000
next table: 2595
cur table: 2637
epoch: 1000
next table: 2665
cur table: 2595
epoch: 1000
next table: 2639
cur table: 2665
epoch: 1000
next table: 2632
cur table: 2639
epoch: 1000
next table: 2621
cur table: 2632
epoch: 1000
next table: 2667
cur table: 2621
epoch: 1000
next table: 2633
cur table: 2667
epoch: 1000
next table: 2634
cur table: 2633
epoch: 1000
next table: 2628
cur table: 2634
epoch: 1000
next table: 2604
cur table: 2628
epoch: 1000
next table: 2534
cur table: 2604
epoch: 1000
next table: 2596
cur table: 2534
epoch: 1000
next table: 2621
cur table: 2596
epoch: 1000
next table: 2592
cur table: 2621
epoch: 1000
next table: 2592
cur table: 2592
epoch: 1000
next table: 2594
cur table: 2592
epoch: 1000
next table: 2635
cur table: 2594
epoch: 1000
next table: 2662
cur table: 2635
epoch: 1000
next table: 2631
cur table: 2662
epoch: 1000
next table: 2670
cur table: 2631
epoch: 1000
next table: 2636
cur table: 2670
epoch: 1000
next table: 2620
cur table: 2636
epoch: 1000
next table: 2672
cur table: 2620
epoch: 1000
next table: 2665
cur table: 2672
epoch: 1000
next table: 2641
cur table: 2665
epoch: 1000
next table: 2671
cur table: 2641
epoch: 1000
next table: 2636
cur table: 2671
epoch: 1000
next table: 2669
cur table: 2636
epoch: 1000
next table: 2656
cur table: 2669
epoch: 1000
next table: 2649
cur table: 2656
epoch: 1000
next table: 2608
cur table: 2649
epoch: 1000
next table: 2561
cur table: 2608
epoch: 1000
next table: 2490
cur table: 2561
epoch: 1000
next table: 2317
cur table: 2490
epoch: 1000
next table: 2416
cur table: 2317
epoch: 1000
next table: 2453
cur table: 2416
epoch: 1000
next table: 2497
cur table: 2453
epoch: 1000
next table: 2529
cur table: 2497
epoch: 1000
next table: 2557
cur table: 2529
epoch: 1000
next table: 2547
cur table: 2557
epoch: 1000
next table: 2523
cur table: 2547
epoch: 1000
next table: 2537
cur table: 2523
epoch: 1000
next table: 2509
cur table: 2537
epoch: 1000
next table: 2491
cur table: 2509
epoch: 1000
next table: 2599
cur table: 2491
epoch: 1000
next table: 2571
cur table: 2599
epoch: 1000
next table: 2534
cur table: 2571
epoch: 1000
next table: 2517
cur table: 2534
epoch: 1000
next table: 2554
cur table: 2517
epoch: 1000
next table: 2536
cur table: 2554
epoch: 1000
next table: 2515
cur table: 2536
epoch: 1000
next table: 2456
cur table: 2515
epoch: 1000
next table: 2418
cur table: 2456
epoch: 1000
next table: 2419
cur table: 2418
epoch: 1000
next table: 2454
cur table: 2419
epoch: 1000
next table: 2451
cur table: 2454
epoch: 1000
next table: 2597
[...]
epoch: 1000
next table: 3077
cur table: 2617
epoch: 1000
next table: 3386
cur table: 3077
epoch: 1000
next table: 2539
cur table: 3386
epoch: 1000
next table: 2523
cur table: 2539
epoch: 1000
next table: 3099
cur table: 2523
epoch: 1000
next table: 3087
cur table: 3099
epoch: 1000
next table: 2534
cur table: 3087
epoch: 1000
next table: 3005
cur table: 2534
epoch: 1000
next table: 4121
cur table: 3005
epoch: 1000
next table: 3809
cur table: 4121
epoch: 1000
next table: 3094
cur table: 3809
epoch: 1000
next table: 3984
cur table: 3094
epoch: 1000
next table: 3867
cur table: 3984
epoch: 1000
next table: 2651
cur table: 3867
epoch: 1000
next table: 3431
cur table: 2651
epoch: 1000
next table: 3854
cur table: 3431
epoch: 1000
next table: 3586
cur table: 3854
epoch: 1000
next table: 3838
cur table: 3586
epoch: 1000
next table: 2518
cur table: 3838
epoch: 1000
next table: 2539
cur table: 2518
epoch: 1000
next table: 3673
cur table: 2539
epoch: 1000
next table: 3350
cur table: 3673
epoch: 1000
next table: 3483
cur table: 3350
epoch: 1000
next table: 2623
cur table: 3483
epoch: 1000
next table: 3405
cur table: 2623
epoch: 1000
next table: 2964
cur table: 3405
epoch: 1000
next table: 2590
cur table: 2964
epoch: 1000
next table: 2984
cur table: 2590
epoch: 1000
next table: 2582
cur table: 2984
epoch: 1000
next table: 3315
cur table: 2582
epoch: 1000
next table: 2632
cur table: 3315
epoch: 1000
next table: 3392
cur table: 2632
epoch: 1000
next table: 2606
cur table: 3392
epoch: 1000
next table: 3387
cur table: 2606
epoch: 1000
next table: 3427
cur table: 3387
epoch: 1000
next table: 3051
cur table: 3427
epoch: 1000
next table: 2520
cur table: 3051
epoch: 1000
next table: 2462
cur table: 2520
epoch: 1000
next table: 2514
cur table: 2462
epoch: 1000
next table: 3219
cur table: 2514
epoch: 1000
next table: 3192
cur table: 3219
epoch: 1000
next table: 3403
cur table: 3192
epoch: 1000
next table: 2914
cur table: 3403
epoch: 1000
next table: 3190
cur table: 2914
epoch: 1000
next table: 2549
cur table: 3190
epoch: 1000
next table: 2969
cur table: 2549
epoch: 1000
next table: 2517
cur table: 2969
epoch: 1000
next table: 2526
cur table: 2517
epoch: 1000
next table: 2847
cur table: 2526
epoch: 1000
next table: 2563
cur table: 2847
epoch: 1000
next table: 2633
cur table: 2563
epoch: 1000
next table: 2543
cur table: 2633
epoch: 1000
next table: 2676
cur table: 2543
epoch: 1000
next table: 3369
cur table: 2676
epoch: 1000
next table: 3093
cur table: 3369
epoch: 1000
next table: 2691
cur table: 3093
epoch: 1000
next table: 2657
cur table: 2691
epoch: 1000
next table: 3184
cur table: 2657
epoch: 1000
next table: 3107
cur table: 3184
epoch: 1000
next table: 3075
cur table: 3107
epoch: 1000
next table: 2671
cur table: 3075
epoch: 1000
next table: 3754
cur table: 2671
epoch: 1000
next table: 3460
cur table: 3754
epoch: 1000
next table: 3043
cur table: 3460
epoch: 1000
next table: 3481
cur table: 3043
epoch: 1000
next table: 3024
cur table: 3481
epoch: 1000
next table: 2952
cur table: 3024
epoch: 1000
next table: 3098
cur table: 2952
epoch: 1000
next table: 3792
cur table: 3098
epoch: 1000
next table: 2946
cur table: 3792
epoch: 1000
next table: 3519
cur table: 2946
epoch: 1000
next table: 3266
cur table: 3519
epoch: 1000
next table: 3008
cur table: 3266
epoch: 1000
next table: 2953
cur table: 3008
epoch: 1000
next table: 3637
cur table: 2953
Heartbeat CPU 0 instructions: 100000000 cycles: 118762908 heartbeat IPC: 0.483513 cumulative IPC: 0.479882 (Simulation time: 1 hr 29 min 6 sec) 
Finished CPU 0 instructions: 50000001 cycles: 104192299 cumulative IPC: 0.479882 (Simulation time: 1 hr 29 min 6 sec) 

ChampSim completed all CPUs

Region of Interest Statistics

CPU 0 cumulative IPC: 0.479882 instructions: 50000001 cycles: 104192299
ITLB TOTAL     ACCESS:    6714009  HIT:    6714009  MISS:          0  HIT %:        100  MISS %:          0   MPKI: 0
ITLB LOAD TRANSLATION ACCESS:    6714009  HIT:    6714009  MISS:          0  HIT %:        100  MISS %:          0   MPKI: 0
ITLB PREFETCH  REQUESTED:          0  ISSUED:          0  USEFUL:          0  USELESS:          0
ITLB USEFUL LOAD PREFETCHES:          0 PREFETCH ISSUED TO LOWER LEVEL:          0  ACCURACY: -nan
ITLB TIMELY PREFETCHES:          0 LATE PREFETCHES: 0 DROPPED PREFETCHES: 0
ITLB PREFETCHES SAME FILL-ORIGIN LEVEL: 0 DIFFERENT FILL-ORIGIN LEVEL: 0
ITLB AVERAGE MISS LATENCY: -nan cycles
ITLB RQ	ACCESS:    8679525	FORWARD:          0	MERGED:    1965516	TO_CACHE:    6714009

Revised Interactions: positive negative neutral
ITLB_interactions 0 0 0 -nan -nan -nan
DTLB TOTAL     ACCESS:    9535081  HIT:    9466424  MISS:      68657  HIT %:      99.28  MISS %:   0.720046   MPKI: 1.37314
DTLB LOAD TRANSLATION ACCESS:    9535081  HIT:    9466424  MISS:      68657  HIT %:      99.28  MISS %:   0.720046   MPKI: 1.37314
DTLB PREFETCH  REQUESTED:          0  ISSUED:          0  USEFUL:          0  USELESS:          0
DTLB USEFUL LOAD PREFETCHES:          0 PREFETCH ISSUED TO LOWER LEVEL:          0  ACCURACY: -nan
DTLB TIMELY PREFETCHES:          0 LATE PREFETCHES: 0 DROPPED PREFETCHES: 0
DTLB PREFETCHES SAME FILL-ORIGIN LEVEL: 0 DIFFERENT FILL-ORIGIN LEVEL: 0
DTLB AVERAGE MISS LATENCY: 113.54 cycles
DTLB RQ	ACCESS:   13903652	FORWARD:          0	MERGED:    4338863	TO_CACHE:    9564789

Revised Interactions: positive negative neutral
DTLB_interactions 0 0 0 -nan -nan -nan
STLB TOTAL     ACCESS:      68657  HIT:      31401  MISS:      37256  HIT %:    45.7361  MISS %:    54.2639   MPKI: 0.74512
STLB LOAD TRANSLATION ACCESS:      68657  HIT:      31401  MISS:      37256  HIT %:    45.7361  MISS %:    54.2639   MPKI: 0.74512
STLB PREFETCH  REQUESTED:          0  ISSUED:          0  USEFUL:          0  USELESS:          0
STLB USEFUL LOAD PREFETCHES:          0 PREFETCH ISSUED TO LOWER LEVEL:          0  ACCURACY: -nan
STLB TIMELY PREFETCHES:          0 LATE PREFETCHES: 0 DROPPED PREFETCHES: 0
STLB PREFETCHES SAME FILL-ORIGIN LEVEL: 0 DIFFERENT FILL-ORIGIN LEVEL: 0
STLB AVERAGE MISS LATENCY: 191.918 cycles
STLB RQ	ACCESS:      68657	FORWARD:          0	MERGED:          0	TO_CACHE:      68657

Revised Interactions: positive negative neutral
STLB_interactions 0 0 0 -nan -nan -nan
STLB Hit, L1D data hit: 0
STLB Hit, L2C data hit: 0
STLB Hit, LLC data hit: 0
STLB Hit, LLC data miss: 0
STLB STLB hints to L2: 0
L1D TOTAL     ACCESS:   13774846  HIT:    9841765  MISS:    3933081  HIT %:    71.4474  MISS %:    28.5526   MPKI: 78.6616
L1D LOAD      ACCESS:    4860218  HIT:    4264258  MISS:     595960  HIT %:     87.738  MISS %:     12.262   MPKI: 11.9192
L1D RFO       ACCESS:    8914628  HIT:    5577507  MISS:    3337121  HIT %:    62.5658  MISS %:    37.4342   MPKI: 66.7424
L1D PREFETCH  REQUESTED:          0  ISSUED:          0  USEFUL:          0  USELESS:          0
L1D USEFUL LOAD PREFETCHES:          0 PREFETCH ISSUED TO LOWER LEVEL:          0  ACCURACY: -nan
L1D TIMELY PREFETCHES:          0 LATE PREFETCHES: 0 DROPPED PREFETCHES: 0
L1D PREFETCHES SAME FILL-ORIGIN LEVEL: 0 DIFFERENT FILL-ORIGIN LEVEL: 0
L1D AVERAGE MISS LATENCY: 353.763 cycles
L1D RQ	ACCESS:   12374373	FORWARD:          0	MERGED:    6541301	TO_CACHE:    4925157
L1D WQ	ACCESS:    9219579	FORWARD:     907915	MERGED:     241084	TO_CACHE:    8978495

Revised Interactions: positive negative neutral
L1D_interactions 0 0 0 -nan -nan -nan
L1D UNIQUE REGIONS ACCESSED: 0
L1D REGIONS CONFLICTS: 0
L1D Cross Page Prefetch Requests: 0
L1D Same Page Prefetch Requests: 0
L1D ROI Sum of L1D PQ occupancy: 0
L1D PREFETCHES PUSHED FROM L2C: 0
L1I TOTAL     ACCESS:    8679523  HIT:    8679523  MISS:          0  HIT %:        100  MISS %:          0   MPKI: 0
L1I LOAD      ACCESS:    8679523  HIT:    8679523  MISS:          0  HIT %:        100  MISS %:          0   MPKI: 0
L1I PREFETCH  REQUESTED:          0  ISSUED:          0  USEFUL:          0  USELESS:          0
L1I USEFUL LOAD PREFETCHES:          0 PREFETCH ISSUED TO LOWER LEVEL:          0  ACCURACY: -nan
L1I TIMELY PREFETCHES:          0 LATE PREFETCHES: 0 DROPPED PREFETCHES: 0
L1I PREFETCHES SAME FILL-ORIGIN LEVEL: 0 DIFFERENT FILL-ORIGIN LEVEL: 0
L1I AVERAGE MISS LATENCY: -nan cycles
L1I RQ	ACCESS:   12462709	FORWARD:          0	MERGED:    3783184	TO_CACHE:    8679525

Revised Interactions: positive negative neutral
L1I_interactions 0 0 0 -nan -nan -nan
BTB TOTAL     ACCESS:     899011  HIT:     899005  MISS:          6  HIT %:    99.9993  MISS %:  0.0006674   MPKI: 0.00012
BTB BRANCH_DIRECT_JUMP	ACCESS:     146381  HIT:     146380  MISS:          1
BTB BRANCH_INDIRECT	ACCESS:          0  HIT:          0  MISS:          0
BTB BRANCH_CONDITIONAL	ACCESS:     752630  HIT:     752625  MISS:          5
BTB BRANCH_DIRECT_CALL	ACCESS:          0  HIT:          0  MISS:          0
BTB BRANCH_INDIRECT_CALL	ACCESS:          0  HIT:          0  MISS:          0
BTB BRANCH_RETURN	ACCESS:          0  HIT:          0  MISS:          0
BTB BRANCH_OTHER ACCESS:          0  HIT:          0  MISS:          0

L2C TOTAL     ACCESS:    7853825  HIT:    5288421  MISS:    2565404  HIT %:    67.3356  MISS %:    32.6644   MPKI: 51.3081
L2C LOAD      ACCESS:     595960  HIT:     530834  MISS:      65126  HIT %:    89.0721  MISS %:    10.9279   MPKI: 1.30252
L2C DATA LOAD MPKI: 1.30252
L2C INSTRUCTION LOAD MPKI: 0
L2C RFO       ACCESS:    3337120  HIT:    1419230  MISS:    1917890  HIT %:    42.5286  MISS %:    57.4714   MPKI: 38.3578
L2C PREFETCH  ACCESS:     546364  HIT:      14631  MISS:     531733  HIT %:    2.67789  MISS %:    97.3221   MPKI: 10.6347
L2C DATA PREFETCH MPKI: 10.6347
L2C INSTRUCTION PREFETCH MPKI: 0
L2C WRITEBACK ACCESS:    3337123  HIT:    3291252  MISS:      45871  HIT %:    98.6254  MISS %:    1.37457   MPKI: 0.91742
L2C LOAD TRANSLATION ACCESS:      37258  HIT:      32474  MISS:       4784  HIT %:    87.1598  MISS %:    12.8402   MPKI: 0.09568
L2C PREFETCH  REQUESTED:     592798  ISSUED:     592798  USEFUL:     530831  USELESS:        893
L2C USEFUL LOAD PREFETCHES:     530831 PREFETCH ISSUED TO LOWER LEVEL:     565798  ACCURACY: 93.8199
L2C TIMELY PREFETCHES:     530831 LATE PREFETCHES: 34065 DROPPED PREFETCHES: 0
L2C PREFETCHES SAME FILL-ORIGIN LEVEL: 565798 DIFFERENT FILL-ORIGIN LEVEL: 0
L2C AVERAGE MISS LATENCY: 665.654 cycles
L2C RQ	ACCESS:    3970345	FORWARD:          0	MERGED:          0	TO_CACHE:    3970345
L2C WQ	ACCESS:    3337123	FORWARD:          0	MERGED:          0	TO_CACHE:    3337123
L2C PQ	ACCESS:     592798	FORWARD:          0	MERGED:          0	TO_CACHE:     592798

Revised Interactions: positive negative neutral
L2C_interactions 506793 835 24453 95.2473 0.156931 4.59573
L2C Instructions Evicting Data 0
L2C Translations Evicting Data 4781
L2C Data Evicting Data 2510069
L2C Instructions Evicting Instructions 0
L2C Translations Evicting Instructions 0
L2C Data Evicting Instructions 0
L2C Instructions Evicting Translations 0
L2C Translations Evicting Translations 3
L2C Data Evicting Translations 4680
L2C Dense regions hint from L2: 0
PSCL5 TOTAL     ACCESS:      37256  HIT:      37256  MISS:          0  HIT %:        100  MISS %:          0   MPKI: 0
PSCL5 LOAD TRANSLATION ACCESS:      37256  HIT:      37256  MISS:          0  HIT %:        100  MISS %:          0   MPKI: 0
PSCL5 PREFETCH  REQUESTED:          0  ISSUED:          0  USEFUL:          0  USELESS:          0
PSCL5 USEFUL LOAD PREFETCHES:          0 PREFETCH ISSUED TO LOWER LEVEL:          0  ACCURACY: -nan
PSCL5 TIMELY PREFETCHES:          0 LATE PREFETCHES: 0 DROPPED PREFETCHES: 0
PSCL5 PREFETCHES SAME FILL-ORIGIN LEVEL: 0 DIFFERENT FILL-ORIGIN LEVEL: 0

Revised Interactions: positive negative neutral
PSCL5_interactions 0 0 0 -nan -nan -nan
PSCL4 TOTAL     ACCESS:      37256  HIT:      37256  MISS:          0  HIT %:        100  MISS %:          0   MPKI: 0
PSCL4 LOAD TRANSLATION ACCESS:      37256  HIT:      37256  MISS:          0  HIT %:        100  MISS %:          0   MPKI: 0
PSCL4 PREFETCH  REQUESTED:          0  ISSUED:          0  USEFUL:          0  USELESS:          0
PSCL4 USEFUL LOAD PREFETCHES:          0 PREFETCH ISSUED TO LOWER LEVEL:          0  ACCURACY: -nan
PSCL4 TIMELY PREFETCHES:          0 LATE PREFETCHES: 0 DROPPED PREFETCHES: 0
PSCL4 PREFETCHES SAME FILL-ORIGIN LEVEL: 0 DIFFERENT FILL-ORIGIN LEVEL: 0

Revised Interactions: positive negative neutral
PSCL4_interactions 0 0 0 -nan -nan -nan
PSCL3 TOTAL     ACCESS:      37256  HIT:      37256  MISS:          0  HIT %:        100  MISS %:          0   MPKI: 0
PSCL3 LOAD TRANSLATION ACCESS:      37256  HIT:      37256  MISS:          0  HIT %:        100  MISS %:          0   MPKI: 0
PSCL3 PREFETCH  REQUESTED:          0  ISSUED:          0  USEFUL:          0  USELESS:          0
PSCL3 USEFUL LOAD PREFETCHES:          0 PREFETCH ISSUED TO LOWER LEVEL:          0  ACCURACY: -nan
PSCL3 TIMELY PREFETCHES:          0 LATE PREFETCHES: 0 DROPPED PREFETCHES: 0
PSCL3 PREFETCHES SAME FILL-ORIGIN LEVEL: 0 DIFFERENT FILL-ORIGIN LEVEL: 0

Revised Interactions: positive negative neutral
PSCL3_interactions 0 0 0 -nan -nan -nan
PSCL2 TOTAL     ACCESS:      37256  HIT:      37217  MISS:         39  HIT %:    99.8953  MISS %:   0.104681   MPKI: 0.00078
PSCL2 LOAD TRANSLATION ACCESS:      37256  HIT:      37217  MISS:         39  HIT %:    99.8953  MISS %:   0.104681   MPKI: 0.00078
PSCL2 PREFETCH  REQUESTED:          0  ISSUED:          0  USEFUL:          0  USELESS:          0
PSCL2 USEFUL LOAD PREFETCHES:          0 PREFETCH ISSUED TO LOWER LEVEL:          0  ACCURACY: -nan
PSCL2 TIMELY PREFETCHES:          0 LATE PREFETCHES: 0 DROPPED PREFETCHES: 0
PSCL2 PREFETCHES SAME FILL-ORIGIN LEVEL: 0 DIFFERENT FILL-ORIGIN LEVEL: 0

Revised Interactions: positive negative neutral
PSCL2_interactions 0 0 0 -nan -nan -nan
LLC TOTAL     ACCESS:    4437615  HIT:     168668  MISS:    4268947  HIT %:    3.80087  MISS %:    96.1991   MPKI: 85.3789
LLC LOAD      ACCESS:      31061  HIT:         38  MISS:      31023  HIT %:    0.12234  MISS %:    99.8777   MPKI: 0.62046
LLC RFO       ACCESS:    1917836  HIT:     119406  MISS:    1798430  HIT %:    6.22608  MISS %:    93.7739   MPKI: 35.9686
LLC PREFETCH  ACCESS:     565798  HIT:         22  MISS:     565776  HIT %: 0.00388831  MISS %:    99.9961   MPKI: 11.3155
LLC WRITEBACK ACCESS:    1918136  HIT:      49177  MISS:    1868959  HIT %:    2.56379  MISS %:    97.4362   MPKI: 37.3792
LLC LOAD TRANSLATION ACCESS:       4784  HIT:         25  MISS:       4759  HIT %:   0.522575  MISS %:    99.4774   MPKI: 0.09518
LLC PREFETCH  REQUESTED:          0  ISSUED:          0  USEFUL:          0  USELESS:       3897
LLC USEFUL LOAD PREFETCHES:          0 PREFETCH ISSUED TO LOWER LEVEL:     565776  ACCURACY: 0
LLC TIMELY PREFETCHES:          0 LATE PREFETCHES: 0 DROPPED PREFETCHES: 0
LLC PREFETCHES SAME FILL-ORIGIN LEVEL: 0 DIFFERENT FILL-ORIGIN LEVEL: 0
LLC AVERAGE MISS LATENCY: 385.294 cycles
LLC RQ	ACCESS:    1953742	FORWARD:          0	MERGED:          0	TO_CACHE:    1953688
LLC WQ	ACCESS:    1918136	FORWARD:         54	MERGED:          0	TO_CACHE:    1918136
LLC PQ	ACCESS:     565798	FORWARD:          0	MERGED:          0	TO_CACHE:     565798

Revised Interactions: positive negative neutral
LLC_interactions 3 3896 1 0.0769231 99.8974 0.025641
LLC Dense regions hint to LLC: 0

RAW hits: 670628
Loads Generated: 13045002
Loads sent to L1D: 12374373
Stores Generated: 9219571
Stores sent to L1D: 9219579
Major fault: 0 Minor fault: 40295
Allocated PAGES: 40295
[Bingo] PHT Access: 19682
[Bingo] PHT Hit PC+Addr: 169
[Bingo] PHT Hit PC+Offs: 19444
[Bingo] PHT Miss: 69
[Bingo] Prefetch PC+Addr: 0
[Bingo] Prefetch PC+Offs: 0
[Bingo] Useful PC+Addr: 0
[Bingo] Useful PC+Offs: 0
[Bingo] Useless PC+Addr: 0
[Bingo] Useless PC+Offs: 0
[Bingo] L1 Prefetch per Region: 0
[Bingo] L2 Prefetch per Region: 31.2688
[Bingo] L3 Prefetch per Region: 0
[Bingo] No Prefetch per Region: 0.73125
[Bingo] Number of Voters Mean: 15.655
[Bingo] Number of Voters SD: 15.6833
PHT read accesses: 305711
PHT write accesses: 19655
AT read accesses: 595933
AT write accesses: 595939
FT read accesses: 59004
FT write accesses: 19682
PS read accesses: 107864
PS write accesses: 19613
PHT tag read accesses: 933264
PHT tag write accesses: 19824
AT tag read accesses: 51282787
AT tag write accesses: 615594
FT tag read accesses: 42325220
FT tag write accesses: 59025
PS tag read accesses: 10180940
PS tag write accesses: 127380

DRAM Statistics
 CHANNEL 0
 RQ ROW_BUFFER_HIT:     363910  ROW_BUFFER_MISS:    2034897
 DBUS_CONGESTED:          0
 WQ ROW_BUFFER_HIT:     394746  ROW_BUFFER_MISS:    1479948  FULL:       3921

 AVG_CONGESTED_CYCLE: -
 All warmup complete: 2
Channel 0 Bank busy for read cycles: 0
Channel 0 Bank busy for write cycles: 0
Channel 0
Rank 0
0banks busy for read cycles: 11616
0banks busy for write cycles: 0
1banks busy for read cycles: 806974
1banks busy for write cycles: 174315
2banks busy for read cycles: 1397223
2banks busy for write cycles: 174314
3banks busy for read cycles: 2793475
3banks busy for write cycles: 174314
4banks busy for read cycles: 4305281
4banks busy for write cycles: 174310
5banks busy for read cycles: 9992940
5banks busy for write cycles: 174312
6banks busy for read cycles: 12159285
6banks busy for write cycles: 176840
7banks busy for read cycles: 12503787
7banks busy for write cycles: 2111979
8banks busy for read cycles: 18844008
8banks busy for write cycles: 38217327

CPU 0 Branch Prediction Accuracy: 94.9437% MPKI: 0.90914 Average ROB Occupancy at Mispredict: 164.469
Branch types
NOT_BRANCH: 49100650 98.2013%
BRANCH_DIRECT_JUMP: 146381 0.292762%
BRANCH_INDIRECT: 0 0%
BRANCH_CONDITIONAL: 752642 1.50528%
BRANCH_DIRECT_CALL: 0 0%
BRANCH_INDIRECT_CALL: 0 0%
BRANCH_RETURN: 0 0%
BRANCH_OTHER: 0 0%

@sumon_overall_L1D         0         0         0         0         0         0         0
@Sumon_Early_by_class_L1D         0         0         0         0
@Sumon_Late_by_class_L1D         0         0         0         0

@Sumon_Early_by_cycle_L1D         0         0         0         0         0         0         0         0         0         0         0         0
@Sumon_Late_by_cycle_L1D         0         0         0         0         0         0
@Sumon_Early_stream_L1D         0         0         0         0         0         0         0         0         0         0         0         0
@Sumon_Early_CS_L1D         0         0         0         0         0         0         0         0         0         0         0         0
@Sumon_Early_CPLX_L1D         0         0         0         0         0         0         0         0         0         0         0         0
@Sumon_Late_stream_L1D         0         0         0         0         0         0
@Sumon_Late_CS_L1D         0         0         0         0         0         0
@Sumon_Late_CPLX_L1D         0         0         0         0         0         0
@sumon_overall_L2C    530831     34065         0       893    531733    592798    592798
@Sumon_Early_by_class_L2C         0         0         0         0
@Sumon_Late_by_class_L2C         0         0         0         0

@Sumon_Early_by_cycle_L2C      8923      8725     11195     30406     17113    253227    199677      1564         0         0         1         0
@Sumon_Late_by_cycle_L2C       517       792      3753      1613     12268     15122
@Sumon_Early_stream_L2C         0         0         0         0         0         0         0         0         0         0         0         0
@Sumon_Early_CS_L2C         0         0         0         0         0         0         0         0         0         0         0         0
@Sumon_Early_CPLX_L2C         0         0         0         0         0         0         0         0         0         0         0         0
@Sumon_Late_stream_L2C         0         0         0         0         0         0
@Sumon_Late_CS_L2C         0         0         0         0         0         0
@Sumon_Late_CPLX_L2C         0         0         0         0         0         0
DRAM PAGES: 1048576
Allocated PAGES: 40295
