
*** ChampSim Multicore Out-of-Order Simulator ***

Warmup Instructions: 50000000
Simulation Instructions: 50000000
Number of CPUs: 1
LLC sets: 2048
LLC ways: 16
Off-chip DRAM Size: 4096 MB Channels: 1 Width: 64-bit Data Rate: 6400 MT/s
CPU 0 runs ../../biswa/SPEC2017Traces/621.wrf_s-8065B.champsimtrace.xz
.xz
CPU 0 Bimodal branch predictor
BTB has LRU replacement policy
ITLB has LRU replacement policy
DTLB has LRU replacement policy
STLB has LRU replacement policy
L1I has LRU replacement policy
L1D has LRU replacement policy
Bingo PHT WAYS: 16 and PHT_SIZE: 16384
Initialize DRRIP state for L2C
epoch: 1000
next table: 2304
cur table: 12120
epoch: 1000
next table: 2040
cur table: 2304
epoch: 1000
next table: 2033
cur table: 2040
epoch: 1000
next table: 2014
cur table: 2033
epoch: 1000
next table: 2015
cur table: 2014
epoch: 1000
next table: 2015
cur table: 2015
epoch: 1000
next table: 2011
cur table: 2015
epoch: 1000
next table: 2016
cur table: 2011
epoch: 1000
next table: 2014
cur table: 2016
epoch: 1000
next table: 2012
cur table: 2014
epoch: 1000
next table: 2015
cur table: 2012
epoch: 1000
next table: 2013
cur table: 2015
epoch: 1000
next table: 2014
cur table: 2013
epoch: 1000
next table: 2015
cur table: 2014
epoch: 1000
next table: 2013
cur table: 2015
epoch: 1000
next table: 2012
cur table: 2013
epoch: 1000
next table: 2014
cur table: 2012
epoch: 1000
next table: 2015
cur table: 2014
epoch: 1000
next table: 2013
cur table: 2015
epoch: 1000
next table: 2014
cur table: 2013
epoch: 1000
next table: 2012
cur table: 2014
epoch: 1000
next table: 2012
cur table: 2012
epoch: 1000
next table: 2019
cur table: 2012
epoch: 1000
next table: 2008
cur table: 2019
epoch: 1000
next table: 1974
cur table: 2008
epoch: 1000
next table: 2019
cur table: 1974
epoch: 1000
next table: 2450
cur table: 32229
epoch: 1000
next table: 1947
cur table: 2019
epoch: 1000
next table: 1966
cur table: 1947
epoch: 1000
next table: 1949
cur table: 1966
epoch: 1000
next table: 1613
cur table: 2450
epoch: 1000
next table: 1974
cur table: 1949
epoch: 1000
next table: 1659
cur table: 1613
epoch: 1000
next table: 1989
cur table: 1974
epoch: 1000
next table: 1997
cur table: 1989
epoch: 1000
next table: 1300
cur table: 1659
epoch: 1000
next table: 1961
cur table: 1997
epoch: 1000
next table: 1178
cur table: 1300
epoch: 1000
next table: 1953
cur table: 1961
epoch: 1000
next table: 1332
cur table: 1178
epoch: 1000
next table: 1966
cur table: 1953
epoch: 1000
next table: 1968
cur table: 1966
epoch: 1000
next table: 1162
cur table: 1332
epoch: 1000
next table: 2064
cur table: 1968
epoch: 1000
next table: 1170
cur table: 1162
epoch: 1000
next table: 1962
cur table: 2064
epoch: 1000
next table: 1161
cur table: 1170
epoch: 1000
next table: 1946
cur table: 1962
epoch: 1000
next table: 1189
cur table: 1161
epoch: 1000
next table: 1954
cur table: 1946
epoch: 1000
next table: 1141
cur table: 1189
epoch: 1000
next table: 2072
cur table: 1954
epoch: 1000
next table: 1176
cur table: 1141
epoch: 1000
next table: 1952
cur table: 2072
epoch: 1000
next table: 1199
cur table: 1176
epoch: 1000
next table: 1969
cur table: 1952
epoch: 1000
next table: 1313
cur table: 1199
epoch: 1000
next table: 1947
cur table: 1969
epoch: 1000
next table: 1978
cur table: 1947
epoch: 1000
next table: 1188
cur table: 1313
epoch: 1000
next table: 1955
cur table: 1978
epoch: 1000
next table: 1335
cur table: 1188
epoch: 1000
next table: 1949
cur table: 1955
epoch: 1000
next table: 2013
cur table: 1949
epoch: 1000
next table: 1307
cur table: 1335
epoch: 1000
next table: 1944
cur table: 2013
epoch: 1000
next table: 1955
cur table: 1944
epoch: 1000
next table: 1420
cur table: 1307
epoch: 1000
next table: 1936
cur table: 1955
epoch: 1000
next table: 1956
cur table: 1936
epoch: 1000
next table: 1298
cur table: 1420
epoch: 1000
next table: 1941
cur table: 1956
epoch: 1000
next table: 1946
cur table: 1941
epoch: 1000
next table: 1395
cur table: 1298
epoch: 1000
next table: 1963
cur table: 1946
epoch: 1000
next table: 1309
cur table: 1395
epoch: 1000
next table: 1947
cur table: 1963
epoch: 1000
next table: 1925
cur table: 1947
epoch: 1000
next table: 1255
cur table: 1309
epoch: 1000
next table: 1930
cur table: 1925
epoch: 1000
next table: 1248
cur table: 1255
epoch: 1000
next table: 1985
cur table: 1930
epoch: 1000
next table: 1304
cur table: 1248
epoch: 1000
next table: 1908
cur table: 1985
epoch: 1000
next table: 1209
cur table: 1304
epoch: 1000
next table: 1959
cur table: 1908
epoch: 1000
next table: 1187
cur table: 1209
epoch: 1000
next table: 1944
cur table: 1959
epoch: 1000
next table: 1170
cur table: 1187
epoch: 1000
next table: 1947
cur table: 1944
epoch: 1000
next table: 1156
cur table: 1170
epoch: 1000
next table: 2064
cur table: 1947
epoch: 1000
next table: 1154
cur table: 1156
epoch: 1000
next table: 1955
cur table: 2064
epoch: 1000
next table: 1167
cur table: 1154
epoch: 1000
next table: 1917
cur table: 1955
epoch: 1000
next table: 1150
cur table: 1167
epoch: 1000
next table: 1950
cur table: 1917
epoch: 1000
next table: 1168
cur table: 1150
epoch: 1000
next table: 1941
cur table: 1950
epoch: 1000
next table: 1175
cur table: 1168
epoch: 1000
next table: 1956
cur table: 1941
epoch: 1000
next table: 1164
cur table: 1175
epoch: 1000
next table: 1947
cur table: 1956
epoch: 1000
next table: 1153
cur table: 1164
epoch: 1000
next table: 1950
cur table: 1947
epoch: 1000
next table: 1175
cur table: 1153
epoch: 1000
next table: 1945
cur table: 1950
epoch: 1000
next table: 1177
cur table: 1175
epoch: 1000
next table: 1952
cur table: 1945
epoch: 1000
next table: 1941
cur table: 1952
epoch: 1000
next table: 1164
cur table: 1177
epoch: 1000
next table: 1944
cur table: 1941
epoch: 1000
next table: 1159
cur table: 1164
epoch: 1000
next table: 1951
cur table: 1944
epoch: 1000
next table: 1182
cur table: 1159
epoch: 1000
next table: 2049
cur table: 1951
epoch: 1000
next table: 1157
cur table: 1182
epoch: 1000
next table: 1914
cur table: 2049
epoch: 1000
next table: 1418
cur table: 1157
epoch: 1000
next table: 1829
cur table: 1914
epoch: 1000
next table: 1616
cur table: 1418
epoch: 1000
next table: 1687
cur table: 1829
epoch: 1000
next table: 1651
cur table: 1687
epoch: 1000
next table: 2017
cur table: 1651
epoch: 1000
next table: 2909
cur table: 1616
epoch: 1000
next table: 2021
cur table: 2017
epoch: 1000
next table: 1718
cur table: 2909
epoch: 1000
next table: 1944
cur table: 2021
epoch: 1000
next table: 1374
cur table: 1718
epoch: 1000
next table: 1986
cur table: 1944
epoch: 1000
next table: 1076
cur table: 1374
epoch: 1000
next table: 1972
cur table: 1986
epoch: 1000
next table: 1081
cur table: 1076
epoch: 1000
next table: 2104
cur table: 1972
epoch: 1000
next table: 1969
cur table: 2104
epoch: 1000
next table: 1082
cur table: 1081
epoch: 1000
next table: 1975
cur table: 1969
epoch: 1000
next table: 1186
cur table: 1082
epoch: 1000
next table: 1951
cur table: 1975
epoch: 1000
next table: 1160
cur table: 1186
epoch: 1000
next table: 1966
cur table: 1951
epoch: 1000
next table: 1100
cur table: 1160
epoch: 1000
next table: 1970
cur table: 1966
epoch: 1000
next table: 1070
cur table: 1100
epoch: 1000
next table: 1961
cur table: 1970
epoch: 1000
next table: 1979
cur table: 1961
epoch: 1000
next table: 1262
cur table: 1070
epoch: 1000
next table: 1957
cur table: 1979
epoch: 1000
next table: 1970
cur table: 1957
epoch: 1000
next table: 2106
cur table: 1970
epoch: 1000
next table: 1958
cur table: 2106
epoch: 1000
next table: 1448
cur table: 1262
epoch: 1000
next table: 1966
cur table: 1958
epoch: 1000
next table: 1960
cur table: 1966
epoch: 1000
next table: 1162
cur table: 1448
epoch: 1000
next table: 1965
cur table: 1960
epoch: 1000
next table: 1967
cur table: 1965
epoch: 1000
next table: 1077
cur table: 1162
epoch: 1000
next table: 1974
cur table: 1967
epoch: 1000
next table: 1193
cur table: 1077
epoch: 1000
next table: 1962
cur table: 1974
epoch: 1000
next table: 1122
cur table: 1193
epoch: 1000
next table: 1972
cur table: 1962
epoch: 1000
next table: 1066
cur table: 1122
epoch: 1000
next table: 1956
cur table: 1972
epoch: 1000
next table: 1968
cur table: 1956
epoch: 1000
next table: 1076
cur table: 1066
epoch: 1000
next table: 1968
cur table: 1968
epoch: 1000
next table: 1074
cur table: 1076
epoch: 1000
next table: 2023
cur table: 1968
epoch: 1000
next table: 1104
cur table: 1074
epoch: 1000
next table: 2046
cur table: 2023
epoch: 1000
next table: 1055
cur table: 1104
epoch: 1000
next table: 1814
cur table: 2046
epoch: 1000
next table: 1069
cur table: 1055
epoch: 1000
next table: 2110
cur table: 1814
epoch: 1000
next table: 1064
cur table: 1069
epoch: 1000
next table: 1966
cur table: 2110
epoch: 1000
next table: 1073
cur table: 1064
epoch: 1000
next table: 1988
cur table: 1966
epoch: 1000
next table: 1074
cur table: 1073
epoch: 1000
next table: 1961
cur table: 1988
epoch: 1000
next table: 1970
cur table: 1961
epoch: 1000
next table: 1074
cur table: 1074
epoch: 1000
next table: 1954
cur table: 1970
epoch: 1000
next table: 1061
cur table: 1074
epoch: 1000
next table: 1981
cur table: 1954
epoch: 1000
next table: 1091
cur table: 1061
epoch: 1000
next table: 1961
cur table: 1981
epoch: 1000
next table: 2100
cur table: 1961
epoch: 1000
next table: 1124
cur table: 1091
epoch: 1000
next table: 1970
cur table: 2100
epoch: 1000
next table: 1953
cur table: 1970
epoch: 1000
next table: 1158
cur table: 1124
epoch: 1000
next table: 1969
cur table: 1953
epoch: 1000
next table: 1967
cur table: 1969
epoch: 1000
next table: 1075
cur table: 1158
epoch: 1000
next table: 1976
cur table: 1967
epoch: 1000
next table: 1109
cur table: 1075
epoch: 1000
next table: 1965
cur table: 1976
epoch: 1000
next table: 1971
cur table: 1965
epoch: 1000
next table: 1134
cur table: 1109
epoch: 1000
next table: 1938
cur table: 1971
epoch: 1000
next table: 1974
cur table: 1938
epoch: 1000
next table: 1143
cur table: 1134
epoch: 1000
next table: 1967
cur table: 1974
epoch: 1000
next table: 1962
cur table: 1967
epoch: 1000
next table: 1127
cur table: 1143
epoch: 1000
next table: 1962
cur table: 1962
epoch: 1000
next table: 1962
cur table: 1962
epoch: 1000
next table: 1149
cur table: 1127
epoch: 1000
next table: 1948
cur table: 1962
epoch: 1000
next table: 1963
cur table: 1948
epoch: 1000
next table: 1127
cur table: 1149
epoch: 1000
next table: 1968
cur table: 1963
epoch: 1000
next table: 1956
cur table: 1968
epoch: 1000
next table: 1659
cur table: 1127
epoch: 1000
next table: 1924
cur table: 1956
epoch: 1000
next table: 1562
cur table: 1659
epoch: 1000
next table: 1727
cur table: 1924
epoch: 1000
next table: 1688
cur table: 1727
epoch: 1000
next table: 1278
cur table: 1562
epoch: 1000
next table: 1763
cur table: 1688
epoch: 1000
next table: 2144
cur table: 1763
epoch: 1000
next table: 2019
cur table: 1278
epoch: 1000
next table: 2021
cur table: 2144
epoch: 1000
next table: 2041
cur table: 2019
epoch: 1000
next table: 2151
cur table: 2021
epoch: 1000
next table: 1955
cur table: 2041
epoch: 1000
next table: 2081
cur table: 2151
epoch: 1000
next table: 2000
cur table: 1955
epoch: 1000
next table: 2084
cur table: 2081
epoch: 1000
next table: 2000
cur table: 2000
epoch: 1000
next table: 2023
cur table: 2084
epoch: 1000
next table: 2000
cur table: 2000
epoch: 1000
next table: 2001
cur table: 2023
epoch: 1000
next table: 2000
cur table: 2000
epoch: 1000
next table: 2199
cur table: 2001
epoch: 1000
next table: 2077
cur table: 2000
epoch: 1000
next table: 2172
cur table: 2199
epoch: 1000
next table: 2080
cur table: 2077
epoch: 1000
next table: 2245
cur table: 2172
epoch: 1000
next table: 2083
cur table: 2080
epoch: 1000
next table: 2285
cur table: 2245
epoch: 1000
next table: 2090
cur table: 2083
epoch: 1000
next table: 2001
cur table: 2285
epoch: 1000
next table: 1900
cur table: 2090
epoch: 1000
next table: 1960
cur table: 2001
epoch: 1000
next table: 1491
cur table: 1900
epoch: 1000
next table: 1761
cur table: 1960
epoch: 1000
next table: 1598
cur table: 1491
epoch: 1000
next table: 2274
cur table: 1761
epoch: 1000
next table: 1610
cur table: 1598
epoch: 1000
next table: 2123
cur table: 2274
epoch: 1000
next table: 1824
cur table: 1610
epoch: 1000
next table: 1953
cur table: 2123
epoch: 1000
next table: 1969
cur table: 1953
epoch: 1000
next table: 1699
cur table: 1824
epoch: 1000
next table: 2039
cur table: 1969
epoch: 1000
next table: 1943
cur table: 2039
epoch: 1000
next table: 1678
cur table: 1699
epoch: 1000
next table: 2060
cur table: 1943
epoch: 1000
next table: 1954
cur table: 2060
epoch: 1000
next table: 1699
cur table: 1678
epoch: 1000
next table: 2046
cur table: 1954
epoch: 1000
next table: 1934
cur table: 2046
epoch: 1000
next table: 1699
cur table: 1699
epoch: 1000
next table: 2048
cur table: 1934
epoch: 1000
next table: 1955
cur table: 2048
epoch: 1000
next table: 1695
cur table: 1699
epoch: 1000
next table: 1994
cur table: 1955
epoch: 1000
next table: 1984
cur table: 1994
epoch: 1000
next table: 1729
cur table: 1695
epoch: 1000
next table: 1943
cur table: 1984
epoch: 1000
next table: 2044
cur table: 1943
epoch: 1000
next table: 1733
cur table: 1729
epoch: 1000
next table: 1952
cur table: 2044
epoch: 1000
next table: 2059
cur table: 1952
epoch: 1000
next table: 1986
cur table: 2059
epoch: 1000
next table: 2013
cur table: 1733
epoch: 1000
next table: 1984
cur table: 1986
epoch: 1000
next table: 1973
cur table: 1984
epoch: 1000
next table: 1943
cur table: 1973
epoch: 1000
next table: 2005
cur table: 2013
epoch: 1000
next table: 2046
cur table: 1943
epoch: 1000
next table: 1945
cur table: 2046
epoch: 1000
next table: 2059
cur table: 1945
epoch: 1000
next table: 2001
cur table: 2005
epoch: 1000
next table: 1952
cur table: 2059
epoch: 1000
next table: 2009
cur table: 1952
epoch: 1000
next table: 1975
cur table: 2009
epoch: 1000
next table: 1927
cur table: 1975
epoch: 1000
next table: 2005
cur table: 2001
epoch: 1000
next table: 2057
cur table: 1927
epoch: 1000
next table: 1944
cur table: 2057
epoch: 1000
next table: 2049
cur table: 1944
epoch: 1000
next table: 2005
cur table: 2005
epoch: 1000
next table: 1940
cur table: 2049
epoch: 1000
next table: 2060
cur table: 1940
epoch: 1000
next table: 1946
cur table: 2060
epoch: 1000
next table: 2014
cur table: 2005
epoch: 1000
next table: 1987
cur table: 1946
epoch: 1000
next table: 2015
cur table: 1987
epoch: 1000
next table: 1979
cur table: 2015
epoch: 1000
next table: 2004
cur table: 2014
epoch: 1000
next table: 2000
cur table: 1979
epoch: 1000
next table: 1944
cur table: 2000
epoch: 1000
next table: 2060
cur table: 1944
epoch: 1000
next table: 2002
cur table: 2004
epoch: 1000
next table: 1930
cur table: 2060
epoch: 1000
next table: 2067
cur table: 1930
epoch: 1000
next table: 1952
cur table: 2067
epoch: 1000
next table: 2003
cur table: 2002
epoch: 1000
next table: 2052
cur table: 1952
epoch: 1000
next table: 1937
cur table: 2052
epoch: 1000
next table: 2059
cur table: 1937
epoch: 1000
next table: 2004
cur table: 2003
epoch: 1000
next table: 1942
cur table: 2059
epoch: 1000
next table: 1955
cur table: 1942
epoch: 1000
next table: 2042
cur table: 1955
epoch: 1000
next table: 2005
cur table: 2004
epoch: 1000
next table: 1948
cur table: 2042
epoch: 1000
next table: 2046
cur table: 1948
epoch: 1000
next table: 1951
cur table: 2046
epoch: 1000
next table: 2001
cur table: 2005
epoch: 1000
next table: 2057
cur table: 1951
epoch: 1000
next table: 1931
cur table: 2057
epoch: 1000
next table: 1991
cur table: 1931
epoch: 1000
next table: 2019
cur table: 1991
epoch: 1000
next table: 2002
cur table: 2001
epoch: 1000
next table: 1950
cur table: 2019
epoch: 1000
next table: 2029
cur table: 1950
epoch: 1000
next table: 1947
cur table: 2029
epoch: 1000
next table: 2001
cur table: 2002
epoch: 1000
next table: 2046
cur table: 1947
epoch: 1000
next table: 1944
cur table: 2046
epoch: 1000
next table: 2006
cur table: 1944
epoch: 1000
next table: 2015
cur table: 2001
epoch: 1000
next table: 1988
cur table: 2006
epoch: 1000
next table: 1957
cur table: 1988
epoch: 1000
next table: 1997
cur table: 1957
epoch: 1000
next table: 1979
cur table: 1997
epoch: 1000
next table: 1953
cur table: 1979
epoch: 1000
next table: 1998
cur table: 1953
epoch: 1000
next table: 1938
cur table: 1998
epoch: 1000
next table: 1998
cur table: 1938
epoch: 1000
next table: 1988
cur table: 1998
epoch: 1000
next table: 1945
cur table: 1988
epoch: 1000
next table: 1996
cur table: 1945
epoch: 1000
next table: 1988
cur table: 1996
epoch: 1000
next table: 1948
cur table: 1988
epoch: 1000
next table: 1986
cur table: 1948
epoch: 1000
next table: 1999
cur table: 1986
epoch: 1000
next table: 1944
cur table: 1999
epoch: 1000
next table: 1988
cur table: 1944
epoch: 1000
next table: 1998
cur table: 1988
epoch: 1000
next table: 2749
cur table: 2015
epoch: 1000
next table: 1934
cur table: 1998
epoch: 1000
next table: 1779
cur table: 1934
epoch: 1000
next table: 1799
cur table: 1779
epoch: 1000
next table: 3110
cur table: 1799
epoch: 1000
next table: 3184
cur table: 2749
epoch: 1000
next table: 2600
cur table: 3110
epoch: 1000
next table: 1726
cur table: 2600
epoch: 1000
next table: 1747
cur table: 1726
epoch: 1000
next table: 1730
cur table: 1747
epoch: 1000
next table: 2705
cur table: 1730
epoch: 1000
next table: 2776
cur table: 2705
epoch: 1000
next table: 2667
cur table: 3184
epoch: 1000
next table: 1760
cur table: 2776
epoch: 1000
next table: 1733
cur table: 1760
epoch: 1000
next table: 1781
cur table: 1733
epoch: 1000
next table: 2817
cur table: 1781
epoch: 1000
next table: 2713
cur table: 2817
epoch: 1000
next table: 2848
cur table: 2667
epoch: 1000
next table: 2058
cur table: 2713
epoch: 1000
next table: 2115
cur table: 2848
epoch: 1000
next table: 2044
cur table: 2058
epoch: 1000
next table: 1971
cur table: 2044
epoch: 1000
next table: 2052
cur table: 1971
epoch: 1000
next table: 1990
cur table: 2052
epoch: 1000
next table: 2001
cur table: 2115
epoch: 1000
next table: 1995
cur table: 1990
epoch: 1000
next table: 1943
cur table: 1995
epoch: 1000
next table: 1990
cur table: 1943
epoch: 1000
next table: 1994
cur table: 1990
epoch: 1000
next table: 1991
cur table: 1994
epoch: 1000
next table: 1994
cur table: 1991
epoch: 1000
next table: 1997
cur table: 1994
epoch: 1000
next table: 1992
cur table: 1997
epoch: 1000
next table: 1992
cur table: 1992
epoch: 1000
next table: 1994
cur table: 1992
epoch: 1000
next table: 1991
cur table: 1994
epoch: 1000
next table: 1936
cur table: 1991
epoch: 1000
next table: 1987
cur table: 1936
epoch: 1000
next table: 1995
cur table: 1987
epoch: 1000
next table: 2052
cur table: 2001
epoch: 1000
next table: 1932
cur table: 1995
epoch: 1000
next table: 2030
cur table: 1932
epoch: 1000
next table: 1936
cur table: 2030
epoch: 1000
next table: 2059
cur table: 2052
epoch: 1000
next table: 1987
cur table: 1936
epoch: 1000
next table: 2030
cur table: 1987
epoch: 1000
next table: 1957
cur table: 2030
epoch: 1000
next table: 1936
cur table: 1957
epoch: 1000
next table: 1987
cur table: 1936
epoch: 1000
next table: 1993
cur table: 1987
epoch: 1000
next table: 1996
cur table: 1993
epoch: 1000
next table: 1992
cur table: 1996
epoch: 1000
next table: 1994
cur table: 1992
epoch: 1000
next table: 1938
cur table: 1994
epoch: 1000
next table: 1987
cur table: 1938
epoch: 1000
next table: 1999
cur table: 1987
epoch: 1000
next table: 2051
cur table: 2059
epoch: 1000
next table: 1986
cur table: 1999
epoch: 1000
next table: 1998
cur table: 1986
epoch: 1000
next table: 1927
cur table: 1998
epoch: 1000
next table: 1969
cur table: 1927
epoch: 1000
next table: 1943
cur table: 1969
epoch: 1000
next table: 1967
cur table: 1943
epoch: 1000
next table: 2204
cur table: 2051
epoch: 1000
next table: 2034
cur table: 1967
epoch: 1000
next table: 1998
cur table: 2034
epoch: 1000
next table: 1986
cur table: 1998
epoch: 1000
next table: 2000
cur table: 1986
epoch: 1000
next table: 1989
cur table: 2000
epoch: 1000
next table: 2006
cur table: 1989
epoch: 1000
next table: 1994
cur table: 2006
epoch: 1000
next table: 2001
cur table: 1994
epoch: 1000
next table: 1996
cur table: 2001
epoch: 1000
next table: 1998
cur table: 1996
epoch: 1000
next table: 1979
cur table: 1998
epoch: 1000
next table: 2002
cur table: 1979
epoch: 1000
next table: 2102
cur table: 2204
epoch: 1000
next table: 1989
cur table: 2002
epoch: 1000
next table: 2063
cur table: 1989
epoch: 1000
next table: 2068
cur table: 2063
epoch: 1000
next table: 1985
cur table: 2068
epoch: 1000
next table: 1994
cur table: 1985
epoch: 1000
next table: 1995
cur table: 1994
epoch: 1000
next table: 2001
cur table: 1995
epoch: 1000
next table: 2001
cur table: 2001
epoch: 1000
next table: 1991
cur table: 2001
epoch: 1000
next table: 2008
cur table: 1991
epoch: 1000
next table: 1993
cur table: 2008
epoch: 1000
next table: 2002
cur table: 1993
epoch: 1000
next table: 2052
cur table: 2002
epoch: 1000
next table: 2068
cur table: 2052
epoch: 1000
next table: 1984
cur table: 2068
epoch: 1000
next table: 2015
cur table: 1984
epoch: 1000
next table: 2052
cur table: 2102
epoch: 1000
next table: 1989
cur table: 2015
epoch: 1000
next table: 1995
cur table: 1989
epoch: 1000
next table: 1996
cur table: 1995
epoch: 1000
next table: 2001
cur table: 1996
epoch: 1000
next table: 1995
cur table: 2001
epoch: 1000
next table: 2010
cur table: 1995
epoch: 1000
next table: 1989
cur table: 2010
epoch: 1000
next table: 1987
cur table: 1989
epoch: 1000
next table: 2000
cur table: 1987
epoch: 1000
next table: 2044
cur table: 2000
epoch: 1000
next table: 1958
cur table: 2044
epoch: 1000
next table: 1984
cur table: 1958
epoch: 1000
next table: 1994
cur table: 1984
epoch: 1000
next table: 2059
cur table: 1994
epoch: 1000
next table: 1994
cur table: 2059
epoch: 1000
next table: 2069
cur table: 1994
epoch: 1000
next table: 2034
cur table: 2052
epoch: 1000
next table: 1999
cur table: 2069
epoch: 1000
next table: 1996
cur table: 1999
epoch: 1000
next table: 1981
cur table: 1996
epoch: 1000
next table: 2003
cur table: 1981
epoch: 1000
next table: 2005
cur table: 2003
epoch: 1000
next table: 2003
cur table: 2005
epoch: 1000
next table: 1994
cur table: 2003
epoch: 1000
next table: 1989
cur table: 1994
epoch: 1000
next table: 2006
cur table: 1989
epoch: 1000
next table: 2001
cur table: 2006
epoch: 1000
next table: 2101
cur table: 2034
epoch: 1000
next table: 2001
cur table: 2001
epoch: 1000
next table: 1981
cur table: 2001
epoch: 1000
next table: 1981
cur table: 1981
epoch: 1000
next table: 1975
cur table: 1981
epoch: 1000
next table: 1956
cur table: 1975
epoch: 1000
next table: 1994
cur table: 1956
epoch: 1000
next table: 1976
cur table: 1994
epoch: 1000
next table: 1983
cur table: 1976
epoch: 1000
next table: 1978
cur table: 1983
epoch: 1000
next table: 1975
cur table: 1978
epoch: 1000
next table: 2220
cur table: 2101
epoch: 1000
next table: 1976
cur table: 1975
epoch: 1000
next table: 1980
cur table: 1976
epoch: 1000
next table: 1978
cur table: 1980
epoch: 1000
next table: 2032
cur table: 1978
epoch: 1000
next table: 1976
cur table: 2032
epoch: 1000
next table: 1980
cur table: 1976
epoch: 1000
next table: 1976
cur table: 1980
epoch: 1000
next table: 1959
cur table: 1976
epoch: 1000
next table: 2168
cur table: 2220
epoch: 1000
next table: 2007
cur table: 1959
epoch: 1000
next table: 2111
cur table: 2168
epoch: 1000
next table: 2014
cur table: 2007
epoch: 1000
next table: 2033
cur table: 2111
epoch: 1000
next table: 2014
cur table: 2014
epoch: 1000
next table: 2032
cur table: 2033
epoch: 1000
next table: 2013
cur table: 2014
epoch: 1000
next table: 2033
cur table: 2032
epoch: 1000
next table: 2013
cur table: 2013
epoch: 1000
next table: 2031
cur table: 2033
epoch: 1000
next table: 2014
cur table: 2013
epoch: 1000
next table: 2036
cur table: 2031
epoch: 1000
next table: 2014
cur table: 2014
epoch: 1000
next table: 2037
cur table: 2036
epoch: 1000
next table: 2015
cur table: 2014
epoch: 1000
next table: 2034
cur table: 2037
epoch: 1000
next table: 2013
cur table: 2015
epoch: 1000
next table: 2034
cur table: 2034
epoch: 1000
next table: 2012
cur table: 2013
epoch: 1000
next table: 2016
cur table: 2034
epoch: 1000
next table: 2014
cur table: 2012
epoch: 1000
next table: 2014
cur table: 2016
epoch: 1000
next table: 2015
cur table: 2014
epoch: 1000
next table: 2008
cur table: 2014
epoch: 1000
next table: 2013
cur table: 2015
epoch: 1000
next table: 2004
cur table: 2008
epoch: 1000
next table: 2015
cur table: 2013
epoch: 1000
next table: 2006
cur table: 2004
epoch: 1000
next table: 2013
cur table: 2015
epoch: 1000
next table: 2005
cur table: 2006
epoch: 1000
next table: 2013
cur table: 2013
epoch: 1000
next table: 2004
cur table: 2005
epoch: 1000
next table: 2013
cur table: 2013
epoch: 1000
next table: 2005
cur table: 2004
epoch: 1000
next table: 2014
cur table: 2013
epoch: 1000
next table: 2024
cur table: 2005
epoch: 1000
next table: 2013
cur table: 2014
epoch: 1000
next table: 2015
cur table: 2024
epoch: 1000
next table: 2014
cur table: 2013
epoch: 1000
next table: 2013
cur table: 2015
epoch: 1000
next table: 2015
cur table: 2014
epoch: 1000
next table: 2025
cur table: 2013
epoch: 1000
next table: 2013
cur table: 2015
epoch: 1000
next table: 2036
cur table: 2025
epoch: 1000
next table: 2013
cur table: 2013
epoch: 1000
next table: 2013
cur table: 2013
epoch: 1000
next table: 2051
cur table: 2036
epoch: 1000
next table: 2014
cur table: 2013
epoch: 1000
next table: 2057
cur table: 2051
epoch: 1000
next table: 2014
cur table: 2014
epoch: 1000
next table: 2086
cur table: 2057
epoch: 1000
next table: 2013
cur table: 2014
epoch: 1000
next table: 2105
cur table: 2086
epoch: 1000
next table: 2025
cur table: 2013
epoch: 1000
next table: 2197
cur table: 2105
epoch: 1000
next table: 2062
cur table: 2025
epoch: 1000
next table: 3387
cur table: 2062
epoch: 1000
next table: 4282
cur table: 3387
epoch: 1000
next table: 4022
cur table: 4282
epoch: 1000
next table: 4183
cur table: 4022
epoch: 1000
next table: 4060
cur table: 4183
epoch: 1000
next table: 4177
cur table: 4060
epoch: 1000
next table: 4164
cur table: 4177
epoch: 1000
next table: 3978
cur table: 4164
epoch: 1000
next table: 4124
cur table: 3978
epoch: 1000
next table: 4223
cur table: 4124
Heartbeat CPU 0 instructions: 10000002 cycles: 3030819 heartbeat IPC: 3.29944 cumulative IPC: 3.29944 (Simulation time: 0 hr 6 min 29 sec) 
epoch: 1000
next table: 4073
cur table: 4223
epoch: 1000
next table: 4030
cur table: 4073
epoch: 1000
next table: 4051
cur table: 4030
epoch: 1000
next table: 4116
cur table: 4051
epoch: 1000
next table: 4097
cur table: 4116
epoch: 1000
next table: 4231
cur table: 4097
epoch: 1000
next table: 4005
cur table: 4231
epoch: 1000
next table: 4195
cur table: 4005
epoch: 1000
next table: 4243
cur table: 4195
epoch: 1000
next table: 4044
cur table: 4243
epoch: 1000
next table: 4091
cur table: 4044
epoch: 1000
next table: 4010
cur table: 4091
epoch: 1000
next table: 4228
cur table: 4010
epoch: 1000
next table: 4173
cur table: 4228
epoch: 1000
next table: 4046
cur table: 4173
epoch: 1000
next table: 3499
cur table: 2197
epoch: 1000
next table: 3251
cur table: 4046
epoch: 1000
next table: 1976
cur table: 3251
epoch: 1000
next table: 1991
cur table: 1976
epoch: 1000
next table: 1933
cur table: 1991
epoch: 1000
next table: 1969
cur table: 1933
epoch: 1000
next table: 1985
cur table: 1969
epoch: 1000
next table: 1951
cur table: 1985
epoch: 1000
next table: 2790
cur table: 3499
epoch: 1000
next table: 1992
cur table: 1951
epoch: 1000
next table: 1971
cur table: 1992
epoch: 1000
next table: 1974
cur table: 1971
epoch: 1000
next table: 1994
cur table: 1974
epoch: 1000
next table: 1958
cur table: 1994
epoch: 1000
next table: 1949
cur table: 1958
epoch: 1000
next table: 1983
cur table: 1949
epoch: 1000
next table: 1930
cur table: 1983
epoch: 1000
next table: 2003
cur table: 1930
epoch: 1000
next table: 1982
cur table: 2003
epoch: 1000
next table: 1983
cur table: 1982
epoch: 1000
next table: 1508
cur table: 2790
epoch: 1000
next table: 1982
cur table: 1983
epoch: 1000
next table: 1055
cur table: 1508
epoch: 1000
next table: 1983
cur table: 1982
epoch: 1000
next table: 1937
cur table: 1983
epoch: 1000
next table: 1041
cur table: 1055
epoch: 1000
next table: 1986
cur table: 1937
epoch: 1000
next table: 1040
cur table: 1041
epoch: 1000
next table: 1970
cur table: 1986
epoch: 1000
next table: 1043
cur table: 1040
epoch: 1000
next table: 2002
cur table: 1970
epoch: 1000
next table: 1039
cur table: 1043
epoch: 1000
next table: 1929
cur table: 2002
epoch: 1000
next table: 1036
cur table: 1039
epoch: 1000
next table: 1969
cur table: 1929
epoch: 1000
next table: 1036
cur table: 1036
epoch: 1000
next table: 1984
cur table: 1969
epoch: 1000
next table: 1995
cur table: 1984
epoch: 1000
next table: 1689
cur table: 1036
epoch: 1000
next table: 1958
cur table: 1995
epoch: 1000
next table: 1323
cur table: 1689
epoch: 1000
next table: 1966
cur table: 1958
epoch: 1000
next table: 1965
cur table: 1966
epoch: 1000
next table: 1174
cur table: 1323
epoch: 1000
next table: 1964
cur table: 1965
epoch: 1000
next table: 1125
cur table: 1174
epoch: 1000
next table: 1973
cur table: 1964
epoch: 1000
next table: 1172
cur table: 1125
epoch: 1000
next table: 1970
cur table: 1973
epoch: 1000
next table: 1103
cur table: 1172
epoch: 1000
next table: 1958
cur table: 1970
epoch: 1000
next table: 1173
cur table: 1103
epoch: 1000
next table: 2005
cur table: 1958
epoch: 1000
next table: 1075
cur table: 1173
epoch: 1000
next table: 1938
cur table: 2005
epoch: 1000
next table: 1182
cur table: 1075
epoch: 1000
next table: 1993
cur table: 1938
Heartbeat CPU 0 instructions: 20000000 cycles: 6041426 heartbeat IPC: 3.32159 cumulative IPC: 3.31048 (Simulation time: 0 hr 11 min 35 sec) 
epoch: 1000
next table: 1103
cur table: 1182
epoch: 1000
next table: 1964
cur table: 1993
epoch: 1000
next table: 1124
cur table: 1103
epoch: 1000
next table: 1955
cur table: 1964
epoch: 1000
next table: 1996
cur table: 1955
epoch: 1000
next table: 1138
cur table: 1124
epoch: 1000
next table: 1943
cur table: 1996
epoch: 1000
next table: 1086
cur table: 1138
epoch: 1000
next table: 1968
cur table: 1943
epoch: 1000
next table: 1988
cur table: 1968
epoch: 1000
next table: 1055
cur table: 1086
epoch: 1000
next table: 1940
cur table: 1988
epoch: 1000
next table: 1047
cur table: 1055
epoch: 1000
next table: 1968
cur table: 1940
epoch: 1000
next table: 1054
cur table: 1047
epoch: 1000
next table: 1994
cur table: 1968
epoch: 1000
next table: 1037
cur table: 1054
epoch: 1000
next table: 1940
cur table: 1994
epoch: 1000
next table: 1981
cur table: 1940
epoch: 1000
next table: 1043
cur table: 1037
epoch: 1000
next table: 1971
cur table: 1981
epoch: 1000
next table: 1042
cur table: 1043
epoch: 1000
next table: 1953
cur table: 1971
epoch: 1000
next table: 1046
cur table: 1042
epoch: 1000
next table: 1965
cur table: 1953
epoch: 1000
next table: 1036
cur table: 1046
epoch: 1000
next table: 1975
cur table: 1965
epoch: 1000
next table: 1037
cur table: 1036
epoch: 1000
next table: 1966
cur table: 1975
epoch: 1000
next table: 2018
cur table: 1966
epoch: 1000
next table: 1860
cur table: 1037
epoch: 1000
next table: 1983
cur table: 2018
epoch: 1000
next table: 1602
cur table: 1860
epoch: 1000
next table: 1986
cur table: 1983
epoch: 1000
next table: 1648
cur table: 1602
epoch: 1000
next table: 2009
cur table: 1986
epoch: 1000
next table: 1595
cur table: 1648
epoch: 1000
next table: 1958
cur table: 2009
epoch: 1000
next table: 1590
cur table: 1595
epoch: 1000
next table: 2016
cur table: 1958
epoch: 1000
next table: 1702
cur table: 1590
epoch: 1000
next table: 1958
cur table: 2016
epoch: 1000
next table: 2010
cur table: 1958
epoch: 1000
next table: 1712
cur table: 1702
epoch: 1000
next table: 1983
cur table: 2010
epoch: 1000
next table: 1984
cur table: 1983
epoch: 1000
next table: 1909
cur table: 1712
epoch: 1000
next table: 2017
cur table: 1984
epoch: 1000
next table: 1955
cur table: 2017
epoch: 1000
next table: 1988
cur table: 1909
epoch: 1000
next table: 2014
cur table: 1955
epoch: 1000
next table: 1982
cur table: 2014
epoch: 1000
next table: 2030
cur table: 1988
epoch: 1000
next table: 2007
cur table: 1982
epoch: 1000
next table: 1993
cur table: 2007
epoch: 1000
next table: 2028
cur table: 2030
epoch: 1000
next table: 2005
cur table: 1993
epoch: 1000
next table: 1972
cur table: 2005
epoch: 1000
next table: 2102
cur table: 2028
epoch: 1000
next table: 1980
cur table: 1972
epoch: 1000
next table: 3009
cur table: 1980
epoch: 1000
next table: 3229
cur table: 3009
epoch: 1000
next table: 3076
cur table: 3229
epoch: 1000
next table: 2434
cur table: 2102
epoch: 1000
next table: 3223
cur table: 3076
epoch: 1000
next table: 3141
cur table: 3223
epoch: 1000
next table: 3155
cur table: 3141
epoch: 1000
next table: 3079
cur table: 3155
epoch: 1000
next table: 1705
cur table: 2434
epoch: 1000
next table: 3084
cur table: 3079
epoch: 1000
next table: 3209
cur table: 3084
epoch: 1000
next table: 1216
cur table: 1705
epoch: 1000
next table: 3219
cur table: 3209
epoch: 1000
next table: 3070
cur table: 3219
epoch: 1000
next table: 3081
cur table: 3070
epoch: 1000
next table: 1183
cur table: 1216
epoch: 1000
next table: 3216
cur table: 3081
epoch: 1000
next table: 3079
cur table: 3216
epoch: 1000
next table: 3217
cur table: 3079
epoch: 1000
next table: 3231
cur table: 3217
epoch: 1000
next table: 3115
cur table: 3231
epoch: 1000
next table: 3173
cur table: 3115
epoch: 1000
next table: 3134
cur table: 3173
epoch: 1000
next table: 3204
cur table: 3134
epoch: 1000
next table: 3086
cur table: 3204
epoch: 1000
next table: 3254
cur table: 3086
epoch: 1000
next table: 3042
cur table: 3254
epoch: 1000
next table: 3174
cur table: 3042
epoch: 1000
next table: 3266
cur table: 3174
epoch: 1000
next table: 3063
cur table: 3266
epoch: 1000
next table: 3081
cur table: 3063
epoch: 1000
next table: 2805
cur table: 3081
epoch: 1000
next table: 2383
cur table: 1183
epoch: 1000
next table: 1972
cur table: 2805
epoch: 1000
next table: 2009
cur table: 1972
epoch: 1000
next table: 2191
cur table: 2383
epoch: 1000
next table: 1965
cur table: 2009
epoch: 1000
next table: 2011
cur table: 1965
epoch: 1000
next table: 2152
cur table: 2191
epoch: 1000
next table: 1960
cur table: 2011
epoch: 1000
next table: 2007
cur table: 1960
epoch: 1000
next table: 2183
cur table: 2152
epoch: 1000
next table: 1992
cur table: 2007
epoch: 1000
next table: 2005
cur table: 1992
epoch: 1000
next table: 1990
cur table: 2005
epoch: 1000
next table: 2236
cur table: 2183
epoch: 1000
next table: 1955
cur table: 1990
epoch: 1000
next table: 2012
cur table: 1955
epoch: 1000
next table: 2141
cur table: 2236
epoch: 1000
next table: 1996
cur table: 2012
epoch: 1000
next table: 2002
cur table: 1996
epoch: 1000
next table: 2206
cur table: 2141
epoch: 1000
next table: 1984
cur table: 2002
epoch: 1000
next table: 2017
cur table: 1984
epoch: 1000
next table: 1954
cur table: 2017
epoch: 1000
next table: 2090
cur table: 2206
epoch: 1000
next table: 2004
cur table: 1954
epoch: 1000
next table: 2245
cur table: 2090
epoch: 1000
next table: 2008
cur table: 2004
epoch: 1000
next table: 1941
cur table: 2008
epoch: 1000
next table: 3329
cur table: 1941
epoch: 1000
next table: 2244
cur table: 2245
epoch: 1000
next table: 2485
cur table: 3329
epoch: 1000
next table: 2961
cur table: 2485
epoch: 1000
next table: 2522
cur table: 2244
epoch: 1000
next table: 2956
cur table: 2961
epoch: 1000
next table: 2084
cur table: 2956
epoch: 1000
next table: 1956
cur table: 2084
epoch: 1000
next table: 1791
cur table: 1956
epoch: 1000
next table: 1880
cur table: 1791
epoch: 1000
next table: 3770
cur table: 2522
epoch: 1000
next table: 2116
cur table: 1880
epoch: 1000
next table: 2076
cur table: 2116
epoch: 1000
next table: 2294
cur table: 2076
epoch: 1000
next table: 2287
cur table: 2294
epoch: 1000
next table: 2706
cur table: 2287
epoch: 1000
next table: 2017
cur table: 3770
epoch: 1000
next table: 2502
cur table: 2706
epoch: 1000
next table: 1939
cur table: 2502
epoch: 1000
next table: 1989
cur table: 2017
epoch: 1000
next table: 1786
cur table: 1939
epoch: 1000
next table: 1838
cur table: 1786
epoch: 1000
next table: 1724
cur table: 1989
epoch: 1000
next table: 1958
cur table: 1838
epoch: 1000
next table: 2477
cur table: 1958
epoch: 1000
next table: 2759
cur table: 2477
epoch: 1000
next table: 2838
cur table: 2759
epoch: 1000
next table: 2897
cur table: 2838
epoch: 1000
next table: 2127
cur table: 1724
epoch: 1000
next table: 2578
cur table: 2897
epoch: 1000
next table: 2489
cur table: 2578
epoch: 1000
next table: 3175
cur table: 2127
epoch: 1000
next table: 3292
cur table: 2489
epoch: 1000
next table: 2062
cur table: 3292
epoch: 1000
next table: 2471
cur table: 3175
epoch: 1000
next table: 2356
cur table: 2062
epoch: 1000
next table: 2269
cur table: 2471
epoch: 1000
next table: 2305
cur table: 2356
epoch: 1000
next table: 2273
cur table: 2269
epoch: 1000
next table: 2327
cur table: 2305
epoch: 1000
next table: 2213
cur table: 2327
epoch: 1000
next table: 2287
cur table: 2273
epoch: 1000
next table: 2165
cur table: 2213
epoch: 1000
next table: 2057
cur table: 2165
epoch: 1000
next table: 2219
cur table: 2057
epoch: 1000
next table: 3267
cur table: 2287
epoch: 1000
next table: 2069
cur table: 2219
epoch: 1000
next table: 2015
cur table: 2069
epoch: 1000
next table: 2103
cur table: 2015
epoch: 1000
next table: 2031
cur table: 2103
epoch: 1000
next table: 2028
cur table: 2031
epoch: 1000
next table: 2050
cur table: 2028
epoch: 1000
next table: 1972
cur table: 2050
epoch: 1000
next table: 1986
cur table: 1972
epoch: 1000
next table: 2009
cur table: 1986
epoch: 1000
next table: 1954
cur table: 2009
epoch: 1000
next table: 2008
cur table: 1954
epoch: 1000
next table: 1960
cur table: 2008
epoch: 1000
next table: 1989
cur table: 1960
epoch: 1000
next table: 7278
cur table: 3267
epoch: 1000
next table: 1963
cur table: 1989
epoch: 1000
next table: 1979
cur table: 1963
epoch: 1000
next table: 1942
cur table: 1979
epoch: 1000
next table: 1989
cur table: 1942
epoch: 1000
next table: 1979
cur table: 1989
epoch: 1000
next table: 1943
cur table: 1979
epoch: 1000
next table: 1992
cur table: 1943
epoch: 1000
next table: 1978
cur table: 1992
epoch: 1000
next table: 1935
cur table: 1978
epoch: 1000
next table: 1994
cur table: 1935
epoch: 1000
next table: 1978
cur table: 1994
epoch: 1000
next table: 1947
cur table: 1978
epoch: 1000
next table: 1984
cur table: 1947
epoch: 1000
next table: 1979
cur table: 1984
epoch: 1000
next table: 1945
cur table: 1979
epoch: 1000
next table: 1979
cur table: 1945
epoch: 1000
next table: 1989
cur table: 1979
epoch: 1000
next table: 1975
cur table: 1989
epoch: 1000
next table: 3216
cur table: 7278
epoch: 1000
next table: 1978
cur table: 1975
epoch: 1000
next table: 1996
cur table: 1978
epoch: 1000
next table: 1957
cur table: 1996
epoch: 1000
next table: 2112
cur table: 3216
epoch: 1000
next table: 1990
cur table: 1957
epoch: 1000
next table: 1970
cur table: 1990
epoch: 1000
next table: 1995
cur table: 1970
epoch: 1000
next table: 2060
cur table: 2112
epoch: 1000
next table: 1959
cur table: 1995
epoch: 1000
next table: 1993
cur table: 1959
Heartbeat CPU 0 instructions: 30000003 cycles: 9027069 heartbeat IPC: 3.34936 cumulative IPC: 3.32334 (Simulation time: 0 hr 16 min 28 sec) 
epoch: 1000
next table: 1966
cur table: 1993
epoch: 1000
next table: 2092
cur table: 2060
epoch: 1000
next table: 1994
cur table: 1966
epoch: 1000
next table: 1958
cur table: 1994
epoch: 1000
next table: 1993
cur table: 1958
epoch: 1000
next table: 2055
cur table: 2092
epoch: 1000
next table: 1979
cur table: 1993
epoch: 1000
next table: 1981
cur table: 1979
epoch: 1000
next table: 1957
cur table: 1981
epoch: 1000
next table: 2031
cur table: 2055
epoch: 1000
next table: 2027
cur table: 1957
epoch: 1000
next table: 1975
cur table: 2027
epoch: 1000
next table: 1978
cur table: 1975
epoch: 1000
next table: 2030
cur table: 2031
epoch: 1000
next table: 1964
cur table: 1978
epoch: 1000
next table: 1956
cur table: 1964
epoch: 1000
next table: 2033
cur table: 2030
epoch: 1000
next table: 2013
cur table: 1956
epoch: 1000
next table: 1955
cur table: 2013
epoch: 1000
next table: 1958
cur table: 1955
epoch: 1000
next table: 2026
cur table: 2033
epoch: 1000
next table: 2009
cur table: 1958
epoch: 1000
next table: 1981
cur table: 2009
epoch: 1000
next table: 1995
cur table: 1981
epoch: 1000
next table: 2472
cur table: 2026
epoch: 1000
next table: 2000
cur table: 1995
epoch: 1000
next table: 2119
cur table: 2472
epoch: 1000
next table: 1999
cur table: 2000
epoch: 1000
next table: 2409
cur table: 2119
epoch: 1000
next table: 2000
cur table: 1999
epoch: 1000
next table: 2000
cur table: 2000
epoch: 1000
next table: 2389
cur table: 2409
epoch: 1000
next table: 2000
cur table: 2000
epoch: 1000
next table: 2000
cur table: 2000
epoch: 1000
next table: 3325
cur table: 2389
epoch: 1000
next table: 2000
cur table: 2000
epoch: 1000
next table: 2546
cur table: 3325
epoch: 1000
next table: 2000
cur table: 2000
epoch: 1000
next table: 2005
cur table: 2000
epoch: 1000
next table: 2070
cur table: 2546
epoch: 1000
next table: 2013
cur table: 2005
epoch: 1000
next table: 2056
cur table: 2070
epoch: 1000
next table: 2014
cur table: 2013
epoch: 1000
next table: 2073
cur table: 2056
epoch: 1000
next table: 2014
cur table: 2014
epoch: 1000
next table: 2375
cur table: 2073
epoch: 1000
next table: 2012
cur table: 2014
epoch: 1000
next table: 2014
cur table: 2012
epoch: 1000
next table: 2728
cur table: 2375
epoch: 1000
next table: 2014
cur table: 2014
epoch: 1000
next table: 2014
cur table: 2014
epoch: 1000
next table: 2924
cur table: 2728
epoch: 1000
next table: 2013
cur table: 2014
epoch: 1000
next table: 2020
cur table: 2013
epoch: 1000
next table: 3185
cur table: 2924
epoch: 1000
next table: 2014
cur table: 2020
epoch: 1000
next table: 2013
cur table: 2014
epoch: 1000
next table: 3223
cur table: 3185
epoch: 1000
next table: 2014
cur table: 2013
epoch: 1000
next table: 2013
cur table: 2014
epoch: 1000
next table: 2547
cur table: 3223
epoch: 1000
next table: 2014
cur table: 2013
epoch: 1000
next table: 2356
cur table: 2547
epoch: 1000
next table: 2015
cur table: 2014
epoch: 1000
next table: 2175
cur table: 2356
epoch: 1000
next table: 2012
cur table: 2015
epoch: 1000
next table: 2015
cur table: 2012
epoch: 1000
next table: 2577
cur table: 2175
epoch: 1000
next table: 1954
cur table: 2015
epoch: 1000
next table: 2395
cur table: 1954
epoch: 1000
next table: 3878
cur table: 2395
epoch: 1000
next table: 4245
cur table: 3878
epoch: 1000
next table: 4168
cur table: 4245
epoch: 1000
next table: 4034
cur table: 4168
epoch: 1000
next table: 4076
cur table: 4034
epoch: 1000
next table: 4227
cur table: 4076
epoch: 1000
next table: 4144
cur table: 4227
epoch: 1000
next table: 4107
cur table: 4144
epoch: 1000
next table: 4044
cur table: 4107
epoch: 1000
next table: 4218
cur table: 4044
epoch: 1000
next table: 4142
cur table: 4218
epoch: 1000
next table: 4124
cur table: 4142
epoch: 1000
next table: 3946
cur table: 4124
epoch: 1000
next table: 4090
cur table: 3946
epoch: 1000
next table: 4328
cur table: 4090
epoch: 1000
next table: 4191
cur table: 4328
epoch: 1000
next table: 3929
cur table: 4191
epoch: 1000
next table: 4194
cur table: 3929
epoch: 1000
next table: 3999
cur table: 4194
epoch: 1000
next table: 4243
cur table: 3999
epoch: 1000
next table: 4087
cur table: 4243
epoch: 1000
next table: 3971
cur table: 4087
epoch: 1000
next table: 4224
cur table: 3971
epoch: 1000
next table: 4101
cur table: 4224
epoch: 1000
next table: 4106
cur table: 4101
epoch: 1000
next table: 2940
cur table: 2577
epoch: 1000
next table: 2301
cur table: 4106
epoch: 1000
next table: 2001
cur table: 2301
epoch: 1000
next table: 1983
cur table: 2001
epoch: 1000
next table: 1958
cur table: 1983
epoch: 1000
next table: 1966
cur table: 1958
epoch: 1000
next table: 1980
cur table: 1966
epoch: 1000
next table: 1963
cur table: 1980
epoch: 1000
next table: 1989
cur table: 1963
epoch: 1000
next table: 1927
cur table: 1989
epoch: 1000
next table: 1989
cur table: 1927
epoch: 1000
next table: 1982
cur table: 1989
epoch: 1000
next table: 1964
cur table: 1982
epoch: 1000
next table: 1991
cur table: 1964
epoch: 1000
next table: 1969
cur table: 1991
epoch: 1000
next table: 1705
cur table: 2940
epoch: 1000
next table: 1962
cur table: 1969
epoch: 1000
next table: 2006
cur table: 1962
epoch: 1000
next table: 1929
cur table: 2006
epoch: 1000
next table: 1966
cur table: 1929
epoch: 1000
next table: 1150
cur table: 1705
epoch: 1000
next table: 1985
cur table: 1966
epoch: 1000
next table: 1983
cur table: 1985
Heartbeat CPU 0 instructions: 40000003 cycles: 12097293 heartbeat IPC: 3.25709 cumulative IPC: 3.30652 (Simulation time: 0 hr 21 min 11 sec) 
epoch: 1000
next table: 1962
cur table: 1983
epoch: 1000
next table: 1093
cur table: 1150
epoch: 1000
next table: 1977
cur table: 1962
epoch: 1000
next table: 1964
cur table: 1977
epoch: 1000
next table: 1077
cur table: 1093
epoch: 1000
next table: 2001
cur table: 1964
epoch: 1000
next table: 1984
cur table: 2001
epoch: 1000
next table: 1937
cur table: 1984
epoch: 1000
next table: 1984
cur table: 1937
epoch: 1000
next table: 1307
cur table: 1077
epoch: 1000
next table: 1958
cur table: 1984
epoch: 1000
next table: 1969
cur table: 1958
epoch: 1000
next table: 1966
cur table: 1969
epoch: 1000
next table: 1245
cur table: 1307
epoch: 1000
next table: 1990
cur table: 1966
epoch: 1000
next table: 1970
cur table: 1990
epoch: 1000
next table: 1934
cur table: 1970
epoch: 1000
next table: 1130
cur table: 1245
epoch: 1000
next table: 1997
cur table: 1934
epoch: 1000
next table: 1947
cur table: 1997
epoch: 1000
next table: 1069
cur table: 1130
epoch: 1000
next table: 1956
cur table: 1947
epoch: 1000
next table: 1994
cur table: 1956
epoch: 1000
next table: 1974
cur table: 1994
epoch: 1000
next table: 1114
cur table: 1069
epoch: 1000
next table: 1957
cur table: 1974
epoch: 1000
next table: 1967
cur table: 1957
epoch: 1000
next table: 1087
cur table: 1114
epoch: 1000
next table: 1974
cur table: 1967
epoch: 1000
next table: 1966
cur table: 1974
epoch: 1000
next table: 1078
cur table: 1087
epoch: 1000
next table: 1983
cur table: 1966
epoch: 1000
next table: 1967
cur table: 1983
epoch: 1000
next table: 1081
cur table: 1078
epoch: 1000
next table: 1961
cur table: 1967
epoch: 1000
next table: 1970
cur table: 1961
epoch: 1000
next table: 1966
cur table: 1970
epoch: 1000
next table: 1087
cur table: 1081
epoch: 1000
next table: 1998
cur table: 1966
epoch: 1000
next table: 1937
cur table: 1998
epoch: 1000
next table: 1072
cur table: 1087
epoch: 1000
next table: 1959
cur table: 1937
epoch: 1000
next table: 1970
cur table: 1959
epoch: 1000
next table: 1071
cur table: 1072
epoch: 1000
next table: 1971
cur table: 1970
epoch: 1000
next table: 1952
cur table: 1971
epoch: 1000
next table: 1081
cur table: 1071
epoch: 1000
next table: 1975
cur table: 1952
epoch: 1000
next table: 1902
cur table: 1975
epoch: 1000
next table: 1556
cur table: 1081
epoch: 1000
next table: 3136
cur table: 1902
epoch: 1000
next table: 1449
cur table: 1556
epoch: 1000
next table: 3185
cur table: 3136
epoch: 1000
next table: 3055
cur table: 3185
epoch: 1000
next table: 1145
cur table: 1449
epoch: 1000
next table: 3160
cur table: 3055
epoch: 1000
next table: 1087
cur table: 1145
epoch: 1000
next table: 3066
cur table: 3160
epoch: 1000
next table: 3103
cur table: 3066
epoch: 1000
next table: 1082
cur table: 1087
epoch: 1000
next table: 3266
cur table: 3103
epoch: 1000
next table: 3176
cur table: 3266
epoch: 1000
next table: 1049
cur table: 1082
epoch: 1000
next table: 3128
cur table: 3176
epoch: 1000
next table: 1065
cur table: 1049
epoch: 1000
next table: 3247
cur table: 3128
epoch: 1000
next table: 3250
cur table: 3247
epoch: 1000
next table: 1129
cur table: 1065
epoch: 1000
next table: 3053
cur table: 3250
epoch: 1000
next table: 3253
cur table: 3053
epoch: 1000
next table: 3036
cur table: 3253
epoch: 1000
next table: 1202
cur table: 1129
epoch: 1000
next table: 3258
cur table: 3036
epoch: 1000
next table: 3131
cur table: 3258
epoch: 1000
next table: 1123
cur table: 1202
epoch: 1000
next table: 3101
cur table: 3131
epoch: 1000
next table: 1073
cur table: 1123
epoch: 1000
next table: 3114
cur table: 3101
epoch: 1000
next table: 3251
cur table: 3114
epoch: 1000
next table: 1076
cur table: 1073
epoch: 1000
next table: 3190
cur table: 3251
epoch: 1000
next table: 1102
cur table: 1076
epoch: 1000
next table: 3105
cur table: 3190
epoch: 1000
next table: 1070
cur table: 1102
epoch: 1000
next table: 3260
cur table: 3105
epoch: 1000
next table: 1053
cur table: 1070
epoch: 1000
next table: 3185
cur table: 3260
epoch: 1000
next table: 1068
cur table: 1053
epoch: 1000
next table: 3123
cur table: 3185
epoch: 1000
next table: 1098
cur table: 1068
epoch: 1000
next table: 3249
cur table: 3123
epoch: 1000
next table: 1084
cur table: 1098
epoch: 1000
next table: 3185
cur table: 3249
epoch: 1000
next table: 1055
cur table: 1084
epoch: 1000
next table: 3089
cur table: 3185
epoch: 1000
next table: 2590
cur table: 3089
epoch: 1000
next table: 1870
cur table: 1055
epoch: 1000
next table: 2010
cur table: 2590
epoch: 1000
next table: 2014
cur table: 2010
epoch: 1000
next table: 2008
cur table: 2014
epoch: 1000
next table: 2005
cur table: 2008
epoch: 1000
next table: 2001
cur table: 2005
epoch: 1000
next table: 6093
cur table: 1870
epoch: 1000
next table: 2007
cur table: 2001
epoch: 1000
next table: 2002
cur table: 2007
epoch: 1000
next table: 1963
cur table: 2002
epoch: 1000
next table: 2030
cur table: 1963
epoch: 1000
next table: 2023
cur table: 2030
epoch: 1000
next table: 1981
cur table: 2023
epoch: 1000
next table: 2003
cur table: 1981
epoch: 1000
next table: 1960
cur table: 2003
epoch: 1000
next table: 2025
cur table: 1960
epoch: 1000
next table: 2044
cur table: 2025
epoch: 1000
next table: 6784
cur table: 6093
epoch: 1000
next table: 1950
cur table: 2044
epoch: 1000
next table: 2013
cur table: 1950
epoch: 1000
next table: 1963
cur table: 2013
epoch: 1000
next table: 2002
cur table: 1963
epoch: 1000
next table: 1992
cur table: 2002
epoch: 1000
next table: 1986
cur table: 1992
epoch: 1000
next table: 1980
cur table: 1986
epoch: 1000
next table: 2005
cur table: 1980
epoch: 1000
next table: 1929
cur table: 2005
epoch: 1000
next table: 1991
cur table: 1929
Heartbeat CPU 0 instructions: 50000003 cycles: 15099204 heartbeat IPC: 3.33121 cumulative IPC: 3.31143 (Simulation time: 0 hr 26 min 39 sec) 

Warmup complete CPU 0 instructions: 50000003 cycles: 15099204 (Simulation time: 0 hr 26 min 39 sec) 

epoch: 1000
next table: 1968
cur table: 1952
epoch: 1000
next table: 1960
cur table: 1968
epoch: 1000
next table: 1981
cur table: 1960
epoch: 1000
next table: 1098
cur table: 1101
epoch: 1000
next table: 1967
cur table: 1981
epoch: 1000
next table: 1964
cur table: 1967
epoch: 1000
next table: 1060
cur table: 1098
epoch: 1000
next table: 1955
cur table: 1964
epoch: 1000
next table: 1988
cur table: 1955
epoch: 1000
next table: 1062
cur table: 1060
epoch: 1000
next table: 1970
cur table: 1988
epoch: 1000
next table: 1953
cur table: 1970
epoch: 1000
next table: 1071
cur table: 1062
epoch: 1000
next table: 1970
cur table: 1953
epoch: 1000
next table: 1979
cur table: 1970
epoch: 1000
next table: 1954
cur table: 1979
epoch: 1000
next table: 1976
cur table: 1954
epoch: 1000
next table: 1122
cur table: 1071
epoch: 1000
next table: 1952
cur table: 1976
epoch: 1000
next table: 2024
cur table: 1952
epoch: 1000
next table: 1905
cur table: 1122
epoch: 1000
next table: 1967
cur table: 2024
epoch: 1000
next table: 1952
cur table: 1967
epoch: 1000
next table: 1969
cur table: 1952
epoch: 1000
next table: 1973
cur table: 1905
epoch: 1000
next table: 2024
cur table: 1969
epoch: 1000
next table: 1962
cur table: 2024
epoch: 1000
next table: 1967
cur table: 1962
epoch: 1000
next table: 2104
cur table: 1973
epoch: 1000
next table: 1973
cur table: 1967
epoch: 1000
next table: 2031
cur table: 1973
epoch: 1000
next table: 1957
cur table: 2031
epoch: 1000
next table: 1970
cur table: 1957
epoch: 1000
next table: 2389
cur table: 2104
epoch: 1000
next table: 1985
cur table: 1970
epoch: 1000
next table: 2004
cur table: 1985
epoch: 1000
next table: 1965
cur table: 2004
epoch: 1000
next table: 2079
cur table: 2389
epoch: 1000
next table: 2019
cur table: 1965
epoch: 1000
next table: 2227
cur table: 2019
epoch: 1000
next table: 1982
cur table: 2079
epoch: 1000
next table: 1964
cur table: 2227
epoch: 1000
next table: 1972
cur table: 1964
epoch: 1000
next table: 2020
cur table: 1972
epoch: 1000
next table: 1905
cur table: 1982
epoch: 1000
next table: 1962
cur table: 2020
epoch: 1000
next table: 1997
cur table: 1962
epoch: 1000
next table: 1966
cur table: 1997
epoch: 1000
next table: 2262
cur table: 1905
epoch: 1000
next table: 1990
cur table: 1966
epoch: 1000
next table: 1969
cur table: 1990
epoch: 1000
next table: 2017
cur table: 1969
epoch: 1000
next table: 2117
cur table: 2262
epoch: 1000
next table: 2015
cur table: 2017
epoch: 1000
next table: 2251
cur table: 2015
epoch: 1000
next table: 2370
cur table: 2117
epoch: 1000
next table: 1914
cur table: 2251
epoch: 1000
next table: 1939
cur table: 2370
epoch: 1000
next table: 1991
cur table: 1914
epoch: 1000
next table: 2505
cur table: 1991
epoch: 1000
next table: 2301
cur table: 1939
epoch: 1000
next table: 1978
cur table: 2505
epoch: 1000
next table: 1941
cur table: 1978
epoch: 1000
next table: 1969
cur table: 1941
epoch: 1000
next table: 2422
cur table: 2301
epoch: 1000
next table: 1992
cur table: 1969
epoch: 1000
next table: 2002
cur table: 1992
epoch: 1000
next table: 2003
cur table: 2002
epoch: 1000
next table: 1992
cur table: 2003
epoch: 1000
next table: 5410
cur table: 2422
epoch: 1000
next table: 2008
cur table: 1992
epoch: 1000
next table: 1993
cur table: 2008
epoch: 1000
next table: 2002
cur table: 1993
epoch: 1000
next table: 1998
cur table: 2002
epoch: 1000
next table: 2017
cur table: 1998
epoch: 1000
next table: 5506
cur table: 5410
epoch: 1000
next table: 2007
cur table: 2017
epoch: 1000
next table: 2511
cur table: 5506
epoch: 1000
next table: 2005
cur table: 2007
epoch: 1000
next table: 2003
cur table: 2005
epoch: 1000
next table: 2775
cur table: 2511
epoch: 1000
next table: 2010
cur table: 2003
epoch: 1000
next table: 2006
cur table: 2010
epoch: 1000
next table: 2909
cur table: 2775
epoch: 1000
next table: 2004
cur table: 2006
epoch: 1000
next table: 2012
cur table: 2004
epoch: 1000
next table: 2975
cur table: 2909
epoch: 1000
next table: 2003
cur table: 2012
epoch: 1000
next table: 2011
cur table: 2003
epoch: 1000
next table: 2706
cur table: 2975
epoch: 1000
next table: 2007
cur table: 2011
epoch: 1000
next table: 2690
cur table: 2706
epoch: 1000
next table: 2009
cur table: 2007
epoch: 1000
next table: 2000
cur table: 2009
epoch: 1000
next table: 2419
cur table: 2690
epoch: 1000
next table: 2014
cur table: 2000
epoch: 1000
next table: 2389
cur table: 2419
epoch: 1000
next table: 2006
cur table: 2014
epoch: 1000
next table: 2354
cur table: 2389
epoch: 1000
next table: 2000
cur table: 2006
epoch: 1000
next table: 2013
cur table: 2000
epoch: 1000
next table: 2360
cur table: 2354
epoch: 1000
next table: 2010
cur table: 2013
epoch: 1000
next table: 2321
cur table: 2360
epoch: 1000
next table: 1965
cur table: 2010
epoch: 1000
next table: 2014
cur table: 1965
epoch: 1000
next table: 1594
cur table: 2321
epoch: 1000
next table: 3457
cur table: 2014
epoch: 1000
next table: 4271
cur table: 3457
epoch: 1000
next table: 4018
cur table: 4271
epoch: 1000
next table: 4103
cur table: 4018
epoch: 1000
next table: 4136
cur table: 4103
epoch: 1000
next table: 4107
cur table: 4136
epoch: 1000
next table: 4249
cur table: 4107
epoch: 1000
next table: 3976
cur table: 4249
epoch: 1000
next table: 4195
cur table: 3976
epoch: 1000
next table: 4062
cur table: 4195
epoch: 1000
next table: 4229
cur table: 4062
epoch: 1000
next table: 3967
cur table: 4229
epoch: 1000
next table: 4105
cur table: 3967
epoch: 1000
next table: 4126
cur table: 4105
epoch: 1000
next table: 4095
cur table: 4126
epoch: 1000
next table: 4133
cur table: 4095
epoch: 1000
next table: 4003
cur table: 4133
epoch: 1000
next table: 4133
cur table: 4003
epoch: 1000
next table: 4379
cur table: 4133
epoch: 1000
next table: 4055
cur table: 4379
epoch: 1000
next table: 4054
cur table: 4055
epoch: 1000
next table: 4039
cur table: 4054
epoch: 1000
next table: 4385
cur table: 4039
epoch: 1000
next table: 4104
cur table: 4385
epoch: 1000
next table: 4006
cur table: 4104
epoch: 1000
next table: 3122
cur table: 4006
epoch: 1000
next table: 1924
cur table: 3122
epoch: 1000
next table: 2021
cur table: 1924
epoch: 1000
next table: 1923
cur table: 2021
epoch: 1000
next table: 1977
cur table: 1923
epoch: 1000
next table: 2022
cur table: 1977
epoch: 1000
next table: 1923
cur table: 2022
epoch: 1000
next table: 2005
cur table: 1923
epoch: 1000
next table: 1976
cur table: 2005
epoch: 1000
next table: 1946
cur table: 1976
epoch: 1000
next table: 1980
cur table: 1946
epoch: 1000
next table: 2574
cur table: 1594
epoch: 1000
next table: 1991
cur table: 1980
epoch: 1000
next table: 1948
cur table: 1991
epoch: 1000
next table: 1085
cur table: 2574
epoch: 1000
next table: 1975
cur table: 1948
epoch: 1000
next table: 1959
cur table: 1975
epoch: 1000
next table: 1071
cur table: 1085
epoch: 1000
next table: 1953
cur table: 1959
epoch: 1000
next table: 1977
cur table: 1953
epoch: 1000
next table: 1069
cur table: 1071
Heartbeat CPU 0 instructions: 60000003 cycles: 24620695 heartbeat IPC: 1.05026 cumulative IPC: 1.05026 (Simulation time: 0 hr 31 min 58 sec) 
epoch: 1000
next table: 1978
cur table: 1977
epoch: 1000
next table: 1968
cur table: 1978
epoch: 1000
next table: 1067
cur table: 1069
epoch: 1000
next table: 2003
cur table: 1968
epoch: 1000
next table: 1944
cur table: 2003
epoch: 1000
next table: 1076
cur table: 1067
epoch: 1000
next table: 1978
cur table: 1944
epoch: 1000
next table: 1981
cur table: 1978
epoch: 1000
next table: 1062
cur table: 1076
epoch: 1000
next table: 1963
cur table: 1981
epoch: 1000
next table: 1944
cur table: 1963
epoch: 1000
next table: 1082
cur table: 1062
epoch: 1000
next table: 1975
cur table: 1944
epoch: 1000
next table: 1993
cur table: 1975
epoch: 1000
next table: 1978
cur table: 1993
epoch: 1000
next table: 1931
cur table: 1978
epoch: 1000
next table: 1990
cur table: 1931
epoch: 1000
next table: 1944
cur table: 1990
epoch: 1000
next table: 1996
cur table: 1944
epoch: 1000
next table: 1940
cur table: 1996
epoch: 1000
next table: 1970
cur table: 1940
epoch: 1000
next table: 1639
cur table: 1082
epoch: 1000
next table: 2009
cur table: 1970
epoch: 1000
next table: 1939
cur table: 2009
epoch: 1000
next table: 1982
cur table: 1939
epoch: 1000
next table: 1968
cur table: 1982
epoch: 1000
next table: 1978
cur table: 1968
epoch: 1000
next table: 1944
cur table: 1978
epoch: 1000
next table: 1990
cur table: 1944
epoch: 1000
next table: 1971
cur table: 1990
epoch: 1000
next table: 1961
cur table: 1971
epoch: 1000
next table: 1326
cur table: 1639
epoch: 1000
next table: 1962
cur table: 1961
epoch: 1000
next table: 1964
cur table: 1962
epoch: 1000
next table: 1974
cur table: 1964
epoch: 1000
next table: 1949
cur table: 1974
epoch: 1000
next table: 2011
cur table: 1949
epoch: 1000
next table: 1969
cur table: 2011
epoch: 1000
next table: 1202
cur table: 1326
epoch: 1000
next table: 1969
cur table: 1969
epoch: 1000
next table: 1953
cur table: 1969
epoch: 1000
next table: 1985
cur table: 1953
epoch: 1000
next table: 1957
cur table: 1985
epoch: 1000
next table: 1986
cur table: 1957
epoch: 1000
next table: 1833
cur table: 1986
epoch: 1000
next table: 2969
cur table: 1833
epoch: 1000
next table: 3061
cur table: 2969
epoch: 1000
next table: 1722
cur table: 1202
epoch: 1000
next table: 3236
cur table: 3061
epoch: 1000
next table: 3251
cur table: 3236
epoch: 1000
next table: 3063
cur table: 3251
epoch: 1000
next table: 3213
cur table: 3063
epoch: 1000
next table: 3129
cur table: 3213
epoch: 1000
next table: 1316
cur table: 1722
epoch: 1000
next table: 3193
cur table: 3129
epoch: 1000
next table: 1087
cur table: 1316
epoch: 1000
next table: 3181
cur table: 3193
epoch: 1000
next table: 3122
cur table: 3181
epoch: 1000
next table: 1091
cur table: 1087
epoch: 1000
next table: 3041
cur table: 3122
epoch: 1000
next table: 1067
cur table: 1091
epoch: 1000
next table: 3174
cur table: 3041
epoch: 1000
next table: 1050
cur table: 1067
epoch: 1000
next table: 3142
cur table: 3174
epoch: 1000
next table: 1049
cur table: 1050
epoch: 1000
next table: 3034
cur table: 3142
epoch: 1000
next table: 1038
cur table: 1049
epoch: 1000
next table: 3255
cur table: 3034
epoch: 1000
next table: 1034
cur table: 1038
epoch: 1000
next table: 3244
cur table: 3255
epoch: 1000
next table: 1046
cur table: 1034
epoch: 1000
next table: 3171
cur table: 3244
epoch: 1000
next table: 1045
cur table: 1046
epoch: 1000
next table: 3139
cur table: 3171
epoch: 1000
next table: 1044
cur table: 1045
epoch: 1000
next table: 3217
cur table: 3139
epoch: 1000
next table: 1050
cur table: 1044
epoch: 1000
next table: 3075
cur table: 3217
epoch: 1000
next table: 3172
cur table: 3075
epoch: 1000
next table: 1053
cur table: 1050
epoch: 1000
next table: 3253
cur table: 3172
epoch: 1000
next table: 1061
cur table: 1053
epoch: 1000
next table: 3112
cur table: 3253
epoch: 1000
next table: 1089
cur table: 1061
epoch: 1000
next table: 3064
cur table: 3112
epoch: 1000
next table: 3371
cur table: 3064
epoch: 1000
next table: 1057
cur table: 1089
epoch: 1000
next table: 3128
cur table: 3371
epoch: 1000
next table: 1071
cur table: 1057
epoch: 1000
next table: 3169
cur table: 3128
Heartbeat CPU 0 instructions: 70000000 cycles: 35777025 heartbeat IPC: 0.896352 cumulative IPC: 0.96722 (Simulation time: 0 hr 37 min 8 sec) 
epoch: 1000
next table: 2768
cur table: 3169
epoch: 1000
next table: 2176
cur table: 1071
epoch: 1000
next table: 2003
cur table: 2768
epoch: 1000
next table: 2003
cur table: 2003
epoch: 1000
next table: 2011
cur table: 2003
epoch: 1000
next table: 2001
cur table: 2011
epoch: 1000
next table: 2005
cur table: 2001
epoch: 1000
next table: 6174
cur table: 2176
epoch: 1000
next table: 2018
cur table: 2005
epoch: 1000
next table: 2001
cur table: 2018
epoch: 1000
next table: 1928
cur table: 2001
epoch: 1000
next table: 2013
cur table: 1928
epoch: 1000
next table: 2015
cur table: 2013
epoch: 1000
next table: 2053
cur table: 2015
epoch: 1000
next table: 1986
cur table: 2053
epoch: 1000
next table: 1968
cur table: 1986
epoch: 1000
next table: 2014
cur table: 1968
epoch: 1000
next table: 2009
cur table: 2014
epoch: 1000
next table: 6415
cur table: 6174
epoch: 1000
next table: 2001
cur table: 2009
epoch: 1000
next table: 1960
cur table: 2001
epoch: 1000
next table: 1960
cur table: 1960
epoch: 1000
next table: 2001
cur table: 1960
epoch: 1000
next table: 1999
cur table: 2001
epoch: 1000
next table: 1993
cur table: 1999
epoch: 1000
next table: 1974
cur table: 1993
epoch: 1000
next table: 1954
cur table: 1974
epoch: 1000
next table: 4623
cur table: 6415
epoch: 1000
next table: 1962
cur table: 1954
epoch: 1000
next table: 1986
cur table: 1962
epoch: 1000
next table: 1951
cur table: 1986
epoch: 1000
next table: 1083
cur table: 4623
epoch: 1000
next table: 1970
cur table: 1951
epoch: 1000
next table: 1986
cur table: 1970
epoch: 1000
next table: 1071
cur table: 1083
epoch: 1000
next table: 1954
cur table: 1986
epoch: 1000
next table: 1966
cur table: 1954
epoch: 1000
next table: 1063
cur table: 1071
epoch: 1000
next table: 1997
cur table: 1966
epoch: 1000
next table: 1076
cur table: 1063
epoch: 1000
next table: 1945
cur table: 1997
epoch: 1000
next table: 1965
cur table: 1945
epoch: 1000
next table: 1964
cur table: 1965
epoch: 1000
next table: 1078
cur table: 1076
epoch: 1000
next table: 1980
cur table: 1964
epoch: 1000
next table: 1972
cur table: 1980
epoch: 1000
next table: 1987
cur table: 1972
epoch: 1000
next table: 1102
cur table: 1078
epoch: 1000
next table: 1956
cur table: 1987
epoch: 1000
next table: 1964
cur table: 1956
epoch: 1000
next table: 1101
cur table: 1102
epoch: 1000
next table: 1911
cur table: 1964
epoch: 1000
next table: 1953
cur table: 1911
epoch: 1000
next table: 1986
cur table: 1953
epoch: 1000
next table: 1871
cur table: 1101
epoch: 1000
next table: 2018
cur table: 1986
epoch: 1000
next table: 1963
cur table: 2018
epoch: 1000
next table: 2012
cur table: 1963
epoch: 1000
next table: 2057
cur table: 1871
epoch: 1000
next table: 1997
cur table: 2012
epoch: 1000
next table: 1968
cur table: 1997
epoch: 1000
next table: 2018
cur table: 1968
epoch: 1000
next table: 1983
cur table: 2018
epoch: 1000
next table: 1952
cur table: 1983
epoch: 1000
next table: 3166
cur table: 2057
epoch: 1000
next table: 1964
cur table: 1952
epoch: 1000
next table: 1998
cur table: 1964
epoch: 1000
next table: 2119
cur table: 1998
epoch: 1000
next table: 1900
cur table: 3166
epoch: 1000
next table: 1970
cur table: 2119
epoch: 1000
next table: 1980
cur table: 1970
epoch: 1000
next table: 2011
cur table: 1980
epoch: 1000
next table: 1883
cur table: 1900
epoch: 1000
next table: 1988
cur table: 2011
epoch: 1000
next table: 2058
cur table: 1988
epoch: 1000
next table: 2026
cur table: 2058
epoch: 1000
next table: 2133
cur table: 1883
epoch: 1000
next table: 1968
cur table: 2026
epoch: 1000
next table: 1961
cur table: 1968
epoch: 1000
next table: 2037
cur table: 1961
epoch: 1000
next table: 1960
cur table: 2037
epoch: 1000
next table: 2376
cur table: 2133
epoch: 1000
next table: 1976
cur table: 1960
epoch: 1000
next table: 1986
cur table: 1976
epoch: 1000
next table: 2009
cur table: 1986
epoch: 1000
next table: 2233
cur table: 2376
epoch: 1000
next table: 2024
cur table: 2009
epoch: 1000
next table: 1737
cur table: 2024
epoch: 1000
next table: 1713
cur table: 2233
epoch: 1000
next table: 3255
cur table: 1737
epoch: 1000
next table: 3495
cur table: 3255
epoch: 1000
next table: 1956
cur table: 1713
epoch: 1000
next table: 1995
cur table: 3495
epoch: 1000
next table: 1864
cur table: 1956
epoch: 1000
next table: 2043
cur table: 1995
epoch: 1000
next table: 1993
cur table: 2043
epoch: 1000
next table: 1887
cur table: 1993
epoch: 1000
next table: 1789
cur table: 1864
epoch: 1000
next table: 2003
cur table: 1887
epoch: 1000
next table: 2006
cur table: 2003
epoch: 1000
next table: 1989
cur table: 2006
epoch: 1000
next table: 2008
cur table: 1989
epoch: 1000
next table: 5488
cur table: 1789
epoch: 1000
next table: 2002
cur table: 2008
epoch: 1000
next table: 1993
cur table: 2002
epoch: 1000
next table: 1997
cur table: 1993
epoch: 1000
next table: 2003
cur table: 1997
epoch: 1000
next table: 2010
cur table: 2003
epoch: 1000
next table: 5770
cur table: 5488
epoch: 1000
next table: 2008
cur table: 2010
epoch: 1000
next table: 2008
cur table: 2008
epoch: 1000
next table: 2567
cur table: 5770
epoch: 1000
next table: 2004
cur table: 2008
epoch: 1000
next table: 2823
cur table: 2567
epoch: 1000
next table: 2005
cur table: 2004
epoch: 1000
next table: 2011
cur table: 2005
epoch: 1000
next table: 2004
cur table: 2011
epoch: 1000
next table: 3090
cur table: 2823
epoch: 1000
next table: 2007
cur table: 2004
epoch: 1000
next table: 2001
cur table: 2007
epoch: 1000
next table: 3588
cur table: 3090
epoch: 1000
next table: 2016
cur table: 2001
epoch: 1000
next table: 2004
cur table: 2016
epoch: 1000
next table: 3139
cur table: 3588
epoch: 1000
next table: 2013
cur table: 2004
epoch: 1000
next table: 2003
cur table: 2013
epoch: 1000
next table: 2424
cur table: 3139
epoch: 1000
next table: 2007
cur table: 2003
epoch: 1000
next table: 2242
cur table: 2424
epoch: 1000
next table: 2012
cur table: 2007
epoch: 1000
next table: 2173
cur table: 2242
epoch: 1000
next table: 2004
cur table: 2012
epoch: 1000
next table: 2074
cur table: 2173
epoch: 1000
next table: 2007
cur table: 2004
epoch: 1000
next table: 2136
cur table: 2074
epoch: 1000
next table: 2005
cur table: 2007
epoch: 1000
next table: 2029
cur table: 2136
epoch: 1000
next table: 1990
cur table: 2005
epoch: 1000
next table: 3057
cur table: 1990
epoch: 1000
next table: 1609
cur table: 2029
epoch: 1000
next table: 3020
cur table: 3057
epoch: 1000
next table: 1139
cur table: 1609
epoch: 1000
next table: 4186
cur table: 3020
epoch: 1000
next table: 4174
cur table: 4186
epoch: 1000
next table: 1056
cur table: 1139
epoch: 1000
next table: 4135
cur table: 4174
epoch: 1000
next table: 4077
cur table: 4135
epoch: 1000
next table: 1076
cur table: 1056
epoch: 1000
next table: 4083
cur table: 4077
epoch: 1000
next table: 1051
cur table: 1076
epoch: 1000
next table: 4239
cur table: 4083
epoch: 1000
next table: 1049
cur table: 1051
epoch: 1000
next table: 4210
cur table: 4239
epoch: 1000
next table: 4052
cur table: 4210
epoch: 1000
next table: 1073
cur table: 1049
epoch: 1000
next table: 4010
cur table: 4052
epoch: 1000
next table: 4011
cur table: 4010
epoch: 1000
next table: 4032
cur table: 4011
epoch: 1000
next table: 4211
cur table: 4032
epoch: 1000
next table: 3973
cur table: 4211
epoch: 1000
next table: 4122
cur table: 3973
epoch: 1000
next table: 4209
cur table: 4122
epoch: 1000
next table: 4268
cur table: 4209
epoch: 1000
next table: 4071
cur table: 4268
epoch: 1000
next table: 3991
cur table: 4071
epoch: 1000
next table: 4173
cur table: 3991
epoch: 1000
next table: 4228
cur table: 4173
epoch: 1000
next table: 4096
cur table: 4228
epoch: 1000
next table: 4013
cur table: 4096
epoch: 1000
next table: 4175
cur table: 4013
epoch: 1000
next table: 4018
cur table: 4175
epoch: 1000
next table: 3699
cur table: 4018
epoch: 1000
next table: 1930
cur table: 3699
epoch: 1000
next table: 1978
cur table: 1930
epoch: 1000
next table: 2024
cur table: 1978
epoch: 1000
next table: 1933
cur table: 2024
epoch: 1000
next table: 1992
cur table: 1933
epoch: 1000
next table: 1954
cur table: 1992
epoch: 1000
next table: 1976
cur table: 1954
epoch: 1000
next table: 2160
cur table: 1073
epoch: 1000
next table: 1952
cur table: 1976
epoch: 1000
next table: 1964
cur table: 1952
epoch: 1000
next table: 1974
cur table: 1964
epoch: 1000
next table: 1093
cur table: 2160
epoch: 1000
next table: 1976
cur table: 1974
epoch: 1000
next table: 1960
cur table: 1976
epoch: 1000
next table: 1079
cur table: 1093
epoch: 1000
next table: 1955
cur table: 1960
Heartbeat CPU 0 instructions: 80000001 cycles: 45498512 heartbeat IPC: 1.02865 cumulative IPC: 0.986865 (Simulation time: 0 hr 42 min 24 sec) 
epoch: 1000
next table: 1971
cur table: 1955
epoch: 1000
next table: 1065
cur table: 1079
epoch: 1000
next table: 1940
cur table: 1971
epoch: 1000
next table: 2009
cur table: 1940
epoch: 1000
next table: 1955
cur table: 2009
epoch: 1000
next table: 1068
cur table: 1065
epoch: 1000
next table: 1966
cur table: 1955
epoch: 1000
next table: 1995
cur table: 1966
epoch: 1000
next table: 1073
cur table: 1068
epoch: 1000
next table: 1960
cur table: 1995
epoch: 1000
next table: 1991
cur table: 1960
epoch: 1000
next table: 1081
cur table: 1073
epoch: 1000
next table: 1939
cur table: 1991
epoch: 1000
next table: 1955
cur table: 1939
epoch: 1000
next table: 1066
cur table: 1081
epoch: 1000
next table: 1989
cur table: 1955
epoch: 1000
next table: 1953
cur table: 1989
epoch: 1000
next table: 1087
cur table: 1066
epoch: 1000
next table: 1965
cur table: 1953
epoch: 1000
next table: 1959
cur table: 1965
epoch: 1000
next table: 1939
cur table: 1959
epoch: 1000
next table: 1295
cur table: 1087
epoch: 1000
next table: 1976
cur table: 1939
epoch: 1000
next table: 1121
cur table: 1295
epoch: 1000
next table: 1991
cur table: 1976
epoch: 1000
next table: 1951
cur table: 1991
epoch: 1000
next table: 1070
cur table: 1121
epoch: 1000
next table: 1946
cur table: 1951
epoch: 1000
next table: 2009
cur table: 1946
epoch: 1000
next table: 1064
cur table: 1070
epoch: 1000
next table: 1953
cur table: 2009
epoch: 1000
next table: 1974
cur table: 1953
epoch: 1000
next table: 1059
cur table: 1064
epoch: 1000
next table: 1975
cur table: 1974
epoch: 1000
next table: 1941
cur table: 1975
epoch: 1000
next table: 1972
cur table: 1941
epoch: 1000
next table: 1111
cur table: 1059
epoch: 1000
next table: 1962
cur table: 1972
epoch: 1000
next table: 1965
cur table: 1962
epoch: 1000
next table: 1090
cur table: 1111
epoch: 1000
next table: 1995
cur table: 1965
epoch: 1000
next table: 1934
cur table: 1995
epoch: 1000
next table: 1059
cur table: 1090
epoch: 1000
next table: 1974
cur table: 1934
epoch: 1000
next table: 1991
cur table: 1974
epoch: 1000
next table: 1065
cur table: 1059
epoch: 1000
next table: 1951
cur table: 1991
epoch: 1000
next table: 1949
cur table: 1951
epoch: 1000
next table: 1065
cur table: 1065
epoch: 1000
next table: 2011
cur table: 1949
epoch: 1000
next table: 1060
cur table: 1065
epoch: 1000
next table: 1949
cur table: 2011
epoch: 1000
next table: 1979
cur table: 1949
epoch: 1000
next table: 1060
cur table: 1060
epoch: 1000
next table: 1974
cur table: 1979
epoch: 1000
next table: 1056
cur table: 1060
epoch: 1000
next table: 1941
cur table: 1974
epoch: 1000
next table: 1977
cur table: 1941
epoch: 1000
next table: 1971
cur table: 1977
epoch: 1000
next table: 1820
cur table: 1971
epoch: 1000
next table: 1416
cur table: 1056
epoch: 1000
next table: 2532
cur table: 1820
epoch: 1000
next table: 3260
cur table: 2532
epoch: 1000
next table: 3089
cur table: 3260
epoch: 1000
next table: 3078
cur table: 3089
epoch: 1000
next table: 3161
cur table: 3078
epoch: 1000
next table: 1321
cur table: 1416
epoch: 1000
next table: 3182
cur table: 3161
epoch: 1000
next table: 3192
cur table: 3182
epoch: 1000
next table: 3111
cur table: 3192
epoch: 1000
next table: 1141
cur table: 1321
epoch: 1000
next table: 3247
cur table: 3111
epoch: 1000
next table: 3043
cur table: 3247
epoch: 1000
next table: 1083
cur table: 1141
epoch: 1000
next table: 3196
cur table: 3043
epoch: 1000
next table: 3260
cur table: 3196
epoch: 1000
next table: 1102
cur table: 1083
epoch: 1000
next table: 3177
cur table: 3260
epoch: 1000
next table: 1135
cur table: 1102
epoch: 1000
next table: 3116
cur table: 3177
epoch: 1000
next table: 3103
cur table: 3116
epoch: 1000
next table: 1069
cur table: 1135
epoch: 1000
next table: 3121
cur table: 3103
epoch: 1000
next table: 1068
cur table: 1069
epoch: 1000
next table: 3154
cur table: 3121
epoch: 1000
next table: 1063
cur table: 1068
epoch: 1000
next table: 3223
cur table: 3154
epoch: 1000
next table: 1048
cur table: 1063
epoch: 1000
next table: 3183
cur table: 3223
epoch: 1000
next table: 3119
cur table: 3183
epoch: 1000
next table: 1105
cur table: 1048
epoch: 1000
next table: 3094
cur table: 3119
epoch: 1000
next table: 3252
cur table: 3094
epoch: 1000
next table: 1104
cur table: 1105
Heartbeat CPU 0 instructions: 90000000 cycles: 56472016 heartbeat IPC: 0.911286 cumulative IPC: 0.966818 (Simulation time: 0 hr 47 min 12 sec) 
epoch: 1000
next table: 3044
cur table: 3252
epoch: 1000
next table: 1080
cur table: 1104
epoch: 1000
next table: 3250
cur table: 3044
epoch: 1000
next table: 3202
cur table: 3250
epoch: 1000
next table: 1064
cur table: 1080
epoch: 1000
next table: 3099
cur table: 3202
epoch: 1000
next table: 1077
cur table: 1064
epoch: 1000
next table: 3205
cur table: 3099
epoch: 1000
next table: 3175
cur table: 3205
epoch: 1000
next table: 1130
cur table: 1077
epoch: 1000
next table: 2016
cur table: 3175
epoch: 1000
next table: 2019
cur table: 2016
epoch: 1000
next table: 2008
cur table: 2019
epoch: 1000
next table: 4601
cur table: 1130
epoch: 1000
next table: 2013
cur table: 2008
epoch: 1000
next table: 2002
cur table: 2013
epoch: 1000
next table: 1995
cur table: 2002
epoch: 1000
next table: 2011
cur table: 1995
epoch: 1000
next table: 1993
cur table: 2011
epoch: 1000
next table: 1963
cur table: 1993
epoch: 1000
next table: 5804
cur table: 4601
epoch: 1000
next table: 1998
cur table: 1963
epoch: 1000
next table: 2066
cur table: 1998
epoch: 1000
next table: 1989
cur table: 2066
epoch: 1000
next table: 1976
cur table: 1989
epoch: 1000
next table: 1963
cur table: 1976
epoch: 1000
next table: 2012
cur table: 1963
epoch: 1000
next table: 2029
cur table: 2012
epoch: 1000
next table: 4274
cur table: 5804
epoch: 1000
next table: 1972
cur table: 2029
epoch: 1000
next table: 2008
cur table: 1972
epoch: 1000
next table: 1955
cur table: 2008
epoch: 1000
next table: 1983
cur table: 1955
epoch: 1000
next table: 2007
cur table: 1983
epoch: 1000
next table: 1975
cur table: 2007
epoch: 1000
next table: 2008
cur table: 1975
epoch: 1000
next table: 4400
cur table: 4274
epoch: 1000
next table: 1927
cur table: 2008
epoch: 1000
next table: 1981
cur table: 1927
epoch: 1000
next table: 1070
cur table: 4400
epoch: 1000
next table: 1931
cur table: 1981
epoch: 1000
next table: 1994
cur table: 1931
epoch: 1000
next table: 1069
cur table: 1070
epoch: 1000
next table: 1983
cur table: 1994
epoch: 1000
next table: 1943
cur table: 1983
epoch: 1000
next table: 1071
cur table: 1069
epoch: 1000
next table: 1986
cur table: 1943
epoch: 1000
next table: 1933
cur table: 1986
epoch: 1000
next table: 1096
cur table: 1071
epoch: 1000
next table: 1984
cur table: 1933
epoch: 1000
next table: 1986
cur table: 1984
epoch: 1000
next table: 1065
cur table: 1096
epoch: 1000
next table: 1933
cur table: 1986
epoch: 1000
next table: 1990
cur table: 1933
epoch: 1000
next table: 1076
cur table: 1065
epoch: 1000
next table: 1986
cur table: 1990
epoch: 1000
next table: 1946
cur table: 1986
epoch: 1000
next table: 1069
cur table: 1076
epoch: 1000
next table: 1974
cur table: 1946
epoch: 1000
next table: 1987
cur table: 1974
epoch: 1000
next table: 1106
cur table: 1069
epoch: 1000
next table: 1947
cur table: 1987
epoch: 1000
next table: 2047
cur table: 1947
epoch: 1000
next table: 2020
cur table: 2047
epoch: 1000
next table: 1836
cur table: 1106
epoch: 1000
next table: 1973
cur table: 2020
epoch: 1000
next table: 1959
cur table: 1973
epoch: 1000
next table: 2012
cur table: 1959
epoch: 1000
next table: 2151
cur table: 1836
epoch: 1000
next table: 1971
cur table: 2012
epoch: 1000
next table: 1986
cur table: 1971
epoch: 1000
next table: 1962
cur table: 1986
epoch: 1000
next table: 1928
cur table: 2151
epoch: 1000
next table: 2071
cur table: 1962
epoch: 1000
next table: 1965
cur table: 2071
epoch: 1000
next table: 1973
cur table: 1965
epoch: 1000
next table: 2242
cur table: 1928
epoch: 1000
next table: 2022
cur table: 1973
epoch: 1000
next table: 1961
cur table: 2022
epoch: 1000
next table: 2015
cur table: 1961
epoch: 1000
next table: 1835
cur table: 2242
epoch: 1000
next table: 1983
cur table: 2015
epoch: 1000
next table: 1966
cur table: 1983
epoch: 1000
next table: 2003
cur table: 1835
epoch: 1000
next table: 2006
cur table: 1966
epoch: 1000
next table: 1972
cur table: 2006
epoch: 1000
next table: 1986
cur table: 1972
epoch: 1000
next table: 1911
cur table: 2003
epoch: 1000
next table: 2020
cur table: 1986
epoch: 1000
next table: 1969
cur table: 2020
epoch: 1000
next table: 1969
cur table: 1969
epoch: 1000
next table: 2247
cur table: 1911
epoch: 1000
next table: 1996
cur table: 1969
epoch: 1000
next table: 1992
cur table: 1996
epoch: 1000
next table: 1979
cur table: 1992
epoch: 1000
next table: 1990
cur table: 1979
epoch: 1000
next table: 2199
cur table: 2247
epoch: 1000
next table: 2083
cur table: 1990
epoch: 1000
next table: 1746
cur table: 2083
epoch: 1000
next table: 1755
cur table: 2199
epoch: 1000
next table: 2556
cur table: 1746
epoch: 1000
next table: 1860
cur table: 1755
epoch: 1000
next table: 2756
cur table: 2556
epoch: 1000
next table: 2599
cur table: 2756
epoch: 1000
next table: 2066
cur table: 2599
epoch: 1000
next table: 2228
cur table: 1860
epoch: 1000
next table: 1948
cur table: 2066
epoch: 1000
next table: 1879
cur table: 1948
epoch: 1000
next table: 1808
cur table: 2228
epoch: 1000
next table: 1993
cur table: 1879
epoch: 1000
next table: 1998
cur table: 1993
epoch: 1000
next table: 2682
cur table: 1808
epoch: 1000
next table: 2005
cur table: 1998
epoch: 1000
next table: 1987
cur table: 2005
epoch: 1000
next table: 2008
cur table: 1987
epoch: 1000
next table: 1998
cur table: 2008
epoch: 1000
next table: 1997
cur table: 1998
epoch: 1000
next table: 5515
cur table: 2682
epoch: 1000
next table: 2003
cur table: 1997
epoch: 1000
next table: 2006
cur table: 2003
epoch: 1000
next table: 1997
cur table: 2006
epoch: 1000
next table: 4121
cur table: 5515
epoch: 1000
next table: 2011
cur table: 1997
epoch: 1000
next table: 2656
cur table: 4121
epoch: 1000
next table: 2002
cur table: 2011
epoch: 1000
next table: 2004
cur table: 2002
epoch: 1000
next table: 2011
cur table: 2004
epoch: 1000
next table: 3179
cur table: 2656
epoch: 1000
next table: 2005
cur table: 2011
epoch: 1000
next table: 2003
cur table: 2005
epoch: 1000
next table: 3462
cur table: 3179
epoch: 1000
next table: 2011
cur table: 2003
epoch: 1000
next table: 2001
cur table: 2011
epoch: 1000
next table: 3341
cur table: 3462
epoch: 1000
next table: 2022
cur table: 2001
epoch: 1000
next table: 1995
cur table: 2022
epoch: 1000
next table: 2838
cur table: 3341
epoch: 1000
next table: 2011
cur table: 1995
epoch: 1000
next table: 2246
cur table: 2838
epoch: 1000
next table: 2011
cur table: 2011
epoch: 1000
next table: 2008
cur table: 2011
epoch: 1000
next table: 2169
cur table: 2246
epoch: 1000
next table: 1999
cur table: 2008
epoch: 1000
next table: 2183
cur table: 2169
epoch: 1000
next table: 2005
cur table: 1999
epoch: 1000
next table: 2093
cur table: 2183
epoch: 1000
next table: 2011
cur table: 2005
epoch: 1000
next table: 2094
cur table: 2093
epoch: 1000
next table: 2003
cur table: 2011
epoch: 1000
next table: 2023
cur table: 2094
epoch: 1000
next table: 2242
cur table: 2003
epoch: 1000
next table: 1482
cur table: 2023
epoch: 1000
next table: 2245
cur table: 2242
epoch: 1000
next table: 1136
cur table: 1482
epoch: 1000
next table: 3723
cur table: 2245
epoch: 1000
next table: 4098
cur table: 3723
epoch: 1000
next table: 1044
cur table: 1136
epoch: 1000
next table: 4227
cur table: 4098
epoch: 1000
next table: 4253
cur table: 4227
epoch: 1000
next table: 3849
cur table: 4253
epoch: 1000
next table: 4193
cur table: 3849
epoch: 1000
next table: 4207
cur table: 4193
epoch: 1000
next table: 4011
cur table: 4207
epoch: 1000
next table: 4232
cur table: 4011
epoch: 1000
next table: 3983
cur table: 4232
epoch: 1000
next table: 4053
cur table: 3983
epoch: 1000
next table: 4248
cur table: 4053
epoch: 1000
next table: 4199
cur table: 4248
epoch: 1000
next table: 4072
cur table: 4199
epoch: 1000
next table: 4007
cur table: 4072
epoch: 1000
next table: 4191
cur table: 4007
epoch: 1000
next table: 4235
cur table: 4191
epoch: 1000
next table: 3990
cur table: 4235
epoch: 1000
next table: 4084
cur table: 3990
epoch: 1000
next table: 4209
cur table: 4084
epoch: 1000
next table: 4259
cur table: 4209
epoch: 1000
next table: 4028
cur table: 4259
epoch: 1000
next table: 4028
cur table: 4028
epoch: 1000
next table: 4214
cur table: 4028
epoch: 1000
next table: 4280
cur table: 4214
epoch: 1000
next table: 2357
cur table: 4280
epoch: 1000
next table: 1980
cur table: 2357
epoch: 1000
next table: 2023
cur table: 1980
epoch: 1000
next table: 1914
cur table: 2023
epoch: 1000
next table: 1993
cur table: 1914
epoch: 1000
next table: 1980
cur table: 1993
epoch: 1000
next table: 1931
cur table: 1980
epoch: 1000
next table: 2331
cur table: 1044
epoch: 1000
next table: 1976
cur table: 1931
epoch: 1000
next table: 1050
cur table: 2331
epoch: 1000
next table: 1985
cur table: 1976
epoch: 1000
next table: 1974
cur table: 1985
Heartbeat CPU 0 instructions: 100000000 cycles: 66402360 heartbeat IPC: 1.00701 cumulative IPC: 0.974599 (Simulation time: 0 hr 52 min 41 sec) 
Finished CPU 0 instructions: 50000003 cycles: 51303173 cumulative IPC: 0.974599 (Simulation time: 0 hr 52 min 41 sec) 

ChampSim completed all CPUs

Region of Interest Statistics

CPU 0 cumulative IPC: 0.974599 instructions: 50000003 cycles: 51303173
ITLB TOTAL     ACCESS:    6682387  HIT:    6682386  MISS:          1  HIT %:        100  MISS %: 1.49647e-05   MPKI: 2e-05
ITLB LOAD TRANSLATION ACCESS:    6682387  HIT:    6682386  MISS:          1  HIT %:        100  MISS %: 1.49647e-05   MPKI: 2e-05
ITLB PREFETCH  REQUESTED:          0  ISSUED:          0  USEFUL:          0  USELESS:          0
ITLB USEFUL LOAD PREFETCHES:          0 PREFETCH ISSUED TO LOWER LEVEL:          0  ACCURACY: -nan
ITLB TIMELY PREFETCHES:          0 LATE PREFETCHES: 0 DROPPED PREFETCHES: 0
ITLB PREFETCHES SAME FILL-ORIGIN LEVEL: 0 DIFFERENT FILL-ORIGIN LEVEL: 0
ITLB AVERAGE MISS LATENCY: 320 cycles
ITLB RQ	ACCESS:    7939468	FORWARD:          0	MERGED:    1257080	TO_CACHE:    6682388

Revised Interactions: positive negative neutral
ITLB_interactions 0 0 0 -nan -nan -nan
DTLB TOTAL     ACCESS:   12233927  HIT:   12207021  MISS:      26906  HIT %:    99.7801  MISS %:   0.219929   MPKI: 0.53812
DTLB LOAD TRANSLATION ACCESS:   12233927  HIT:   12207021  MISS:      26906  HIT %:    99.7801  MISS %:   0.219929   MPKI: 0.53812
DTLB PREFETCH  REQUESTED:          0  ISSUED:          0  USEFUL:          0  USELESS:          0
DTLB USEFUL LOAD PREFETCHES:          0 PREFETCH ISSUED TO LOWER LEVEL:          0  ACCURACY: -nan
DTLB TIMELY PREFETCHES:          0 LATE PREFETCHES: 0 DROPPED PREFETCHES: 0
DTLB PREFETCHES SAME FILL-ORIGIN LEVEL: 0 DIFFERENT FILL-ORIGIN LEVEL: 0
DTLB AVERAGE MISS LATENCY: 21.3419 cycles
DTLB RQ	ACCESS:   13703793	FORWARD:          0	MERGED:    1462386	TO_CACHE:   12241407

Revised Interactions: positive negative neutral
DTLB_interactions 0 0 0 -nan -nan -nan
STLB TOTAL     ACCESS:      26907  HIT:      24171  MISS:       2736  HIT %:    89.8316  MISS %:    10.1684   MPKI: 0.05472
STLB LOAD TRANSLATION ACCESS:      26907  HIT:      24171  MISS:       2736  HIT %:    89.8316  MISS %:    10.1684   MPKI: 0.05472
STLB PREFETCH  REQUESTED:          0  ISSUED:          0  USEFUL:          0  USELESS:          0
STLB USEFUL LOAD PREFETCHES:          0 PREFETCH ISSUED TO LOWER LEVEL:          0  ACCURACY: -nan
STLB TIMELY PREFETCHES:          0 LATE PREFETCHES: 0 DROPPED PREFETCHES: 0
STLB PREFETCHES SAME FILL-ORIGIN LEVEL: 0 DIFFERENT FILL-ORIGIN LEVEL: 0
STLB AVERAGE MISS LATENCY: 119.857 cycles
STLB RQ	ACCESS:      26907	FORWARD:          0	MERGED:          0	TO_CACHE:      26907

Revised Interactions: positive negative neutral
STLB_interactions 0 0 0 -nan -nan -nan
STLB Hit, L1D data hit: 0
STLB Hit, L2C data hit: 0
STLB Hit, LLC data hit: 0
STLB Hit, LLC data miss: 0
STLB STLB hints to L2: 0
L1D TOTAL     ACCESS:   13191292  HIT:   12447227  MISS:     744065  HIT %:    94.3594  MISS %:    5.64058   MPKI: 14.8813
L1D LOAD      ACCESS:   11444126  HIT:   10853507  MISS:     590619  HIT %:    94.8391  MISS %:    5.16089   MPKI: 11.8124
L1D RFO       ACCESS:    1747166  HIT:    1593720  MISS:     153446  HIT %:    91.2174  MISS %:    8.78257   MPKI: 3.06892
L1D PREFETCH  REQUESTED:          0  ISSUED:          0  USEFUL:          0  USELESS:          0
L1D USEFUL LOAD PREFETCHES:          0 PREFETCH ISSUED TO LOWER LEVEL:          0  ACCURACY: -nan
L1D TIMELY PREFETCHES:          0 LATE PREFETCHES: 0 DROPPED PREFETCHES: 0
L1D PREFETCHES SAME FILL-ORIGIN LEVEL: 0 DIFFERENT FILL-ORIGIN LEVEL: 0
L1D AVERAGE MISS LATENCY: 67.3359 cycles
L1D RQ	ACCESS:   16588237	FORWARD:          0	MERGED:    5065649	TO_CACHE:   11517068
L1D WQ	ACCESS:    2196131	FORWARD:       5520	MERGED:       9406	TO_CACHE:    2186725

Revised Interactions: positive negative neutral
L1D_interactions 0 0 0 -nan -nan -nan
L1D UNIQUE REGIONS ACCESSED: 0
L1D REGIONS CONFLICTS: 0
L1D Cross Page Prefetch Requests: 0
L1D Same Page Prefetch Requests: 0
L1D ROI Sum of L1D PQ occupancy: 0
L1D PREFETCHES PUSHED FROM L2C: 0
L1I TOTAL     ACCESS:    7938788  HIT:    7937521  MISS:       1267  HIT %:     99.984  MISS %:  0.0159596   MPKI: 0.02534
L1I LOAD      ACCESS:    7938788  HIT:    7937521  MISS:       1267  HIT %:     99.984  MISS %:  0.0159596   MPKI: 0.02534
L1I PREFETCH  REQUESTED:          0  ISSUED:          0  USEFUL:          0  USELESS:          0
L1I USEFUL LOAD PREFETCHES:          0 PREFETCH ISSUED TO LOWER LEVEL:          0  ACCURACY: -nan
L1I TIMELY PREFETCHES:          0 LATE PREFETCHES: 0 DROPPED PREFETCHES: 0
L1I PREFETCHES SAME FILL-ORIGIN LEVEL: 0 DIFFERENT FILL-ORIGIN LEVEL: 0
L1I AVERAGE MISS LATENCY: 222.429 cycles
L1I RQ	ACCESS:   12278104	FORWARD:          0	MERGED:    4338636	TO_CACHE:    7939468

Revised Interactions: positive negative neutral
L1I_interactions 0 0 0 -nan -nan -nan
BTB TOTAL     ACCESS:    1597075  HIT:    1596661  MISS:        414  HIT %:    99.9741  MISS %:  0.0259224   MPKI: 0.00828
BTB BRANCH_DIRECT_JUMP	ACCESS:      17950  HIT:      17907  MISS:         43
BTB BRANCH_INDIRECT	ACCESS:          5  HIT:          3  MISS:          2
BTB BRANCH_CONDITIONAL	ACCESS:    1541595  HIT:    1541413  MISS:        182
BTB BRANCH_DIRECT_CALL	ACCESS:      18763  HIT:      18710  MISS:         53
BTB BRANCH_INDIRECT_CALL	ACCESS:          0  HIT:          0  MISS:          0
BTB BRANCH_RETURN	ACCESS:      18762  HIT:      18628  MISS:        134
BTB BRANCH_OTHER ACCESS:          0  HIT:          0  MISS:          0

L2C TOTAL     ACCESS:    1424302  HIT:     889701  MISS:     534601  HIT %:    62.4658  MISS %:    37.5342   MPKI: 10.692
L2C LOAD      ACCESS:     591879  HIT:     564007  MISS:      27872  HIT %:    95.2909  MISS %:    4.70907   MPKI: 0.55744
L2C DATA LOAD MPKI: 0.5321
L2C INSTRUCTION LOAD MPKI: 0.02534
L2C RFO       ACCESS:     153446  HIT:      11109  MISS:     142337  HIT %:    7.23968  MISS %:    92.7603   MPKI: 2.84674
L2C PREFETCH  ACCESS:     380463  HIT:      19185  MISS:     361278  HIT %:    5.04254  MISS %:    94.9575   MPKI: 7.22556
L2C DATA PREFETCH MPKI: 7.22556
L2C INSTRUCTION PREFETCH MPKI: 0
L2C WRITEBACK ACCESS:     295777  HIT:     293212  MISS:       2565  HIT %:    99.1328  MISS %:   0.867207   MPKI: 0.0513
L2C LOAD TRANSLATION ACCESS:       2737  HIT:       2188  MISS:        549  HIT %:    79.9415  MISS %:    20.0585   MPKI: 0.01098
L2C PREFETCH  REQUESTED:     385551  ISSUED:     385551  USEFUL:     343615  USELESS:      17627
L2C USEFUL LOAD PREFETCHES:     343615 PREFETCH ISSUED TO LOWER LEVEL:     365789  ACCURACY: 93.938
L2C TIMELY PREFETCHES:     343615 LATE PREFETCHES: 4511 DROPPED PREFETCHES: 0
L2C PREFETCHES SAME FILL-ORIGIN LEVEL: 365789 DIFFERENT FILL-ORIGIN LEVEL: 0
L2C AVERAGE MISS LATENCY: 186.797 cycles
L2C RQ	ACCESS:     748068	FORWARD:          0	MERGED:          0	TO_CACHE:     748061
L2C WQ	ACCESS:     295777	FORWARD:          7	MERGED:          0	TO_CACHE:     295777
L2C PQ	ACCESS:     385551	FORWARD:          0	MERGED:          0	TO_CACHE:     385551

Revised Interactions: positive negative neutral
L2C_interactions 340016 19627 5829 93.0348 5.37032 1.59492
L2C Instructions Evicting Data 1267
L2C Translations Evicting Data 549
L2C Data Evicting Data 528411
L2C Instructions Evicting Instructions 0
L2C Translations Evicting Instructions 0
L2C Data Evicting Instructions 1265
L2C Instructions Evicting Translations 0
L2C Translations Evicting Translations 0
L2C Data Evicting Translations 544
L2C Dense regions hint from L2: 0
PSCL5 TOTAL     ACCESS:       2736  HIT:       2736  MISS:          0  HIT %:        100  MISS %:          0   MPKI: 0
PSCL5 LOAD TRANSLATION ACCESS:       2736  HIT:       2736  MISS:          0  HIT %:        100  MISS %:          0   MPKI: 0
PSCL5 PREFETCH  REQUESTED:          0  ISSUED:          0  USEFUL:          0  USELESS:          0
PSCL5 USEFUL LOAD PREFETCHES:          0 PREFETCH ISSUED TO LOWER LEVEL:          0  ACCURACY: -nan
PSCL5 TIMELY PREFETCHES:          0 LATE PREFETCHES: 0 DROPPED PREFETCHES: 0
PSCL5 PREFETCHES SAME FILL-ORIGIN LEVEL: 0 DIFFERENT FILL-ORIGIN LEVEL: 0

Revised Interactions: positive negative neutral
PSCL5_interactions 0 0 0 -nan -nan -nan
PSCL4 TOTAL     ACCESS:       2736  HIT:       2736  MISS:          0  HIT %:        100  MISS %:          0   MPKI: 0
PSCL4 LOAD TRANSLATION ACCESS:       2736  HIT:       2736  MISS:          0  HIT %:        100  MISS %:          0   MPKI: 0
PSCL4 PREFETCH  REQUESTED:          0  ISSUED:          0  USEFUL:          0  USELESS:          0
PSCL4 USEFUL LOAD PREFETCHES:          0 PREFETCH ISSUED TO LOWER LEVEL:          0  ACCURACY: -nan
PSCL4 TIMELY PREFETCHES:          0 LATE PREFETCHES: 0 DROPPED PREFETCHES: 0
PSCL4 PREFETCHES SAME FILL-ORIGIN LEVEL: 0 DIFFERENT FILL-ORIGIN LEVEL: 0

Revised Interactions: positive negative neutral
PSCL4_interactions 0 0 0 -nan -nan -nan
PSCL3 TOTAL     ACCESS:       2736  HIT:       2736  MISS:          0  HIT %:        100  MISS %:          0   MPKI: 0
PSCL3 LOAD TRANSLATION ACCESS:       2736  HIT:       2736  MISS:          0  HIT %:        100  MISS %:          0   MPKI: 0
PSCL3 PREFETCH  REQUESTED:          0  ISSUED:          0  USEFUL:          0  USELESS:          0
PSCL3 USEFUL LOAD PREFETCHES:          0 PREFETCH ISSUED TO LOWER LEVEL:          0  ACCURACY: -nan
PSCL3 TIMELY PREFETCHES:          0 LATE PREFETCHES: 0 DROPPED PREFETCHES: 0
PSCL3 PREFETCHES SAME FILL-ORIGIN LEVEL: 0 DIFFERENT FILL-ORIGIN LEVEL: 0

Revised Interactions: positive negative neutral
PSCL3_interactions 0 0 0 -nan -nan -nan
PSCL2 TOTAL     ACCESS:       2736  HIT:       2734  MISS:          2  HIT %:    99.9269  MISS %:  0.0730994   MPKI: 4e-05
PSCL2 LOAD TRANSLATION ACCESS:       2736  HIT:       2734  MISS:          2  HIT %:    99.9269  MISS %:  0.0730994   MPKI: 4e-05
PSCL2 PREFETCH  REQUESTED:          0  ISSUED:          0  USEFUL:          0  USELESS:          0
PSCL2 USEFUL LOAD PREFETCHES:          0 PREFETCH ISSUED TO LOWER LEVEL:          0  ACCURACY: -nan
PSCL2 TIMELY PREFETCHES:          0 LATE PREFETCHES: 0 DROPPED PREFETCHES: 0
PSCL2 PREFETCHES SAME FILL-ORIGIN LEVEL: 0 DIFFERENT FILL-ORIGIN LEVEL: 0

Revised Interactions: positive negative neutral
PSCL2_interactions 0 0 0 -nan -nan -nan
LLC TOTAL     ACCESS:     804061  HIT:     335561  MISS:     468500  HIT %:    41.7333  MISS %:    58.2667   MPKI: 9.37
LLC LOAD      ACCESS:      23360  HIT:       9263  MISS:      14097  HIT %:    39.6533  MISS %:    60.3467   MPKI: 0.28194
LLC RFO       ACCESS:     142337  HIT:      45618  MISS:      96719  HIT %:    32.0493  MISS %:    67.9507   MPKI: 1.93438
LLC PREFETCH  ACCESS:     365789  HIT:     124524  MISS:     241265  HIT %:    34.0426  MISS %:    65.9574   MPKI: 4.8253
LLC WRITEBACK ACCESS:     272026  HIT:     156112  MISS:     115914  HIT %:    57.3886  MISS %:    42.6114   MPKI: 2.31828
LLC LOAD TRANSLATION ACCESS:        549  HIT:         44  MISS:        505  HIT %:    8.01457  MISS %:    91.9854   MPKI: 0.0101
LLC PREFETCH  REQUESTED:          0  ISSUED:          0  USEFUL:       3794  USELESS:     117884
LLC USEFUL LOAD PREFETCHES:       3794 PREFETCH ISSUED TO LOWER LEVEL:     241265  ACCURACY: 1.57254
LLC TIMELY PREFETCHES:       3794 LATE PREFETCHES: 0 DROPPED PREFETCHES: 0
LLC PREFETCHES SAME FILL-ORIGIN LEVEL: 0 DIFFERENT FILL-ORIGIN LEVEL: 0
LLC AVERAGE MISS LATENCY: 180.159 cycles
LLC RQ	ACCESS:     166246	FORWARD:          0	MERGED:          0	TO_CACHE:     166245
LLC WQ	ACCESS:     272026	FORWARD:          1	MERGED:          0	TO_CACHE:     272026
LLC PQ	ACCESS:     365789	FORWARD:          0	MERGED:          0	TO_CACHE:     365789

Revised Interactions: positive negative neutral
LLC_interactions 614 128660 7899 0.44761 93.794 5.75842
LLC Dense regions hint to LLC: 0

RAW hits: 26452
Loads Generated: 16614686
Loads sent to L1D: 16588237
Stores Generated: 2196123
Stores sent to L1D: 2196131
Major fault: 0 Minor fault: 6093
Allocated PAGES: 6093
[Bingo] PHT Access: 18391
[Bingo] PHT Hit PC+Addr: 1699
[Bingo] PHT Hit PC+Offs: 14974
[Bingo] PHT Miss: 1718
[Bingo] Prefetch PC+Addr: 0
[Bingo] Prefetch PC+Offs: 0
[Bingo] Useful PC+Addr: 0
[Bingo] Useful PC+Offs: 0
[Bingo] Useless PC+Addr: 0
[Bingo] Useless PC+Offs: 0
[Bingo] L1 Prefetch per Region: 0
[Bingo] L2 Prefetch per Region: 24.3022
[Bingo] L3 Prefetch per Region: 0
[Bingo] No Prefetch per Region: 7.69777
[Bingo] Number of Voters Mean: 13.5411
[Bingo] Number of Voters SD: 18.209
PHT read accesses: 254434
PHT write accesses: 15671
AT read accesses: 582298
AT write accesses: 587674
FT read accesses: 48797
FT write accesses: 18391
PS read accesses: 48640
PS write accesses: 16673
PHT tag read accesses: 745773
PHT tag write accesses: 17370
AT tag read accesses: 18674742
AT tag write accesses: 597963
FT tag read accesses: 9712642
FT tag write accesses: 51312
PS tag read accesses: 10036233
PS tag write accesses: 64830

DRAM Statistics
 CHANNEL 0
 RQ ROW_BUFFER_HIT:     186897  ROW_BUFFER_MISS:     165659
 DBUS_CONGESTED:         94
 WQ ROW_BUFFER_HIT:      45122  ROW_BUFFER_MISS:     118281  FULL:       8046

 AVG_CONGESTED_CYCLE: 4
 All warmup complete: 2
Channel 0 Bank busy for read cycles: 0
Channel 0 Bank busy for write cycles: 0
Channel 0
Rank 0
0banks busy for read cycles: 38841754
0banks busy for write cycles: 10891
1banks busy for read cycles: 1876436
1banks busy for write cycles: 973050
2banks busy for read cycles: 1111041
2banks busy for write cycles: 453813
3banks busy for read cycles: 482795
3banks busy for write cycles: 301618
4banks busy for read cycles: 349374
4banks busy for write cycles: 222923
5banks busy for read cycles: 330317
5banks busy for write cycles: 185231
6banks busy for read cycles: 383328
6banks busy for write cycles: 191541
7banks busy for read cycles: 701718
7banks busy for write cycles: 368354
8banks busy for read cycles: 2418000
8banks busy for write cycles: 2100990

CPU 0 Branch Prediction Accuracy: 95.8318% MPKI: 1.46072 Average ROB Occupancy at Mispredict: 43.1748
Branch types
NOT_BRANCH: 48247436 96.4949%
BRANCH_DIRECT_JUMP: 17950 0.0359%
BRANCH_INDIRECT: 5 1e-05%
BRANCH_CONDITIONAL: 1696758 3.39352%
BRANCH_DIRECT_CALL: 18763 0.037526%
BRANCH_INDIRECT_CALL: 0 0%
BRANCH_RETURN: 18762 0.037524%
BRANCH_OTHER: 0 0%

@sumon_overall_L1D         0         0         0         0         0         0         0
@Sumon_Early_by_class_L1D         0         0         0         0
@Sumon_Late_by_class_L1D         0         0         0         0

@Sumon_Early_by_cycle_L1D         0         0         0         0         0         0         0         0         0         0         0         0
@Sumon_Late_by_cycle_L1D         0         0         0         0         0         0
@Sumon_Early_stream_L1D         0         0         0         0         0         0         0         0         0         0         0         0
@Sumon_Early_CS_L1D         0         0         0         0         0         0         0         0         0         0         0         0
@Sumon_Early_CPLX_L1D         0         0         0         0         0         0         0         0         0         0         0         0
@Sumon_Late_stream_L1D         0         0         0         0         0         0
@Sumon_Late_CS_L1D         0         0         0         0         0         0
@Sumon_Late_CPLX_L1D         0         0         0         0         0         0
@sumon_overall_L2C    343615      4511         0     17627    361278    385551    385551
@Sumon_Early_by_class_L2C         0         0         0         0
@Sumon_Late_by_class_L2C         0         0         0         0

@Sumon_Early_by_cycle_L2C      7158     12909     23245     20729     22259     90630     41916     58514     50449      4943      7880      2983
@Sumon_Late_by_cycle_L2C       427       358       425       783      2326       192
@Sumon_Early_stream_L2C         0         0         0         0         0         0         0         0         0         0         0         0
@Sumon_Early_CS_L2C         0         0         0         0         0         0         0         0         0         0         0         0
@Sumon_Early_CPLX_L2C         0         0         0         0         0         0         0         0         0         0         0         0
@Sumon_Late_stream_L2C         0         0         0         0         0         0
@Sumon_Late_CS_L2C         0         0         0         0         0         0
@Sumon_Late_CPLX_L2C         0         0         0         0         0         0
DRAM PAGES: 1048576
Allocated PAGES: 6093
