
*** ChampSim Multicore Out-of-Order Simulator ***

Warmup Instructions: 50000000
Simulation Instructions: 50000000
Number of CPUs: 1
LLC sets: 2048
LLC ways: 16
Off-chip DRAM Size: 4096 MB Channels: 1 Width: 64-bit Data Rate: 6400 MT/s
CPU 0 runs ../../biswa/SPEC2017Traces/649.fotonik3d_s-10881B.champsimtrace.xz
.xz
CPU 0 Bimodal branch predictor
BTB has LRU replacement policy
ITLB has LRU replacement policy
DTLB has LRU replacement policy
STLB has LRU replacement policy
L1I has LRU replacement policy
L1D has LRU replacement policy
Bingo PHT WAYS: 16 and PHT_SIZE: 16384
Initialize DRRIP state for L2C
epoch: 1000
next table: 2576
cur table: 9086
epoch: 1000
next table: 2331
cur table: 2576
epoch: 1000
next table: 2156
cur table: 2331
epoch: 1000
next table: 2016
cur table: 2156
epoch: 1000
next table: 2020
cur table: 2016
epoch: 1000
next table: 2034
cur table: 2020
epoch: 1000
next table: 1999
cur table: 2034
epoch: 1000
next table: 2017
cur table: 1999
epoch: 1000
next table: 2037
cur table: 2017
epoch: 1000
next table: 1956
cur table: 2037
epoch: 1000
next table: 1995
cur table: 1956
epoch: 1000
next table: 1988
cur table: 1995
epoch: 1000
next table: 2023
cur table: 1988
epoch: 1000
next table: 2058
cur table: 2023
epoch: 1000
next table: 1968
cur table: 2058
epoch: 1000
next table: 1956
cur table: 1968
epoch: 1000
next table: 1958
cur table: 1956
epoch: 1000
next table: 2052
cur table: 1958
epoch: 1000
next table: 2016
cur table: 2052
epoch: 1000
next table: 2016
cur table: 2016
epoch: 1000
next table: 1991
cur table: 2016
epoch: 1000
next table: 1990
cur table: 1991
epoch: 1000
next table: 2007
cur table: 1990
epoch: 1000
next table: 2040
cur table: 11648
epoch: 1000
next table: 2020
cur table: 2007
epoch: 1000
next table: 1961
cur table: 2020
epoch: 1000
next table: 1782
cur table: 2040
epoch: 1000
next table: 1959
cur table: 1961
epoch: 1000
next table: 2012
cur table: 1959
epoch: 1000
next table: 1658
cur table: 1782
epoch: 1000
next table: 2041
cur table: 2012
epoch: 1000
next table: 2060
cur table: 2041
epoch: 1000
next table: 1564
cur table: 1658
epoch: 1000
next table: 1986
cur table: 2060
epoch: 1000
next table: 1547
cur table: 1564
epoch: 1000
next table: 1947
cur table: 1986
epoch: 1000
next table: 1993
cur table: 1947
epoch: 1000
next table: 1481
cur table: 1547
epoch: 1000
next table: 2048
cur table: 1993
epoch: 1000
next table: 1487
cur table: 1481
epoch: 1000
next table: 2046
cur table: 2048
epoch: 1000
next table: 1982
cur table: 2046
epoch: 1000
next table: 1501
cur table: 1487
epoch: 1000
next table: 1966
cur table: 1982
epoch: 1000
next table: 1462
cur table: 1501
epoch: 1000
next table: 1987
cur table: 1966
epoch: 1000
next table: 1483
cur table: 1462
epoch: 1000
next table: 2020
cur table: 1987
epoch: 1000
next table: 2029
cur table: 2020
epoch: 1000
next table: 1435
cur table: 1483
epoch: 1000
next table: 1966
cur table: 2029
epoch: 1000
next table: 1469
cur table: 1435
epoch: 1000
next table: 1985
cur table: 1966
epoch: 1000
next table: 1416
cur table: 1469
epoch: 1000
next table: 1989
cur table: 1985
epoch: 1000
next table: 2035
cur table: 1989
epoch: 1000
next table: 1427
cur table: 1416
epoch: 1000
next table: 2031
cur table: 2035
epoch: 1000
next table: 1433
cur table: 1427
epoch: 1000
next table: 1956
cur table: 2031
epoch: 1000
next table: 1420
cur table: 1433
epoch: 1000
next table: 1939
cur table: 1956
epoch: 1000
next table: 1384
cur table: 1420
epoch: 1000
next table: 2008
cur table: 1939
epoch: 1000
next table: 2055
cur table: 2008
epoch: 1000
next table: 1404
cur table: 1384
epoch: 1000
next table: 2033
cur table: 2055
epoch: 1000
next table: 1414
cur table: 1404
epoch: 1000
next table: 1989
cur table: 2033
epoch: 1000
next table: 1427
cur table: 1414
epoch: 1000
next table: 1988
cur table: 1989
epoch: 1000
next table: 1412
cur table: 1427
epoch: 1000
next table: 1957
cur table: 1988
epoch: 1000
next table: 2045
cur table: 1957
epoch: 1000
next table: 1420
cur table: 1412
epoch: 1000
next table: 2045
cur table: 2045
epoch: 1000
next table: 1442
cur table: 1420
epoch: 1000
next table: 1967
cur table: 2045
epoch: 1000
next table: 1431
cur table: 1442
epoch: 1000
next table: 2002
cur table: 1967
epoch: 1000
next table: 1970
cur table: 2002
epoch: 1000
next table: 1418
cur table: 1431
epoch: 1000
next table: 2022
cur table: 1970
epoch: 1000
next table: 1457
cur table: 1418
epoch: 1000
next table: 2007
cur table: 2022
epoch: 1000
next table: 1424
cur table: 1457
epoch: 1000
next table: 1989
cur table: 2007
epoch: 1000
next table: 1414
cur table: 1424
epoch: 1000
next table: 2004
cur table: 1989
epoch: 1000
next table: 1969
cur table: 2004
epoch: 1000
next table: 1453
cur table: 1414
epoch: 1000
next table: 2042
cur table: 1969
epoch: 1000
next table: 1455
cur table: 1453
epoch: 1000
next table: 2015
cur table: 2042
epoch: 1000
next table: 1435
cur table: 1455
epoch: 1000
next table: 1953
cur table: 2015
epoch: 1000
next table: 1986
cur table: 1953
epoch: 1000
next table: 1466
cur table: 1435
epoch: 1000
next table: 1974
cur table: 1986
epoch: 1000
next table: 1466
cur table: 1466
epoch: 1000
next table: 2071
cur table: 1974
epoch: 1000
next table: 2014
cur table: 2071
epoch: 1000
next table: 1495
cur table: 1466
epoch: 1000
next table: 1956
cur table: 2014
epoch: 1000
next table: 1527
cur table: 1495
epoch: 1000
next table: 1992
cur table: 1956
epoch: 1000
next table: 1981
cur table: 1992
epoch: 1000
next table: 1506
cur table: 1527
epoch: 1000
next table: 2064
cur table: 1981
epoch: 1000
next table: 1472
cur table: 1506
epoch: 1000
next table: 2006
cur table: 2064
epoch: 1000
next table: 1954
cur table: 2006
epoch: 1000
next table: 1988
cur table: 1954
epoch: 1000
next table: 1772
cur table: 1472
epoch: 1000
next table: 1981
cur table: 1988
epoch: 1000
next table: 2065
cur table: 1981
epoch: 1000
next table: 1726
cur table: 1772
epoch: 1000
next table: 2004
cur table: 2065
epoch: 1000
next table: 1978
cur table: 2004
epoch: 1000
next table: 1654
cur table: 1726
epoch: 1000
next table: 1978
cur table: 1978
epoch: 1000
next table: 1562
cur table: 1654
epoch: 1000
next table: 1989
cur table: 1978
epoch: 1000
next table: 2067
cur table: 1989
epoch: 1000
next table: 1547
cur table: 1562
epoch: 1000
next table: 2013
cur table: 2067
epoch: 1000
next table: 1990
cur table: 2013
epoch: 1000
next table: 1551
cur table: 1547
epoch: 1000
next table: 1949
cur table: 1990
epoch: 1000
next table: 1989
cur table: 1949
epoch: 1000
next table: 1794
cur table: 1551
epoch: 1000
next table: 2075
cur table: 1989
epoch: 1000
next table: 2015
cur table: 2075
epoch: 1000
next table: 1697
cur table: 1794
epoch: 1000
next table: 1989
cur table: 2015
epoch: 1000
next table: 1986
cur table: 1989
epoch: 1000
next table: 1580
cur table: 1697
epoch: 1000
next table: 1984
cur table: 1986
epoch: 1000
next table: 2028
cur table: 1984
epoch: 1000
next table: 1607
cur table: 1580
epoch: 1000
next table: 2002
cur table: 2028
epoch: 1000
next table: 1970
cur table: 2002
epoch: 1000
next table: 1649
cur table: 1607
epoch: 1000
next table: 2004
cur table: 1970
epoch: 1000
next table: 1591
cur table: 1649
epoch: 1000
next table: 1990
cur table: 2004
epoch: 1000
next table: 2041
cur table: 1990
epoch: 1000
next table: 1565
cur table: 1591
epoch: 1000
next table: 2009
cur table: 2041
epoch: 1000
next table: 1979
cur table: 2009
epoch: 1000
next table: 1572
cur table: 1565
epoch: 1000
next table: 1972
cur table: 1979
epoch: 1000
next table: 1990
cur table: 1972
epoch: 1000
next table: 1551
cur table: 1572
epoch: 1000
next table: 2055
cur table: 1990
epoch: 1000
next table: 1522
cur table: 1551
epoch: 1000
next table: 1999
cur table: 2055
epoch: 1000
next table: 1475
cur table: 1522
epoch: 1000
next table: 2006
cur table: 1999
epoch: 1000
next table: 1944
cur table: 2006
epoch: 1000
next table: 1476
cur table: 1475
epoch: 1000
next table: 2002
cur table: 1944
epoch: 1000
next table: 2056
cur table: 2002
epoch: 1000
next table: 1730
cur table: 1476
epoch: 1000
next table: 1979
cur table: 2056
epoch: 1000
next table: 1990
cur table: 1979
epoch: 1000
next table: 1526
cur table: 1730
epoch: 1000
next table: 1988
cur table: 1990
epoch: 1000
next table: 1985
cur table: 1988
epoch: 1000
next table: 1734
cur table: 1526
epoch: 1000
next table: 2042
cur table: 1985
epoch: 1000
next table: 1990
cur table: 2042
epoch: 1000
next table: 1681
cur table: 1734
epoch: 1000
next table: 1986
cur table: 1990
epoch: 1000
next table: 1991
cur table: 1986
epoch: 1000
next table: 1618
cur table: 1681
epoch: 1000
next table: 1989
cur table: 1991
epoch: 1000
next table: 2076
cur table: 1989
epoch: 1000
next table: 1560
cur table: 1618
epoch: 1000
next table: 1985
cur table: 2076
epoch: 1000
next table: 1563
cur table: 1560
epoch: 1000
next table: 1960
cur table: 1985
epoch: 1000
next table: 1983
cur table: 1960
epoch: 1000
next table: 1548
cur table: 1563
epoch: 1000
next table: 2004
cur table: 1983
epoch: 1000
next table: 2070
cur table: 2004
epoch: 1000
next table: 1554
cur table: 1548
epoch: 1000
next table: 1974
cur table: 2070
epoch: 1000
next table: 1989
cur table: 1974
epoch: 1000
next table: 1727
cur table: 1554
epoch: 1000
next table: 1988
cur table: 1989
epoch: 1000
next table: 1978
cur table: 1988
epoch: 1000
next table: 1649
cur table: 1727
epoch: 1000
next table: 2076
cur table: 1978
epoch: 1000
next table: 1994
cur table: 2076
epoch: 1000
next table: 1619
cur table: 1649
epoch: 1000
next table: 1962
cur table: 1994
epoch: 1000
next table: 1962
cur table: 1962
epoch: 1000
next table: 1742
cur table: 1619
epoch: 1000
next table: 2020
cur table: 1962
epoch: 1000
next table: 2062
cur table: 2020
epoch: 1000
next table: 1712
cur table: 1742
epoch: 1000
next table: 1968
cur table: 2062
epoch: 1000
next table: 1957
cur table: 1968
epoch: 1000
next table: 1585
cur table: 1712
epoch: 1000
next table: 1990
cur table: 1957
epoch: 1000
next table: 1597
cur table: 1585
epoch: 1000
next table: 2014
cur table: 1990
epoch: 1000
next table: 2074
cur table: 2014
epoch: 1000
next table: 1581
cur table: 1597
epoch: 1000
next table: 1987
cur table: 2074
epoch: 1000
next table: 1979
cur table: 1987
epoch: 1000
next table: 1507
cur table: 1581
epoch: 1000
next table: 1987
cur table: 1979
epoch: 1000
next table: 1488
cur table: 1507
epoch: 1000
next table: 1987
cur table: 1987
epoch: 1000
next table: 2083
cur table: 1987
epoch: 1000
next table: 1583
cur table: 1488
epoch: 1000
next table: 1977
cur table: 2083
epoch: 1000
next table: 1967
cur table: 1977
epoch: 1000
next table: 1738
cur table: 1583
epoch: 1000
next table: 1980
cur table: 1967
epoch: 1000
next table: 2008
cur table: 1980
epoch: 1000
next table: 1690
cur table: 1738
epoch: 1000
next table: 2033
cur table: 2008
epoch: 1000
next table: 1988
cur table: 2033
epoch: 1000
next table: 1752
cur table: 1690
epoch: 1000
next table: 1985
cur table: 1988
epoch: 1000
next table: 1990
cur table: 1985
epoch: 1000
next table: 2004
cur table: 1990
epoch: 1000
next table: 1824
cur table: 1752
epoch: 1000
next table: 2054
cur table: 2004
epoch: 1000
next table: 1944
cur table: 2054
epoch: 1000
next table: 1676
cur table: 1824
epoch: 1000
next table: 1999
cur table: 1944
epoch: 1000
next table: 1969
cur table: 1999
epoch: 1000
next table: 1774
cur table: 1676
epoch: 1000
next table: 2028
cur table: 1969
epoch: 1000
next table: 2082
cur table: 2028
epoch: 1000
next table: 1755
cur table: 1774
epoch: 1000
next table: 1963
cur table: 2082
epoch: 1000
next table: 1966
cur table: 1963
epoch: 1000
next table: 1630
cur table: 1755
epoch: 1000
next table: 1991
cur table: 1966
epoch: 1000
next table: 2011
cur table: 1991
epoch: 1000
next table: 1677
cur table: 1630
epoch: 1000
next table: 2069
cur table: 2011
epoch: 1000
next table: 1962
cur table: 2069
epoch: 1000
next table: 1558
cur table: 1677
epoch: 1000
next table: 2008
cur table: 1962
epoch: 1000
next table: 1963
cur table: 2008
epoch: 1000
next table: 1676
cur table: 1558
epoch: 1000
next table: 2007
cur table: 1963
epoch: 1000
next table: 2020
cur table: 2007
epoch: 1000
next table: 1990
cur table: 2020
epoch: 1000
next table: 1991
cur table: 1990
epoch: 1000
next table: 2433
cur table: 1676
epoch: 1000
next table: 1986
cur table: 1991
epoch: 1000
next table: 2025
cur table: 1986
epoch: 1000
next table: 2037
cur table: 2025
epoch: 1000
next table: 1963
cur table: 2037
epoch: 1000
next table: 1979
cur table: 1963
epoch: 1000
next table: 1991
cur table: 1979
epoch: 1000
next table: 2031
cur table: 1991
epoch: 1000
next table: 2057
cur table: 2031
epoch: 1000
next table: 1968
cur table: 2057
epoch: 1000
next table: 1987
cur table: 1968
epoch: 1000
next table: 1982
cur table: 1987
epoch: 1000
next table: 1997
cur table: 1982
epoch: 1000
next table: 1983
cur table: 1997
epoch: 1000
next table: 5034
cur table: 2433
epoch: 1000
next table: 1987
cur table: 1983
epoch: 1000
next table: 1989
cur table: 1987
epoch: 1000
next table: 1967
cur table: 1989
epoch: 1000
next table: 2072
cur table: 1967
epoch: 1000
next table: 1989
cur table: 2072
epoch: 1000
next table: 1947
cur table: 1989
epoch: 1000
next table: 1972
cur table: 1947
epoch: 1000
next table: 2020
cur table: 1972
epoch: 1000
next table: 2077
cur table: 2020
epoch: 1000
next table: 1995
cur table: 2077
epoch: 1000
next table: 1972
cur table: 1995
epoch: 1000
next table: 1921
cur table: 1972
epoch: 1000
next table: 5026
cur table: 5034
epoch: 1000
next table: 2047
cur table: 1921
epoch: 1000
next table: 2059
cur table: 2047
epoch: 1000
next table: 1993
cur table: 2059
epoch: 1000
next table: 1988
cur table: 1993
epoch: 1000
next table: 1963
cur table: 1988
epoch: 1000
next table: 2005
cur table: 1963
epoch: 1000
next table: 2044
cur table: 2005
epoch: 1000
next table: 1969
cur table: 2044
epoch: 1000
next table: 1988
cur table: 1969
epoch: 1000
next table: 1989
cur table: 1988
epoch: 1000
next table: 2006
cur table: 1989
epoch: 1000
next table: 2061
cur table: 2006
epoch: 1000
next table: 5086
cur table: 5026
epoch: 1000
next table: 1984
cur table: 2061
epoch: 1000
next table: 1964
cur table: 1984
epoch: 1000
next table: 1964
cur table: 1964
epoch: 1000
next table: 2034
cur table: 1964
epoch: 1000
next table: 2048
cur table: 2034
epoch: 1000
next table: 1988
cur table: 2048
epoch: 1000
next table: 1966
cur table: 1988
epoch: 1000
next table: 1985
cur table: 1966
epoch: 1000
next table: 2020
cur table: 1985
epoch: 1000
next table: 2037
cur table: 2020
Heartbeat CPU 0 instructions: 10000002 cycles: 5056915 heartbeat IPC: 1.97749 cumulative IPC: 1.97749 (Simulation time: 0 hr 8 min 51 sec) 
epoch: 1000
next table: 1933
cur table: 2037
epoch: 1000
next table: 1989
cur table: 1933
epoch: 1000
next table: 1996
cur table: 1989
epoch: 1000
next table: 5074
cur table: 5086
epoch: 1000
next table: 2043
cur table: 1996
epoch: 1000
next table: 1981
cur table: 2043
epoch: 1000
next table: 1982
cur table: 1981
epoch: 1000
next table: 1989
cur table: 1982
epoch: 1000
next table: 1988
cur table: 1989
epoch: 1000
next table: 2063
cur table: 1988
epoch: 1000
next table: 2025
cur table: 2063
epoch: 1000
next table: 1964
cur table: 2025
epoch: 1000
next table: 1990
cur table: 1964
epoch: 1000
next table: 1988
cur table: 1990
epoch: 1000
next table: 2049
cur table: 1988
epoch: 1000
next table: 2001
cur table: 2049
epoch: 1000
next table: 5104
cur table: 5074
epoch: 1000
next table: 1964
cur table: 2001
epoch: 1000
next table: 1985
cur table: 1964
epoch: 1000
next table: 1990
cur table: 1985
epoch: 1000
next table: 2056
cur table: 1990
epoch: 1000
next table: 2004
cur table: 2056
epoch: 1000
next table: 1963
cur table: 2004
epoch: 1000
next table: 1968
cur table: 1963
epoch: 1000
next table: 1991
cur table: 1968
epoch: 1000
next table: 2075
cur table: 1991
epoch: 1000
next table: 1979
cur table: 2075
epoch: 1000
next table: 1988
cur table: 1979
epoch: 1000
next table: 1980
cur table: 1988
epoch: 1000
next table: 5126
cur table: 5104
epoch: 1000
next table: 1970
cur table: 1980
epoch: 1000
next table: 2083
cur table: 1970
epoch: 1000
next table: 1998
cur table: 2083
epoch: 1000
next table: 1968
cur table: 1998
epoch: 1000
next table: 1970
cur table: 1968
epoch: 1000
next table: 2000
cur table: 1970
epoch: 1000
next table: 2060
cur table: 2000
epoch: 1000
next table: 1983
cur table: 2060
epoch: 1000
next table: 1968
cur table: 1983
epoch: 1000
next table: 1990
cur table: 1968
epoch: 1000
next table: 1998
cur table: 1990
epoch: 1000
next table: 2036
cur table: 1998
epoch: 1000
next table: 1985
cur table: 2036
epoch: 1000
next table: 5109
cur table: 5126
epoch: 1000
next table: 1986
cur table: 1985
epoch: 1000
next table: 1990
cur table: 1986
epoch: 1000
next table: 2007
cur table: 1990
epoch: 1000
next table: 2078
cur table: 2007
epoch: 1000
next table: 1963
cur table: 2078
epoch: 1000
next table: 1930
cur table: 1963
epoch: 1000
next table: 1967
cur table: 1930
epoch: 1000
next table: 2061
cur table: 1967
epoch: 1000
next table: 2059
cur table: 2061
epoch: 1000
next table: 1985
cur table: 2059
epoch: 1000
next table: 1961
cur table: 1985
epoch: 1000
next table: 1957
cur table: 1961
epoch: 1000
next table: 5069
cur table: 5109
epoch: 1000
next table: 2045
cur table: 1957
epoch: 1000
next table: 2013
cur table: 2045
epoch: 1000
next table: 1987
cur table: 2013
epoch: 1000
next table: 1968
cur table: 1987
epoch: 1000
next table: 1990
cur table: 1968
epoch: 1000
next table: 2034
cur table: 1990
epoch: 1000
next table: 2026
cur table: 2034
epoch: 1000
next table: 1945
cur table: 2026
epoch: 1000
next table: 1992
cur table: 1945
epoch: 1000
next table: 1992
cur table: 1992
epoch: 1000
next table: 2062
cur table: 1992
epoch: 1000
next table: 1994
cur table: 2062
epoch: 1000
next table: 5070
cur table: 5069
epoch: 1000
next table: 1959
cur table: 1994
epoch: 1000
next table: 1965
cur table: 1959
epoch: 1000
next table: 2009
cur table: 1965
epoch: 1000
next table: 2073
cur table: 2009
epoch: 1000
next table: 1971
cur table: 2073
epoch: 1000
next table: 1984
cur table: 1971
epoch: 1000
next table: 1983
cur table: 1984
epoch: 1000
next table: 2002
cur table: 1983
epoch: 1000
next table: 2052
cur table: 2002
epoch: 1000
next table: 1947
cur table: 2052
epoch: 1000
next table: 1978
cur table: 1947
epoch: 1000
next table: 1993
cur table: 1978
epoch: 1000
next table: 2008
cur table: 1993
epoch: 1000
next table: 5094
cur table: 5070
epoch: 1000
next table: 2076
cur table: 2008
epoch: 1000
next table: 1969
cur table: 2076
epoch: 1000
next table: 1976
cur table: 1969
epoch: 1000
next table: 1969
cur table: 1976
epoch: 1000
next table: 2020
cur table: 1969
epoch: 1000
next table: 2041
cur table: 2020
epoch: 1000
next table: 1988
cur table: 2041
epoch: 1000
next table: 1982
cur table: 1988
epoch: 1000
next table: 1990
cur table: 1982
epoch: 1000
next table: 2005
cur table: 1990
epoch: 1000
next table: 2015
cur table: 2005
epoch: 1000
next table: 1988
cur table: 2015
epoch: 1000
next table: 4988
cur table: 5094
epoch: 1000
next table: 1970
cur table: 1988
epoch: 1000
next table: 2010
cur table: 1970
epoch: 1000
next table: 2031
cur table: 2010
epoch: 1000
next table: 2029
cur table: 2031
epoch: 1000
next table: 1960
cur table: 2029
epoch: 1000
next table: 1967
cur table: 1960
epoch: 1000
next table: 1985
cur table: 1967
epoch: 1000
next table: 2048
cur table: 1985
epoch: 1000
next table: 2038
cur table: 2048
epoch: 1000
next table: 1966
cur table: 2038
epoch: 1000
next table: 1988
cur table: 1966
epoch: 1000
next table: 1957
cur table: 1988
epoch: 1000
next table: 5105
cur table: 4988
epoch: 1000
next table: 2056
cur table: 1957
epoch: 1000
next table: 2002
cur table: 2056
epoch: 1000
next table: 1986
cur table: 2002
epoch: 1000
next table: 1966
cur table: 1986
epoch: 1000
next table: 1987
cur table: 1966
epoch: 1000
next table: 2068
cur table: 1987
epoch: 1000
next table: 1987
cur table: 2068
epoch: 1000
next table: 1987
cur table: 1987
epoch: 1000
next table: 1991
cur table: 1987
epoch: 1000
next table: 1985
cur table: 1991
epoch: 1000
next table: 2054
cur table: 1985
epoch: 1000
next table: 2013
cur table: 2054
epoch: 1000
next table: 5106
cur table: 5105
epoch: 1000
next table: 1945
cur table: 2013
epoch: 1000
next table: 1982
cur table: 1945
epoch: 1000
next table: 2016
cur table: 1982
epoch: 1000
next table: 2062
cur table: 2016
epoch: 1000
next table: 1986
cur table: 2062
epoch: 1000
next table: 1965
cur table: 1986
epoch: 1000
next table: 1979
cur table: 1965
epoch: 1000
next table: 1991
cur table: 1979
epoch: 1000
next table: 2081
cur table: 1991
epoch: 1000
next table: 1981
cur table: 2081
epoch: 1000
next table: 1982
cur table: 1981
epoch: 1000
next table: 1965
cur table: 1982
epoch: 1000
next table: 5053
cur table: 5106
epoch: 1000
next table: 1998
cur table: 1965
epoch: 1000
next table: 2057
cur table: 1998
epoch: 1000
next table: 1968
cur table: 2057
epoch: 1000
next table: 1952
cur table: 1968
epoch: 1000
next table: 1992
cur table: 1952
epoch: 1000
next table: 2035
cur table: 1992
epoch: 1000
next table: 2058
cur table: 2035
epoch: 1000
next table: 1975
cur table: 2058
epoch: 1000
next table: 1994
cur table: 1975
epoch: 1000
next table: 1953
cur table: 1994
epoch: 1000
next table: 2006
cur table: 1953
epoch: 1000
next table: 2083
cur table: 2006
epoch: 1000
next table: 1967
cur table: 2083
epoch: 1000
next table: 5108
cur table: 5053
epoch: 1000
next table: 1961
cur table: 1967
epoch: 1000
next table: 1983
cur table: 1961
epoch: 1000
next table: 2008
cur table: 1983
epoch: 1000
next table: 2020
cur table: 2008
epoch: 1000
next table: 1989
cur table: 2020
epoch: 1000
next table: 1987
cur table: 1989
epoch: 1000
next table: 1988
cur table: 1987
epoch: 1000
next table: 2034
cur table: 1988
epoch: 1000
next table: 2034
cur table: 2034
epoch: 1000
next table: 1953
cur table: 2034
epoch: 1000
next table: 1962
cur table: 1953
epoch: 1000
next table: 1987
cur table: 1962
epoch: 1000
next table: 5093
cur table: 5108
epoch: 1000
next table: 2055
cur table: 1987
epoch: 1000
next table: 2035
cur table: 2055
epoch: 1000
next table: 1979
cur table: 2035
epoch: 1000
next table: 1972
cur table: 1979
epoch: 1000
next table: 1985
cur table: 1972
epoch: 1000
next table: 2028
cur table: 1985
epoch: 1000
next table: 2001
cur table: 2028
epoch: 1000
next table: 1990
cur table: 2001
epoch: 1000
next table: 1964
cur table: 1990
epoch: 1000
next table: 1969
cur table: 1964
epoch: 1000
next table: 2059
cur table: 1969
epoch: 1000
next table: 1988
cur table: 2059
epoch: 1000
next table: 1985
cur table: 1988
epoch: 1000
next table: 5101
cur table: 5093
epoch: 1000
next table: 1966
cur table: 1985
epoch: 1000
next table: 2002
cur table: 1966
epoch: 1000
next table: 2086
cur table: 2002
epoch: 1000
next table: 1983
cur table: 2086
epoch: 1000
next table: 1986
cur table: 1983
epoch: 1000
next table: 1908
cur table: 1986
epoch: 1000
next table: 2050
cur table: 1908
epoch: 1000
next table: 2059
cur table: 2050
epoch: 1000
next table: 1993
cur table: 2059
epoch: 1000
next table: 1956
cur table: 1993
epoch: 1000
next table: 1981
cur table: 1956
epoch: 1000
next table: 2015
cur table: 1981
epoch: 1000
next table: 5082
cur table: 5101
epoch: 1000
next table: 2029
cur table: 2015
epoch: 1000
next table: 1990
cur table: 2029
epoch: 1000
next table: 1983
cur table: 1990
epoch: 1000
next table: 1987
cur table: 1983
epoch: 1000
next table: 2014
cur table: 1987
epoch: 1000
next table: 2053
cur table: 2014
epoch: 1000
next table: 1897
cur table: 2053
epoch: 1000
next table: 1968
cur table: 1897
epoch: 1000
next table: 2007
cur table: 1968
epoch: 1000
next table: 2064
cur table: 2007
epoch: 1000
next table: 2035
cur table: 2064
epoch: 1000
next table: 1984
cur table: 2035
epoch: 1000
next table: 1965
cur table: 1984
epoch: 1000
next table: 5107
cur table: 5082
epoch: 1000
next table: 1975
cur table: 1965
epoch: 1000
next table: 2046
cur table: 1975
epoch: 1000
next table: 2017
cur table: 2046
epoch: 1000
next table: 1972
cur table: 2017
epoch: 1000
next table: 1988
cur table: 1972
epoch: 1000
next table: 1988
cur table: 1988
epoch: 1000
next table: 2041
cur table: 1988
epoch: 1000
next table: 2001
cur table: 2041
epoch: 1000
next table: 1989
cur table: 2001
epoch: 1000
next table: 1989
cur table: 1989
epoch: 1000
next table: 1992
cur table: 1989
epoch: 1000
next table: 5008
cur table: 5107
epoch: 1000
next table: 2056
cur table: 1992
epoch: 1000
next table: 2020
cur table: 2056
epoch: 1000
next table: 1975
cur table: 2020
epoch: 1000
next table: 1953
cur table: 1975
epoch: 1000
next table: 1984
cur table: 1953
epoch: 1000
next table: 2062
cur table: 1984
epoch: 1000
next table: 2005
cur table: 2062
epoch: 1000
next table: 1990
cur table: 2005
epoch: 1000
next table: 1991
cur table: 1990
epoch: 1000
next table: 1961
cur table: 1991
epoch: 1000
next table: 2061
cur table: 1961
epoch: 1000
next table: 1993
cur table: 2061
epoch: 1000
next table: 1960
cur table: 1993
epoch: 1000
next table: 5090
cur table: 5008
epoch: 1000
next table: 1992
cur table: 1960
epoch: 1000
next table: 2007
cur table: 1992
epoch: 1000
next table: 2043
cur table: 2007
epoch: 1000
next table: 1995
cur table: 2043
epoch: 1000
next table: 1988
cur table: 1995
epoch: 1000
next table: 1989
cur table: 1988
epoch: 1000
next table: 1971
cur table: 1989
epoch: 1000
next table: 2068
cur table: 1971
epoch: 1000
next table: 1987
cur table: 2068
epoch: 1000
next table: 1990
cur table: 1987
epoch: 1000
next table: 1946
cur table: 1990
epoch: 1000
next table: 2007
cur table: 1946
epoch: 1000
next table: 5035
cur table: 5090
epoch: 1000
next table: 2086
cur table: 2007
epoch: 1000
next table: 1986
cur table: 2086
Heartbeat CPU 0 instructions: 20000000 cycles: 10124363 heartbeat IPC: 1.97338 cumulative IPC: 1.97543 (Simulation time: 0 hr 16 min 56 sec) 
epoch: 1000
next table: 1956
cur table: 1986
epoch: 1000
next table: 1988
cur table: 1956
epoch: 1000
next table: 2005
cur table: 1988
epoch: 1000
next table: 2057
cur table: 2005
epoch: 1000
next table: 1960
cur table: 2057
epoch: 1000
next table: 1990
cur table: 1960
epoch: 1000
next table: 1989
cur table: 1990
epoch: 1000
next table: 2005
cur table: 1989
epoch: 1000
next table: 2060
cur table: 2005
epoch: 1000
next table: 1988
cur table: 2060
epoch: 1000
next table: 5125
cur table: 5035
epoch: 1000
next table: 1983
cur table: 1988
epoch: 1000
next table: 1964
cur table: 1983
epoch: 1000
next table: 1997
cur table: 1964
epoch: 1000
next table: 2091
cur table: 1997
epoch: 1000
next table: 1984
cur table: 2091
epoch: 1000
next table: 1938
cur table: 1984
epoch: 1000
next table: 1959
cur table: 1938
epoch: 1000
next table: 2026
cur table: 1959
epoch: 1000
next table: 2065
cur table: 2026
epoch: 1000
next table: 1979
cur table: 2065
epoch: 1000
next table: 1989
cur table: 1979
epoch: 1000
next table: 1992
cur table: 1989
epoch: 1000
next table: 1992
cur table: 1992
epoch: 1000
next table: 5112
cur table: 5125
epoch: 1000
next table: 2023
cur table: 1992
epoch: 1000
next table: 1991
cur table: 2023
epoch: 1000
next table: 1991
cur table: 1991
epoch: 1000
next table: 1966
cur table: 1991
epoch: 1000
next table: 2047
cur table: 1966
epoch: 1000
next table: 2040
cur table: 2047
epoch: 1000
next table: 1955
cur table: 2040
epoch: 1000
next table: 1964
cur table: 1955
epoch: 1000
next table: 1987
cur table: 1964
epoch: 1000
next table: 2049
cur table: 1987
epoch: 1000
next table: 2032
cur table: 2049
epoch: 1000
next table: 1975
cur table: 2032
epoch: 1000
next table: 5094
cur table: 5112
epoch: 1000
next table: 1959
cur table: 1975
epoch: 1000
next table: 1982
cur table: 1959
epoch: 1000
next table: 2037
cur table: 1982
epoch: 1000
next table: 2023
cur table: 2037
epoch: 1000
next table: 1993
cur table: 2023
epoch: 1000
next table: 1985
cur table: 1993
epoch: 1000
next table: 1961
cur table: 1985
epoch: 1000
next table: 2063
cur table: 1961
epoch: 1000
next table: 2026
cur table: 2063
epoch: 1000
next table: 1986
cur table: 2026
epoch: 1000
next table: 1953
cur table: 1986
epoch: 1000
next table: 1974
cur table: 1953
epoch: 1000
next table: 5093
cur table: 5094
epoch: 1000
next table: 2048
cur table: 1974
epoch: 1000
next table: 2033
cur table: 2048
epoch: 1000
next table: 1966
cur table: 2033
epoch: 1000
next table: 1982
cur table: 1966
epoch: 1000
next table: 1954
cur table: 1982
epoch: 1000
next table: 2087
cur table: 1954
epoch: 1000
next table: 1998
cur table: 2087
epoch: 1000
next table: 1985
cur table: 1998
epoch: 1000
next table: 1964
cur table: 1985
epoch: 1000
next table: 1977
cur table: 1964
epoch: 1000
next table: 2072
cur table: 1977
epoch: 1000
next table: 1945
cur table: 2072
epoch: 1000
next table: 1983
cur table: 1945
epoch: 1000
next table: 5089
cur table: 5093
epoch: 1000
next table: 1993
cur table: 1983
epoch: 1000
next table: 2009
cur table: 1993
epoch: 1000
next table: 2054
cur table: 2009
epoch: 1000
next table: 1966
cur table: 2054
epoch: 1000
next table: 1984
cur table: 1966
epoch: 1000
next table: 1961
cur table: 1984
epoch: 1000
next table: 2028
cur table: 1961
epoch: 1000
next table: 2066
cur table: 2028
epoch: 1000
next table: 1986
cur table: 2066
epoch: 1000
next table: 1961
cur table: 1986
epoch: 1000
next table: 1984
cur table: 1961
epoch: 1000
next table: 2008
cur table: 1984
epoch: 1000
next table: 5099
cur table: 5089
epoch: 1000
next table: 2048
cur table: 2008
epoch: 1000
next table: 1993
cur table: 2048
epoch: 1000
next table: 1986
cur table: 1993
epoch: 1000
next table: 1985
cur table: 1986
epoch: 1000
next table: 1985
cur table: 1985
epoch: 1000
next table: 2079
cur table: 1985
epoch: 1000
next table: 1922
cur table: 2079
epoch: 1000
next table: 1980
cur table: 1922
epoch: 1000
next table: 1977
cur table: 1980
epoch: 1000
next table: 2065
cur table: 1977
epoch: 1000
next table: 2019
cur table: 2065
epoch: 1000
next table: 2010
cur table: 2019
epoch: 1000
next table: 1987
cur table: 2010
epoch: 1000
next table: 5107
cur table: 5099
epoch: 1000
next table: 1967
cur table: 1987
epoch: 1000
next table: 2024
cur table: 1967
epoch: 1000
next table: 2035
cur table: 2024
epoch: 1000
next table: 1987
cur table: 2035
epoch: 1000
next table: 1990
cur table: 1987
epoch: 1000
next table: 1988
cur table: 1990
epoch: 1000
next table: 2007
cur table: 1988
epoch: 1000
next table: 2048
cur table: 2007
epoch: 1000
next table: 1990
cur table: 2048
epoch: 1000
next table: 1968
cur table: 1990
epoch: 1000
next table: 1988
cur table: 1968
epoch: 1000
next table: 2011
cur table: 1988
epoch: 1000
next table: 5132
cur table: 5107
epoch: 1000
next table: 2068
cur table: 2011
epoch: 1000
next table: 1967
cur table: 2068
epoch: 1000
next table: 1961
cur table: 1967
epoch: 1000
next table: 1981
cur table: 1961
epoch: 1000
next table: 2025
cur table: 1981
epoch: 1000
next table: 2065
cur table: 2025
epoch: 1000
next table: 1969
cur table: 2065
epoch: 1000
next table: 1990
cur table: 1969
epoch: 1000
next table: 1972
cur table: 1990
epoch: 1000
next table: 2026
cur table: 1972
epoch: 1000
next table: 2039
cur table: 2026
epoch: 1000
next table: 1988
cur table: 2039
epoch: 1000
next table: 5105
cur table: 5132
epoch: 1000
next table: 1963
cur table: 1988
epoch: 1000
next table: 1976
cur table: 1963
epoch: 1000
next table: 2029
cur table: 1976
epoch: 1000
next table: 2034
cur table: 2029
epoch: 1000
next table: 1980
cur table: 2034
epoch: 1000
next table: 1991
cur table: 1980
epoch: 1000
next table: 1984
cur table: 1991
epoch: 1000
next table: 2019
cur table: 1984
epoch: 1000
next table: 2053
cur table: 2019
epoch: 1000
next table: 1986
cur table: 2053
epoch: 1000
next table: 1937
cur table: 1986
epoch: 1000
next table: 1982
cur table: 1937
epoch: 1000
next table: 2057
cur table: 1982
epoch: 1000
next table: 5107
cur table: 5105
epoch: 1000
next table: 2009
cur table: 2057
epoch: 1000
next table: 1987
cur table: 2009
epoch: 1000
next table: 1964
cur table: 1987
epoch: 1000
next table: 1991
cur table: 1964
epoch: 1000
next table: 2040
cur table: 1991
epoch: 1000
next table: 2015
cur table: 2040
epoch: 1000
next table: 1989
cur table: 2015
epoch: 1000
next table: 1981
cur table: 1989
epoch: 1000
next table: 1985
cur table: 1981
epoch: 1000
next table: 2032
cur table: 1985
epoch: 1000
next table: 1998
cur table: 2032
epoch: 1000
next table: 1999
cur table: 1998
epoch: 1000
next table: 5090
cur table: 5107
epoch: 1000
next table: 1988
cur table: 1999
epoch: 1000
next table: 1987
cur table: 1988
epoch: 1000
next table: 2049
cur table: 1987
epoch: 1000
next table: 1983
cur table: 2049
epoch: 1000
next table: 1985
cur table: 1983
epoch: 1000
next table: 1991
cur table: 1985
epoch: 1000
next table: 1980
cur table: 1991
epoch: 1000
next table: 2060
cur table: 1980
epoch: 1000
next table: 2031
cur table: 2060
epoch: 1000
next table: 1979
cur table: 2031
epoch: 1000
next table: 1974
cur table: 1979
epoch: 1000
next table: 1988
cur table: 1974
epoch: 1000
next table: 5125
cur table: 5090
epoch: 1000
next table: 2034
cur table: 1988
epoch: 1000
next table: 1998
cur table: 2034
epoch: 1000
next table: 1990
cur table: 1998
epoch: 1000
next table: 1983
cur table: 1990
epoch: 1000
next table: 1985
cur table: 1983
epoch: 1000
next table: 2046
cur table: 1985
epoch: 1000
next table: 1995
cur table: 2046
epoch: 1000
next table: 1989
cur table: 1995
epoch: 1000
next table: 1983
cur table: 1989
epoch: 1000
next table: 1997
cur table: 1983
epoch: 1000
next table: 2042
cur table: 1997
epoch: 1000
next table: 2011
cur table: 2042
epoch: 1000
next table: 1961
cur table: 2011
epoch: 1000
next table: 5079
cur table: 5125
epoch: 1000
next table: 1985
cur table: 1961
epoch: 1000
next table: 1964
cur table: 1985
epoch: 1000
next table: 2081
cur table: 1964
epoch: 1000
next table: 1992
cur table: 2081
epoch: 1000
next table: 1983
cur table: 1992
epoch: 1000
next table: 1995
cur table: 1983
epoch: 1000
next table: 1985
cur table: 1995
epoch: 1000
next table: 2055
cur table: 1985
epoch: 1000
next table: 1979
cur table: 2055
epoch: 1000
next table: 1993
cur table: 1979
epoch: 1000
next table: 1994
cur table: 1993
epoch: 1000
next table: 1983
cur table: 1994
epoch: 1000
next table: 5049
cur table: 5079
epoch: 1000
next table: 2075
cur table: 1983
epoch: 1000
next table: 1988
cur table: 2075
epoch: 1000
next table: 1963
cur table: 1988
epoch: 1000
next table: 1985
cur table: 1963
epoch: 1000
next table: 1985
cur table: 1985
epoch: 1000
next table: 2072
cur table: 1985
epoch: 1000
next table: 1999
cur table: 2072
epoch: 1000
next table: 1979
cur table: 1999
epoch: 1000
next table: 1966
cur table: 1979
epoch: 1000
next table: 1966
cur table: 1966
epoch: 1000
next table: 2029
cur table: 1966
epoch: 1000
next table: 1985
cur table: 2029
epoch: 1000
next table: 5117
cur table: 5049
epoch: 1000
next table: 1978
cur table: 1985
epoch: 1000
next table: 1979
cur table: 1978
epoch: 1000
next table: 2035
cur table: 1979
epoch: 1000
next table: 2056
cur table: 2035
epoch: 1000
next table: 1925
cur table: 2056
epoch: 1000
next table: 2012
cur table: 1925
epoch: 1000
next table: 1995
cur table: 2012
epoch: 1000
next table: 2034
cur table: 1995
epoch: 1000
next table: 2044
cur table: 2034
epoch: 1000
next table: 1960
cur table: 2044
epoch: 1000
next table: 1991
cur table: 1960
epoch: 1000
next table: 1932
cur table: 1991
epoch: 1000
next table: 2072
cur table: 1932
epoch: 1000
next table: 5093
cur table: 5117
epoch: 1000
next table: 2018
cur table: 2072
epoch: 1000
next table: 1990
cur table: 2018
epoch: 1000
next table: 1990
cur table: 1990
epoch: 1000
next table: 1961
cur table: 1990
epoch: 1000
next table: 2036
cur table: 1961
epoch: 1000
next table: 2020
cur table: 2036
epoch: 1000
next table: 1993
cur table: 2020
epoch: 1000
next table: 2007
cur table: 1993
epoch: 1000
next table: 1968
cur table: 2007
epoch: 1000
next table: 2026
cur table: 1968
epoch: 1000
next table: 2065
cur table: 2026
epoch: 1000
next table: 1978
cur table: 2065
epoch: 1000
next table: 5103
cur table: 5093
epoch: 1000
next table: 1968
cur table: 1978
epoch: 1000
next table: 1960
cur table: 1968
epoch: 1000
next table: 2030
cur table: 1960
epoch: 1000
next table: 2058
cur table: 2030
epoch: 1000
next table: 1984
cur table: 2058
epoch: 1000
next table: 1990
cur table: 1984
epoch: 1000
next table: 1953
cur table: 1990
epoch: 1000
next table: 2044
cur table: 1953
epoch: 1000
next table: 2016
cur table: 2044
epoch: 1000
next table: 1932
cur table: 2016
epoch: 1000
next table: 1993
cur table: 1932
epoch: 1000
next table: 1998
cur table: 1993
epoch: 1000
next table: 2043
cur table: 1998
epoch: 1000
next table: 5118
cur table: 5103
epoch: 1000
next table: 1997
cur table: 2043
epoch: 1000
next table: 1986
cur table: 1997
epoch: 1000
next table: 1966
cur table: 1986
epoch: 1000
next table: 1991
cur table: 1966
epoch: 1000
next table: 2068
cur table: 1991
epoch: 1000
next table: 2017
cur table: 2068
Heartbeat CPU 0 instructions: 30000000 cycles: 15198177 heartbeat IPC: 1.9709 cumulative IPC: 1.97392 (Simulation time: 0 hr 24 min 36 sec) 
epoch: 1000
next table: 1970
cur table: 2017
epoch: 1000
next table: 1967
cur table: 1970
epoch: 1000
next table: 1988
cur table: 1967
epoch: 1000
next table: 2075
cur table: 1988
epoch: 1000
next table: 2003
cur table: 2075
epoch: 1000
next table: 1993
cur table: 2003
epoch: 1000
next table: 5128
cur table: 5118
epoch: 1000
next table: 1988
cur table: 1993
epoch: 1000
next table: 1986
cur table: 1988
epoch: 1000
next table: 2028
cur table: 1986
epoch: 1000
next table: 2036
cur table: 2028
epoch: 1000
next table: 1961
cur table: 2036
epoch: 1000
next table: 1988
cur table: 1961
epoch: 1000
next table: 1967
cur table: 1988
epoch: 1000
next table: 2064
cur table: 1967
epoch: 1000
next table: 1984
cur table: 2064
epoch: 1000
next table: 1985
cur table: 1984
epoch: 1000
next table: 1986
cur table: 1985
epoch: 1000
next table: 1997
cur table: 1986
epoch: 1000
next table: 5135
cur table: 5128
epoch: 1000
next table: 2051
cur table: 1997
epoch: 1000
next table: 1981
cur table: 2051
epoch: 1000
next table: 1984
cur table: 1981
epoch: 1000
next table: 1984
cur table: 1984
epoch: 1000
next table: 1986
cur table: 1984
epoch: 1000
next table: 2083
cur table: 1986
epoch: 1000
next table: 1986
cur table: 2083
epoch: 1000
next table: 1979
cur table: 1986
epoch: 1000
next table: 1962
cur table: 1979
epoch: 1000
next table: 1977
cur table: 1962
epoch: 1000
next table: 2034
cur table: 1977
epoch: 1000
next table: 1984
cur table: 2034
epoch: 1000
next table: 1982
cur table: 1984
epoch: 1000
next table: 5128
cur table: 5135
epoch: 1000
next table: 1988
cur table: 1982
epoch: 1000
next table: 2016
cur table: 1988
epoch: 1000
next table: 2027
cur table: 2016
epoch: 1000
next table: 1988
cur table: 2027
epoch: 1000
next table: 1979
cur table: 1988
epoch: 1000
next table: 1971
cur table: 1979
epoch: 1000
next table: 2027
cur table: 1971
epoch: 1000
next table: 2020
cur table: 2027
epoch: 1000
next table: 1974
cur table: 2020
epoch: 1000
next table: 1974
cur table: 1974
epoch: 1000
next table: 1994
cur table: 1974
epoch: 1000
next table: 2050
cur table: 1994
epoch: 1000
next table: 5116
cur table: 5128
epoch: 1000
next table: 2013
cur table: 2050
epoch: 1000
next table: 1978
cur table: 2013
epoch: 1000
next table: 1988
cur table: 1978
epoch: 1000
next table: 1956
cur table: 1988
epoch: 1000
next table: 2064
cur table: 1956
epoch: 1000
next table: 2020
cur table: 2064
epoch: 1000
next table: 1963
cur table: 2020
epoch: 1000
next table: 1992
cur table: 1963
epoch: 1000
next table: 1989
cur table: 1992
epoch: 1000
next table: 2058
cur table: 1989
epoch: 1000
next table: 2003
cur table: 2058
epoch: 1000
next table: 1979
cur table: 2003
epoch: 1000
next table: 1914
cur table: 1979
epoch: 1000
next table: 5102
cur table: 5116
epoch: 1000
next table: 1999
cur table: 1914
epoch: 1000
next table: 2093
cur table: 1999
epoch: 1000
next table: 1986
cur table: 2093
epoch: 1000
next table: 1984
cur table: 1986
epoch: 1000
next table: 1964
cur table: 1984
epoch: 1000
next table: 1993
cur table: 1964
epoch: 1000
next table: 2065
cur table: 1993
epoch: 1000
next table: 1957
cur table: 2065
epoch: 1000
next table: 1974
cur table: 1957
epoch: 1000
next table: 2001
cur table: 1974
epoch: 1000
next table: 1996
cur table: 2001
epoch: 1000
next table: 2084
cur table: 1996
epoch: 1000
next table: 5089
cur table: 5102
epoch: 1000
next table: 2003
cur table: 2084
epoch: 1000
next table: 1927
cur table: 2003
epoch: 1000
next table: 1988
cur table: 1927
epoch: 1000
next table: 2028
cur table: 1988
epoch: 1000
next table: 2076
cur table: 2028
epoch: 1000
next table: 1960
cur table: 2076
epoch: 1000
next table: 1964
cur table: 1960
epoch: 1000
next table: 1959
cur table: 1964
epoch: 1000
next table: 2029
cur table: 1959
epoch: 1000
next table: 2057
cur table: 2029
epoch: 1000
next table: 1962
cur table: 2057
epoch: 1000
next table: 1990
cur table: 1962
epoch: 1000
next table: 5047
cur table: 5089
epoch: 1000
next table: 1989
cur table: 1990
epoch: 1000
next table: 2014
cur table: 1989
epoch: 1000
next table: 2020
cur table: 2014
epoch: 1000
next table: 1985
cur table: 2020
epoch: 1000
next table: 1987
cur table: 1985
epoch: 1000
next table: 1968
cur table: 1987
epoch: 1000
next table: 2036
cur table: 1968
epoch: 1000
next table: 2055
cur table: 2036
epoch: 1000
next table: 1983
cur table: 2055
epoch: 1000
next table: 1981
cur table: 1983
epoch: 1000
next table: 1940
cur table: 1981
epoch: 1000
next table: 2035
cur table: 1940
epoch: 1000
next table: 2025
cur table: 2035
epoch: 1000
next table: 5077
cur table: 5047
epoch: 1000
next table: 1989
cur table: 2025
epoch: 1000
next table: 2007
cur table: 1989
epoch: 1000
next table: 1971
cur table: 2007
epoch: 1000
next table: 2030
cur table: 1971
epoch: 1000
next table: 2040
cur table: 2030
epoch: 1000
next table: 1970
cur table: 2040
epoch: 1000
next table: 1987
cur table: 1970
epoch: 1000
next table: 1975
cur table: 1987
epoch: 1000
next table: 2023
cur table: 1975
epoch: 1000
next table: 2035
cur table: 2023
epoch: 1000
next table: 1996
cur table: 2035
epoch: 1000
next table: 1966
cur table: 1996
epoch: 1000
next table: 5139
cur table: 5077
epoch: 1000
next table: 1984
cur table: 1966
epoch: 1000
next table: 2034
cur table: 1984
epoch: 1000
next table: 2051
cur table: 2034
epoch: 1000
next table: 1962
cur table: 2051
epoch: 1000
next table: 1987
cur table: 1962
epoch: 1000
next table: 1970
cur table: 1987
epoch: 1000
next table: 2043
cur table: 1970
epoch: 1000
next table: 2013
cur table: 2043
epoch: 1000
next table: 1993
cur table: 2013
epoch: 1000
next table: 1979
cur table: 1993
epoch: 1000
next table: 1969
cur table: 1979
epoch: 1000
next table: 2042
cur table: 1969
epoch: 1000
next table: 5147
cur table: 5139
epoch: 1000
next table: 2011
cur table: 2042
epoch: 1000
next table: 1971
cur table: 2011
epoch: 1000
next table: 1984
cur table: 1971
epoch: 1000
next table: 1966
cur table: 1984
epoch: 1000
next table: 2056
cur table: 1966
epoch: 1000
next table: 2025
cur table: 2056
epoch: 1000
next table: 1920
cur table: 2025
epoch: 1000
next table: 1993
cur table: 1920
epoch: 1000
next table: 2005
cur table: 1993
epoch: 1000
next table: 2083
cur table: 2005
epoch: 1000
next table: 1962
cur table: 2083
epoch: 1000
next table: 1982
cur table: 1962
epoch: 1000
next table: 1983
cur table: 1982
epoch: 1000
next table: 5076
cur table: 5147
epoch: 1000
next table: 2004
cur table: 1983
epoch: 1000
next table: 2059
cur table: 2004
epoch: 1000
next table: 1990
cur table: 2059
epoch: 1000
next table: 1986
cur table: 1990
epoch: 1000
next table: 1986
cur table: 1986
epoch: 1000
next table: 1977
cur table: 1986
epoch: 1000
next table: 2036
cur table: 1977
epoch: 1000
next table: 1960
cur table: 2036
epoch: 1000
next table: 1962
cur table: 1960
epoch: 1000
next table: 1992
cur table: 1962
epoch: 1000
next table: 2043
cur table: 1992
epoch: 1000
next table: 2062
cur table: 2043
epoch: 1000
next table: 5114
cur table: 5076
epoch: 1000
next table: 1970
cur table: 2062
epoch: 1000
next table: 1987
cur table: 1970
epoch: 1000
next table: 1959
cur table: 1987
epoch: 1000
next table: 2022
cur table: 1959
epoch: 1000
next table: 2060
cur table: 2022
epoch: 1000
next table: 1987
cur table: 2060
epoch: 1000
next table: 1987
cur table: 1987
epoch: 1000
next table: 1969
cur table: 1987
epoch: 1000
next table: 2009
cur table: 1969
epoch: 1000
next table: 2040
cur table: 2009
epoch: 1000
next table: 1989
cur table: 2040
epoch: 1000
next table: 1988
cur table: 1989
epoch: 1000
next table: 1979
cur table: 1988
epoch: 1000
next table: 5114
cur table: 5114
epoch: 1000
next table: 2013
cur table: 1979
epoch: 1000
next table: 2031
cur table: 2013
epoch: 1000
next table: 1973
cur table: 2031
epoch: 1000
next table: 1940
cur table: 1973
epoch: 1000
next table: 2009
cur table: 1940
epoch: 1000
next table: 2049
cur table: 2009
epoch: 1000
next table: 2048
cur table: 2049
epoch: 1000
next table: 1962
cur table: 2048
epoch: 1000
next table: 1994
cur table: 1962
epoch: 1000
next table: 1957
cur table: 1994
epoch: 1000
next table: 2046
cur table: 1957
epoch: 1000
next table: 2068
cur table: 2046
epoch: 1000
next table: 5131
cur table: 5114
epoch: 1000
next table: 1967
cur table: 2068
epoch: 1000
next table: 1983
cur table: 1967
epoch: 1000
next table: 1962
cur table: 1983
epoch: 1000
next table: 2024
cur table: 1962
epoch: 1000
next table: 2064
cur table: 2024
epoch: 1000
next table: 1963
cur table: 2064
epoch: 1000
next table: 1986
cur table: 1963
epoch: 1000
next table: 1986
cur table: 1986
epoch: 1000
next table: 2009
cur table: 1986
epoch: 1000
next table: 2045
cur table: 2009
epoch: 1000
next table: 1968
cur table: 2045
epoch: 1000
next table: 1904
cur table: 1968
epoch: 1000
next table: 2017
cur table: 1904
epoch: 1000
next table: 5138
cur table: 5131
epoch: 1000
next table: 2080
cur table: 2017
epoch: 1000
next table: 2026
cur table: 2080
epoch: 1000
next table: 1968
cur table: 2026
epoch: 1000
next table: 1981
cur table: 1968
epoch: 1000
next table: 1984
cur table: 1981
epoch: 1000
next table: 2036
cur table: 1984
epoch: 1000
next table: 2026
cur table: 2036
epoch: 1000
next table: 1992
cur table: 2026
epoch: 1000
next table: 1990
cur table: 1992
epoch: 1000
next table: 1959
cur table: 1990
epoch: 1000
next table: 2049
cur table: 1959
epoch: 1000
next table: 2008
cur table: 2049
epoch: 1000
next table: 5095
cur table: 5138
epoch: 1000
next table: 1990
cur table: 2008
epoch: 1000
next table: 1986
cur table: 1990
epoch: 1000
next table: 1997
cur table: 1986
epoch: 1000
next table: 2026
cur table: 1997
epoch: 1000
next table: 2030
cur table: 2026
epoch: 1000
next table: 1970
cur table: 2030
epoch: 1000
next table: 1984
cur table: 1970
epoch: 1000
next table: 1987
cur table: 1984
epoch: 1000
next table: 2029
cur table: 1987
epoch: 1000
next table: 2039
cur table: 2029
epoch: 1000
next table: 1980
cur table: 2039
epoch: 1000
next table: 1984
cur table: 1980
epoch: 1000
next table: 5117
cur table: 5095
epoch: 1000
next table: 1986
cur table: 1984
epoch: 1000
next table: 2021
cur table: 1986
epoch: 1000
next table: 2034
cur table: 2021
epoch: 1000
next table: 1985
cur table: 2034
epoch: 1000
next table: 1964
cur table: 1985
epoch: 1000
next table: 1981
cur table: 1964
epoch: 1000
next table: 2045
cur table: 1981
epoch: 1000
next table: 1996
cur table: 2045
epoch: 1000
next table: 1953
cur table: 1996
epoch: 1000
next table: 1992
cur table: 1953
epoch: 1000
next table: 1991
cur table: 1992
epoch: 1000
next table: 2064
cur table: 1991
epoch: 1000
next table: 2015
cur table: 2064
epoch: 1000
next table: 5128
cur table: 5117
epoch: 1000
next table: 1971
cur table: 2015
epoch: 1000
next table: 1930
cur table: 1971
epoch: 1000
next table: 1997
cur table: 1930
epoch: 1000
next table: 2082
cur table: 1997
epoch: 1000
next table: 1989
cur table: 2082
epoch: 1000
next table: 1968
cur table: 1989
epoch: 1000
next table: 1983
cur table: 1968
epoch: 1000
next table: 1987
cur table: 1983
epoch: 1000
next table: 2030
cur table: 1987
Heartbeat CPU 0 instructions: 40000002 cycles: 20262233 heartbeat IPC: 1.9747 cumulative IPC: 1.97412 (Simulation time: 0 hr 32 min 38 sec) 
epoch: 1000
next table: 1983
cur table: 2030
epoch: 1000
next table: 1987
cur table: 1983
epoch: 1000
next table: 1979
cur table: 1987
epoch: 1000
next table: 5130
cur table: 5128
epoch: 1000
next table: 2019
cur table: 1979
epoch: 1000
next table: 2078
cur table: 2019
epoch: 1000
next table: 1969
cur table: 2078
epoch: 1000
next table: 1951
cur table: 1969
epoch: 1000
next table: 1993
cur table: 1951
epoch: 1000
next table: 2045
cur table: 1993
epoch: 1000
next table: 2035
cur table: 2045
epoch: 1000
next table: 1963
cur table: 2035
epoch: 1000
next table: 1989
cur table: 1963
epoch: 1000
next table: 1980
cur table: 1989
epoch: 1000
next table: 2021
cur table: 1980
epoch: 1000
next table: 2020
cur table: 2021
epoch: 1000
next table: 1991
cur table: 2020
epoch: 1000
next table: 5117
cur table: 5130
epoch: 1000
next table: 1984
cur table: 1991
epoch: 1000
next table: 1985
cur table: 1984
epoch: 1000
next table: 2032
cur table: 1985
epoch: 1000
next table: 2036
cur table: 2032
epoch: 1000
next table: 1960
cur table: 2036
epoch: 1000
next table: 1985
cur table: 1960
epoch: 1000
next table: 1987
cur table: 1985
epoch: 1000
next table: 2038
cur table: 1987
epoch: 1000
next table: 2045
cur table: 2038
epoch: 1000
next table: 1973
cur table: 2045
epoch: 1000
next table: 1982
cur table: 1973
epoch: 1000
next table: 1984
cur table: 1982
epoch: 1000
next table: 5090
cur table: 5117
epoch: 1000
next table: 2009
cur table: 1984
epoch: 1000
next table: 2026
cur table: 2009
epoch: 1000
next table: 1983
cur table: 2026
epoch: 1000
next table: 1991
cur table: 1983
epoch: 1000
next table: 1990
cur table: 1991
epoch: 1000
next table: 2033
cur table: 1990
epoch: 1000
next table: 2017
cur table: 2033
epoch: 1000
next table: 1983
cur table: 2017
epoch: 1000
next table: 1991
cur table: 1983
epoch: 1000
next table: 1968
cur table: 1991
epoch: 1000
next table: 2044
cur table: 1968
epoch: 1000
next table: 2032
cur table: 2044
epoch: 1000
next table: 5128
cur table: 5090
epoch: 1000
next table: 1966
cur table: 2032
epoch: 1000
next table: 1963
cur table: 1966
epoch: 1000
next table: 2010
cur table: 1963
epoch: 1000
next table: 2040
cur table: 2010
epoch: 1000
next table: 2029
cur table: 2040
epoch: 1000
next table: 1991
cur table: 2029
epoch: 1000
next table: 1986
cur table: 1991
epoch: 1000
next table: 1955
cur table: 1986
epoch: 1000
next table: 2039
cur table: 1955
epoch: 1000
next table: 2047
cur table: 2039
epoch: 1000
next table: 1993
cur table: 2047
epoch: 1000
next table: 1985
cur table: 1993
epoch: 1000
next table: 1966
cur table: 1985
epoch: 1000
next table: 5109
cur table: 5128
epoch: 1000
next table: 2019
cur table: 1966
epoch: 1000
next table: 2013
cur table: 2019
epoch: 1000
next table: 1953
cur table: 2013
epoch: 1000
next table: 1994
cur table: 1953
epoch: 1000
next table: 1988
cur table: 1994
epoch: 1000
next table: 2051
cur table: 1988
epoch: 1000
next table: 2043
cur table: 2051
epoch: 1000
next table: 1984
cur table: 2043
epoch: 1000
next table: 1928
cur table: 1984
epoch: 1000
next table: 2015
cur table: 1928
epoch: 1000
next table: 2055
cur table: 2015
epoch: 1000
next table: 2032
cur table: 2055
epoch: 1000
next table: 5088
cur table: 5109
epoch: 1000
next table: 1989
cur table: 2032
epoch: 1000
next table: 1953
cur table: 1989
epoch: 1000
next table: 1942
cur table: 1953
epoch: 1000
next table: 2070
cur table: 1942
epoch: 1000
next table: 2008
cur table: 2070
epoch: 1000
next table: 1996
cur table: 2008
epoch: 1000
next table: 1991
cur table: 1996
epoch: 1000
next table: 1983
cur table: 1991
epoch: 1000
next table: 2030
cur table: 1983
epoch: 1000
next table: 2032
cur table: 2030
epoch: 1000
next table: 1953
cur table: 2032
epoch: 1000
next table: 1988
cur table: 1953
epoch: 1000
next table: 1971
cur table: 1988
epoch: 1000
next table: 5104
cur table: 5088
epoch: 1000
next table: 2056
cur table: 1971
epoch: 1000
next table: 2001
cur table: 2056
epoch: 1000
next table: 1987
cur table: 2001
epoch: 1000
next table: 1981
cur table: 1987
epoch: 1000
next table: 1962
cur table: 1981
epoch: 1000
next table: 2068
cur table: 1962
epoch: 1000
next table: 2018
cur table: 2068
epoch: 1000
next table: 1967
cur table: 2018
epoch: 1000
next table: 1978
cur table: 1967
epoch: 1000
next table: 1986
cur table: 1978
epoch: 1000
next table: 2020
cur table: 1986
epoch: 1000
next table: 2008
cur table: 2020
epoch: 1000
next table: 5131
cur table: 5104
epoch: 1000
next table: 1997
cur table: 2008
epoch: 1000
next table: 1987
cur table: 1997
epoch: 1000
next table: 1983
cur table: 1987
epoch: 1000
next table: 2075
cur table: 1983
epoch: 1000
next table: 1990
cur table: 2075
epoch: 1000
next table: 1956
cur table: 1990
epoch: 1000
next table: 1968
cur table: 1956
epoch: 1000
next table: 2001
cur table: 1968
epoch: 1000
next table: 2087
cur table: 2001
epoch: 1000
next table: 1989
cur table: 2087
epoch: 1000
next table: 1989
cur table: 1989
epoch: 1000
next table: 1978
cur table: 1989
epoch: 1000
next table: 5081
cur table: 5131
epoch: 1000
next table: 1999
cur table: 1978
epoch: 1000
next table: 2059
cur table: 1999
epoch: 1000
next table: 1970
cur table: 2059
epoch: 1000
next table: 1983
cur table: 1970
epoch: 1000
next table: 1961
cur table: 1983
epoch: 1000
next table: 2011
cur table: 1961
epoch: 1000
next table: 2081
cur table: 2011
epoch: 1000
next table: 1960
cur table: 2081
epoch: 1000
next table: 1990
cur table: 1960
epoch: 1000
next table: 1984
cur table: 1990
epoch: 1000
next table: 1994
cur table: 1984
epoch: 1000
next table: 2074
cur table: 1994
epoch: 1000
next table: 1984
cur table: 2074
epoch: 1000
next table: 5131
cur table: 5081
epoch: 1000
next table: 1924
cur table: 1984
epoch: 1000
next table: 1998
cur table: 1924
epoch: 1000
next table: 2027
cur table: 1998
epoch: 1000
next table: 2069
cur table: 2027
epoch: 1000
next table: 1971
cur table: 2069
epoch: 1000
next table: 1990
cur table: 1971
epoch: 1000
next table: 1976
cur table: 1990
epoch: 1000
next table: 1989
cur table: 1976
epoch: 1000
next table: 2072
cur table: 1989
epoch: 1000
next table: 1985
cur table: 2072
epoch: 1000
next table: 1974
cur table: 1985
epoch: 1000
next table: 1959
cur table: 1974
epoch: 1000
next table: 5117
cur table: 5131
epoch: 1000
next table: 2024
cur table: 1959
epoch: 1000
next table: 2035
cur table: 2024
epoch: 1000
next table: 1985
cur table: 2035
epoch: 1000
next table: 1967
cur table: 1985
epoch: 1000
next table: 1985
cur table: 1967
epoch: 1000
next table: 2027
cur table: 1985
epoch: 1000
next table: 2057
cur table: 2027
epoch: 1000
next table: 1965
cur table: 2057
epoch: 1000
next table: 1961
cur table: 1965
epoch: 1000
next table: 1988
cur table: 1961
epoch: 1000
next table: 2030
cur table: 1988
epoch: 1000
next table: 2030
cur table: 2030
epoch: 1000
next table: 1989
cur table: 2030
epoch: 1000
next table: 5098
cur table: 5117
epoch: 1000
next table: 1955
cur table: 1989
epoch: 1000
next table: 1987
cur table: 1955
epoch: 1000
next table: 2046
cur table: 1987
epoch: 1000
next table: 2003
cur table: 2046
epoch: 1000
next table: 1989
cur table: 2003
epoch: 1000
next table: 1997
cur table: 1989
epoch: 1000
next table: 1966
cur table: 1997
epoch: 1000
next table: 2050
cur table: 1966
epoch: 1000
next table: 2011
cur table: 2050
epoch: 1000
next table: 1979
cur table: 2011
epoch: 1000
next table: 1938
cur table: 1979
epoch: 1000
next table: 1997
cur table: 1938
epoch: 1000
next table: 5134
cur table: 5098
epoch: 1000
next table: 2079
cur table: 1997
epoch: 1000
next table: 1997
cur table: 2079
epoch: 1000
next table: 1992
cur table: 1997
epoch: 1000
next table: 1988
cur table: 1992
epoch: 1000
next table: 1984
cur table: 1988
epoch: 1000
next table: 2044
cur table: 1984
epoch: 1000
next table: 1995
cur table: 2044
epoch: 1000
next table: 1989
cur table: 1995
epoch: 1000
next table: 1985
cur table: 1989
epoch: 1000
next table: 1984
cur table: 1985
epoch: 1000
next table: 2053
cur table: 1984
epoch: 1000
next table: 1981
cur table: 2053
epoch: 1000
next table: 1968
cur table: 1981
epoch: 1000
next table: 5104
cur table: 5134
epoch: 1000
next table: 2007
cur table: 1968
epoch: 1000
next table: 1989
cur table: 2007
epoch: 1000
next table: 2072
cur table: 1989
epoch: 1000
next table: 2038
cur table: 2072
epoch: 1000
next table: 1949
cur table: 2038
epoch: 1000
next table: 1968
cur table: 1949
epoch: 1000
next table: 1996
cur table: 1968
epoch: 1000
next table: 2055
cur table: 1996
epoch: 1000
next table: 2003
cur table: 2055
epoch: 1000
next table: 1982
cur table: 2003
epoch: 1000
next table: 1988
cur table: 1982
epoch: 1000
next table: 1967
cur table: 1988
epoch: 1000
next table: 5052
cur table: 5104
epoch: 1000
next table: 2064
cur table: 1967
epoch: 1000
next table: 1998
cur table: 2064
epoch: 1000
next table: 2005
cur table: 1998
epoch: 1000
next table: 1972
cur table: 2005
epoch: 1000
next table: 1959
cur table: 1972
epoch: 1000
next table: 2079
cur table: 1959
epoch: 1000
next table: 1999
cur table: 2079
epoch: 1000
next table: 1996
cur table: 1999
epoch: 1000
next table: 1983
cur table: 1996
epoch: 1000
next table: 1963
cur table: 1983
epoch: 1000
next table: 2057
cur table: 1963
epoch: 1000
next table: 2008
cur table: 2057
epoch: 1000
next table: 5124
cur table: 5052
epoch: 1000
next table: 1988
cur table: 2008
epoch: 1000
next table: 1983
cur table: 1988
epoch: 1000
next table: 1963
cur table: 1983
epoch: 1000
next table: 2061
cur table: 1963
epoch: 1000
next table: 1999
cur table: 2061
epoch: 1000
next table: 1986
cur table: 1999
epoch: 1000
next table: 1958
cur table: 1986
epoch: 1000
next table: 1992
cur table: 1958
epoch: 1000
next table: 2049
cur table: 1992
epoch: 1000
next table: 1974
cur table: 2049
epoch: 1000
next table: 1972
cur table: 1974
epoch: 1000
next table: 1983
cur table: 1972
epoch: 1000
next table: 5134
cur table: 5124
epoch: 1000
next table: 2022
cur table: 1983
epoch: 1000
next table: 2053
cur table: 2022
epoch: 1000
next table: 1970
cur table: 2053
epoch: 1000
next table: 1959
cur table: 1970
epoch: 1000
next table: 1984
cur table: 1959
epoch: 1000
next table: 2025
cur table: 1984
epoch: 1000
next table: 2042
cur table: 2025
epoch: 1000
next table: 1966
cur table: 2042
epoch: 1000
next table: 1986
cur table: 1966
epoch: 1000
next table: 1953
cur table: 1986
epoch: 1000
next table: 2062
cur table: 1953
epoch: 1000
next table: 2036
cur table: 2062
epoch: 1000
next table: 1985
cur table: 2036
epoch: 1000
next table: 5103
cur table: 5134
epoch: 1000
next table: 1984
cur table: 1985
epoch: 1000
next table: 1988
cur table: 1984
epoch: 1000
next table: 2010
cur table: 1988
epoch: 1000
next table: 2054
cur table: 2010
epoch: 1000
next table: 1980
cur table: 2054
epoch: 1000
next table: 1941
cur table: 1980
epoch: 1000
next table: 1987
cur table: 1941
epoch: 1000
next table: 2049
cur table: 1987
epoch: 1000
next table: 2044
cur table: 2049
epoch: 1000
next table: 1980
cur table: 2044
epoch: 1000
next table: 1900
cur table: 1980
epoch: 1000
next table: 2019
cur table: 1900
epoch: 1000
next table: 5108
cur table: 5103
Heartbeat CPU 0 instructions: 50000002 cycles: 25323170 heartbeat IPC: 1.97592 cumulative IPC: 1.97448 (Simulation time: 0 hr 40 min 33 sec) 

Warmup complete CPU 0 instructions: 50000002 cycles: 25323170 (Simulation time: 0 hr 40 min 33 sec) 

epoch: 1000
next table: 1984
cur table: 1990
epoch: 1000
next table: 2036
cur table: 1984
epoch: 1000
next table: 2018
cur table: 2036
epoch: 1000
next table: 1958
cur table: 2018
epoch: 1000
next table: 1971
cur table: 1958
epoch: 1000
next table: 1987
cur table: 1971
epoch: 1000
next table: 2075
cur table: 1987
epoch: 1000
next table: 2019
cur table: 2075
epoch: 1000
next table: 1990
cur table: 2019
epoch: 1000
next table: 1957
cur table: 1990
epoch: 1000
next table: 1985
cur table: 1957
epoch: 1000
next table: 2057
cur table: 1985
epoch: 1000
next table: 2090
cur table: 2057
epoch: 1000
next table: 1966
cur table: 2090
epoch: 1000
next table: 1987
cur table: 1966
epoch: 1000
next table: 1962
cur table: 1987
epoch: 1000
next table: 2040
cur table: 1962
epoch: 1000
next table: 2014
cur table: 2040
epoch: 1000
next table: 1967
cur table: 2014
epoch: 1000
next table: 1985
cur table: 1967
epoch: 1000
next table: 1978
cur table: 1985
epoch: 1000
next table: 2060
cur table: 1978
epoch: 1000
next table: 2034
cur table: 2060
epoch: 1000
next table: 5104
cur table: 5083
epoch: 1000
next table: 1970
cur table: 2034
epoch: 1000
next table: 1987
cur table: 1970
epoch: 1000
next table: 2081
cur table: 1987
epoch: 1000
next table: 2047
cur table: 2081
epoch: 1000
next table: 1987
cur table: 2047
epoch: 1000
next table: 2035
cur table: 1987
epoch: 1000
next table: 1971
cur table: 2035
epoch: 1000
next table: 1997
cur table: 1971
epoch: 1000
next table: 2030
cur table: 1997
epoch: 1000
next table: 1988
cur table: 2030
epoch: 1000
next table: 1989
cur table: 1988
epoch: 1000
next table: 1990
cur table: 1989
epoch: 1000
next table: 5107
cur table: 5104
epoch: 1000
next table: 2115
cur table: 1990
epoch: 1000
next table: 2075
cur table: 2115
epoch: 1000
next table: 1940
cur table: 2075
epoch: 1000
next table: 1995
cur table: 1940
epoch: 1000
next table: 1962
cur table: 1995
epoch: 1000
next table: 2028
cur table: 1962
epoch: 1000
next table: 2056
cur table: 2028
epoch: 1000
next table: 1987
cur table: 2056
epoch: 1000
next table: 1964
cur table: 1987
epoch: 1000
next table: 1977
cur table: 1964
epoch: 1000
next table: 2024
cur table: 1977
epoch: 1000
next table: 2038
cur table: 2024
epoch: 1000
next table: 5087
cur table: 5107
epoch: 1000
next table: 1994
cur table: 2038
epoch: 1000
next table: 1961
cur table: 1994
epoch: 1000
next table: 1983
cur table: 1961
epoch: 1000
next table: 2070
cur table: 1983
epoch: 1000
next table: 2037
cur table: 2070
epoch: 1000
next table: 1989
cur table: 2037
epoch: 1000
next table: 1992
cur table: 1989
epoch: 1000
next table: 1986
cur table: 1992
epoch: 1000
next table: 2056
cur table: 1986
epoch: 1000
next table: 2013
cur table: 2056
epoch: 1000
next table: 1963
cur table: 2013
epoch: 1000
next table: 1962
cur table: 1963
epoch: 1000
next table: 1967
cur table: 1962
epoch: 1000
next table: 5181
cur table: 5087
epoch: 1000
next table: 2075
cur table: 1967
epoch: 1000
next table: 1996
cur table: 2075
epoch: 1000
next table: 1989
cur table: 1996
epoch: 1000
next table: 1966
cur table: 1989
epoch: 1000
next table: 1989
cur table: 1966
epoch: 1000
next table: 2045
cur table: 1989
epoch: 1000
next table: 2061
cur table: 2045
epoch: 1000
next table: 1982
cur table: 2061
epoch: 1000
next table: 1977
cur table: 1982
epoch: 1000
next table: 1995
cur table: 1977
epoch: 1000
next table: 2024
cur table: 1995
epoch: 1000
next table: 1988
cur table: 2024
epoch: 1000
next table: 5086
cur table: 5181
epoch: 1000
next table: 2043
cur table: 1988
epoch: 1000
next table: 1984
cur table: 2043
epoch: 1000
next table: 2025
cur table: 1984
epoch: 1000
next table: 2036
cur table: 2025
epoch: 1000
next table: 1990
cur table: 2036
epoch: 1000
next table: 1984
cur table: 1990
epoch: 1000
next table: 1978
cur table: 1984
epoch: 1000
next table: 2095
cur table: 1978
epoch: 1000
next table: 2048
cur table: 2095
epoch: 1000
next table: 1967
cur table: 2048
epoch: 1000
next table: 1975
cur table: 1967
epoch: 1000
next table: 1975
cur table: 1975
epoch: 1000
next table: 5136
cur table: 5086
epoch: 1000
next table: 2038
cur table: 1975
epoch: 1000
next table: 2018
cur table: 2038
epoch: 1000
next table: 1955
cur table: 2018
epoch: 1000
next table: 1994
cur table: 1955
epoch: 1000
next table: 1987
cur table: 1994
epoch: 1000
next table: 2046
cur table: 1987
epoch: 1000
next table: 2014
cur table: 2046
epoch: 1000
next table: 1961
cur table: 2014
epoch: 1000
next table: 1972
cur table: 1961
epoch: 1000
next table: 2014
cur table: 1972
epoch: 1000
next table: 2072
cur table: 2014
epoch: 1000
next table: 1991
cur table: 2072
epoch: 1000
next table: 1987
cur table: 1991
epoch: 1000
next table: 5122
cur table: 5136
epoch: 1000
next table: 1983
cur table: 1987
epoch: 1000
next table: 2011
cur table: 1983
epoch: 1000
next table: 2040
cur table: 2011
epoch: 1000
next table: 1995
cur table: 2040
epoch: 1000
next table: 2031
cur table: 1995
epoch: 1000
next table: 2007
cur table: 2031
epoch: 1000
next table: 1973
cur table: 2007
epoch: 1000
next table: 2046
cur table: 1973
epoch: 1000
next table: 1947
cur table: 2046
epoch: 1000
next table: 1980
cur table: 1947
epoch: 1000
next table: 1982
cur table: 1980
epoch: 1000
next table: 2023
cur table: 1982
epoch: 1000
next table: 5095
cur table: 5122
epoch: 1000
next table: 2069
cur table: 2023
epoch: 1000
next table: 1967
cur table: 2069
epoch: 1000
next table: 1991
cur table: 1967
epoch: 1000
next table: 2020
cur table: 1991
epoch: 1000
next table: 1971
cur table: 2020
epoch: 1000
next table: 2054
cur table: 1971
epoch: 1000
next table: 1959
cur table: 2054
epoch: 1000
next table: 1996
cur table: 1959
epoch: 1000
next table: 1980
cur table: 1996
epoch: 1000
next table: 2013
cur table: 1980
epoch: 1000
next table: 2049
cur table: 2013
epoch: 1000
next table: 1967
cur table: 2049
epoch: 1000
next table: 5117
cur table: 5095
epoch: 1000
next table: 1964
cur table: 1967
epoch: 1000
next table: 1986
cur table: 1964
epoch: 1000
next table: 2026
cur table: 1986
epoch: 1000
next table: 2036
cur table: 2026
epoch: 1000
next table: 1989
cur table: 2036
epoch: 1000
next table: 1985
cur table: 1989
epoch: 1000
next table: 1988
cur table: 1985
epoch: 1000
next table: 2005
cur table: 1988
epoch: 1000
next table: 2043
cur table: 2005
epoch: 1000
next table: 2015
cur table: 2043
epoch: 1000
next table: 1961
cur table: 2015
epoch: 1000
next table: 1989
cur table: 1961
epoch: 1000
next table: 5129
cur table: 5117
epoch: 1000
next table: 2011
cur table: 1989
epoch: 1000
next table: 2032
cur table: 2011
epoch: 1000
next table: 1970
cur table: 2032
epoch: 1000
next table: 1980
cur table: 1970
epoch: 1000
next table: 2133
cur table: 1980
epoch: 1000
next table: 2058
cur table: 2133
epoch: 1000
next table: 2012
cur table: 2058
epoch: 1000
next table: 1962
cur table: 2012
epoch: 1000
next table: 1957
cur table: 1962
epoch: 1000
next table: 1991
cur table: 1957
epoch: 1000
next table: 2074
cur table: 1991
epoch: 1000
next table: 1999
cur table: 2074
epoch: 1000
next table: 5101
cur table: 5129
epoch: 1000
next table: 1977
cur table: 1999
epoch: 1000
next table: 1965
cur table: 1977
epoch: 1000
next table: 1976
cur table: 1965
epoch: 1000
next table: 2077
cur table: 1976
epoch: 1000
next table: 1995
cur table: 2077
epoch: 1000
next table: 2176
cur table: 1995
epoch: 1000
next table: 2023
cur table: 2176
epoch: 1000
next table: 2011
cur table: 2023
epoch: 1000
next table: 2052
cur table: 2011
epoch: 1000
next table: 1991
cur table: 2052
epoch: 1000
next table: 1987
cur table: 1991
epoch: 1000
next table: 1985
cur table: 1987
epoch: 1000
next table: 1993
cur table: 1985
epoch: 1000
next table: 5069
cur table: 5101
epoch: 1000
next table: 2068
cur table: 1993
epoch: 1000
next table: 1988
cur table: 2068
epoch: 1000
next table: 1924
cur table: 1988
epoch: 1000
next table: 2012
cur table: 1924
epoch: 1000
next table: 2019
cur table: 2012
epoch: 1000
next table: 2058
cur table: 2019
epoch: 1000
next table: 1946
cur table: 2058
epoch: 1000
next table: 1981
cur table: 1946
epoch: 1000
next table: 1966
cur table: 1981
epoch: 1000
next table: 2045
cur table: 1966
epoch: 1000
next table: 2070
cur table: 2045
epoch: 1000
next table: 1974
cur table: 2070
epoch: 1000
next table: 5139
cur table: 5069
epoch: 1000
next table: 1975
cur table: 1974
epoch: 1000
next table: 1962
cur table: 1975
epoch: 1000
next table: 2025
cur table: 1962
epoch: 1000
next table: 2061
cur table: 2025
epoch: 1000
next table: 1964
cur table: 2061
epoch: 1000
next table: 1988
cur table: 1964
epoch: 1000
next table: 1988
cur table: 1988
epoch: 1000
next table: 2044
cur table: 1988
epoch: 1000
next table: 2024
cur table: 2044
epoch: 1000
next table: 1993
cur table: 2024
epoch: 1000
next table: 1988
cur table: 1993
epoch: 1000
next table: 2004
cur table: 1988
epoch: 1000
next table: 5164
cur table: 5139
epoch: 1000
next table: 2043
cur table: 2004
epoch: 1000
next table: 1996
cur table: 2043
epoch: 1000
next table: 1959
cur table: 1996
epoch: 1000
next table: 1991
cur table: 1959
epoch: 1000
next table: 1988
cur table: 1991
epoch: 1000
next table: 2029
cur table: 1988
epoch: 1000
next table: 1989
cur table: 2029
epoch: 1000
next table: 2017
cur table: 1989
epoch: 1000
next table: 1991
cur table: 2017
epoch: 1000
next table: 1984
cur table: 1991
epoch: 1000
next table: 2057
cur table: 1984
epoch: 1000
next table: 1966
cur table: 2057
epoch: 1000
next table: 5110
cur table: 5164
epoch: 1000
next table: 1921
cur table: 1966
epoch: 1000
next table: 2104
cur table: 1921
epoch: 1000
next table: 2085
cur table: 2104
epoch: 1000
next table: 2049
cur table: 2085
epoch: 1000
next table: 1975
cur table: 2049
epoch: 1000
next table: 2005
cur table: 1975
epoch: 1000
next table: 1964
cur table: 2005
epoch: 1000
next table: 2023
cur table: 1964
epoch: 1000
next table: 2039
cur table: 2023
epoch: 1000
next table: 1989
cur table: 2039
epoch: 1000
next table: 2005
cur table: 1989
epoch: 1000
next table: 1961
cur table: 2005
epoch: 1000
next table: 2028
cur table: 1961
epoch: 1000
next table: 5082
cur table: 5110
epoch: 1000
next table: 2017
cur table: 2028
epoch: 1000
next table: 1971
cur table: 2017
epoch: 1000
next table: 1988
cur table: 1971
epoch: 1000
next table: 2002
cur table: 1988
epoch: 1000
next table: 2063
cur table: 2002
epoch: 1000
next table: 2013
cur table: 2063
epoch: 1000
next table: 1987
cur table: 2013
epoch: 1000
next table: 2123
cur table: 1987
epoch: 1000
next table: 2000
cur table: 2123
epoch: 1000
next table: 2074
cur table: 2000
epoch: 1000
next table: 1993
cur table: 2074
epoch: 1000
next table: 1976
cur table: 1993
epoch: 1000
next table: 5101
cur table: 5082
epoch: 1000
next table: 1988
cur table: 1976
epoch: 1000
next table: 1991
cur table: 1988
epoch: 1000
next table: 2057
cur table: 1991
epoch: 1000
next table: 1948
cur table: 2057
epoch: 1000
next table: 1990
cur table: 1948
epoch: 1000
next table: 1988
cur table: 1990
Heartbeat CPU 0 instructions: 60000000 cycles: 40437974 heartbeat IPC: 0.661603 cumulative IPC: 0.661603 (Simulation time: 0 hr 49 min 59 sec) 
epoch: 1000
next table: 2000
cur table: 1988
epoch: 1000
next table: 2066
cur table: 2000
epoch: 1000
next table: 1976
cur table: 2066
epoch: 1000
next table: 1965
cur table: 1976
epoch: 1000
next table: 1944
cur table: 1965
epoch: 1000
next table: 2048
cur table: 1944
epoch: 1000
next table: 5105
cur table: 5101
epoch: 1000
next table: 2031
cur table: 2048
epoch: 1000
next table: 2001
cur table: 2031
epoch: 1000
next table: 1978
cur table: 2001
epoch: 1000
next table: 1968
cur table: 1978
epoch: 1000
next table: 2044
cur table: 1968
epoch: 1000
next table: 2016
cur table: 2044
epoch: 1000
next table: 2051
cur table: 2016
epoch: 1000
next table: 1983
cur table: 2051
epoch: 1000
next table: 1986
cur table: 1983
epoch: 1000
next table: 2040
cur table: 1986
epoch: 1000
next table: 2046
cur table: 2040
epoch: 1000
next table: 1926
cur table: 2046
epoch: 1000
next table: 5104
cur table: 5105
epoch: 1000
next table: 2025
cur table: 1926
epoch: 1000
next table: 1966
cur table: 2025
epoch: 1000
next table: 2081
cur table: 1966
epoch: 1000
next table: 1985
cur table: 2081
epoch: 1000
next table: 2016
cur table: 1985
epoch: 1000
next table: 1973
cur table: 2016
epoch: 1000
next table: 1999
cur table: 1973
epoch: 1000
next table: 2073
cur table: 1999
epoch: 1000
next table: 2006
cur table: 2073
epoch: 1000
next table: 1960
cur table: 2006
epoch: 1000
next table: 2025
cur table: 1960
epoch: 1000
next table: 1978
cur table: 2025
epoch: 1000
next table: 2026
cur table: 1978
epoch: 1000
next table: 5141
cur table: 5104
epoch: 1000
next table: 1953
cur table: 2026
epoch: 1000
next table: 1999
cur table: 1953
epoch: 1000
next table: 1985
cur table: 1999
epoch: 1000
next table: 2031
cur table: 1985
epoch: 1000
next table: 2038
cur table: 2031
epoch: 1000
next table: 1987
cur table: 2038
epoch: 1000
next table: 1982
cur table: 1987
epoch: 1000
next table: 1979
cur table: 1982
epoch: 1000
next table: 2041
cur table: 1979
epoch: 1000
next table: 2058
cur table: 2041
epoch: 1000
next table: 1989
cur table: 2058
epoch: 1000
next table: 2051
cur table: 1989
epoch: 1000
next table: 5094
cur table: 5141
epoch: 1000
next table: 1960
cur table: 2051
epoch: 1000
next table: 2038
cur table: 1960
epoch: 1000
next table: 2008
cur table: 2038
epoch: 1000
next table: 1964
cur table: 2008
epoch: 1000
next table: 2010
cur table: 1964
epoch: 1000
next table: 1969
cur table: 2010
epoch: 1000
next table: 2071
cur table: 1969
epoch: 1000
next table: 2009
cur table: 2071
epoch: 1000
next table: 1960
cur table: 2009
epoch: 1000
next table: 1951
cur table: 1960
epoch: 1000
next table: 2005
cur table: 1951
epoch: 1000
next table: 2057
cur table: 2005
epoch: 1000
next table: 5097
cur table: 5094
epoch: 1000
next table: 1998
cur table: 2057
epoch: 1000
next table: 1970
cur table: 1998
epoch: 1000
next table: 1986
cur table: 1970
epoch: 1000
next table: 1998
cur table: 1986
epoch: 1000
next table: 2051
cur table: 1998
epoch: 1000
next table: 2001
cur table: 2051
epoch: 1000
next table: 1981
cur table: 2001
epoch: 1000
next table: 1983
cur table: 1981
epoch: 1000
next table: 1993
cur table: 1983
epoch: 1000
next table: 2046
cur table: 1993
epoch: 1000
next table: 1990
cur table: 2046
epoch: 1000
next table: 1969
cur table: 1990
epoch: 1000
next table: 5098
cur table: 5097
epoch: 1000
next table: 1979
cur table: 1969
epoch: 1000
next table: 2024
cur table: 1979
epoch: 1000
next table: 2061
cur table: 2024
epoch: 1000
next table: 2024
cur table: 2061
epoch: 1000
next table: 1981
cur table: 2024
epoch: 1000
next table: 1996
cur table: 1981
epoch: 1000
next table: 2051
cur table: 1996
epoch: 1000
next table: 2039
cur table: 2051
epoch: 1000
next table: 1985
cur table: 2039
epoch: 1000
next table: 1986
cur table: 1985
epoch: 1000
next table: 1959
cur table: 1986
epoch: 1000
next table: 2020
cur table: 1959
epoch: 1000
next table: 5128
cur table: 5098
epoch: 1000
next table: 2012
cur table: 2020
epoch: 1000
next table: 2005
cur table: 2012
epoch: 1000
next table: 1961
cur table: 2005
epoch: 1000
next table: 1991
cur table: 1961
epoch: 1000
next table: 2048
cur table: 1991
epoch: 1000
next table: 2018
cur table: 2048
epoch: 1000
next table: 1953
cur table: 2018
epoch: 1000
next table: 1967
cur table: 1953
epoch: 1000
next table: 2061
cur table: 1967
epoch: 1000
next table: 2051
cur table: 2061
epoch: 1000
next table: 2009
cur table: 2051
epoch: 1000
next table: 1984
cur table: 2009
epoch: 1000
next table: 1968
cur table: 1984
epoch: 1000
next table: 5129
cur table: 5128
epoch: 1000
next table: 1960
cur table: 1968
epoch: 1000
next table: 2096
cur table: 1960
epoch: 1000
next table: 1985
cur table: 2096
epoch: 1000
next table: 1968
cur table: 1985
epoch: 1000
next table: 1986
cur table: 1968
epoch: 1000
next table: 1985
cur table: 1986
epoch: 1000
next table: 2043
cur table: 1985
epoch: 1000
next table: 2092
cur table: 2043
epoch: 1000
next table: 1987
cur table: 2092
epoch: 1000
next table: 1988
cur table: 1987
epoch: 1000
next table: 2038
cur table: 1988
epoch: 1000
next table: 2054
cur table: 2038
epoch: 1000
next table: 5105
cur table: 5129
epoch: 1000
next table: 1981
cur table: 2054
epoch: 1000
next table: 2047
cur table: 1981
epoch: 1000
next table: 1984
cur table: 2047
epoch: 1000
next table: 2065
cur table: 1984
epoch: 1000
next table: 2059
cur table: 2065
epoch: 1000
next table: 1978
cur table: 2059
epoch: 1000
next table: 1986
cur table: 1978
epoch: 1000
next table: 1983
cur table: 1986
epoch: 1000
next table: 2008
cur table: 1983
epoch: 1000
next table: 2053
cur table: 2008
epoch: 1000
next table: 2038
cur table: 2053
epoch: 1000
next table: 1968
cur table: 2038
epoch: 1000
next table: 5103
cur table: 5105
epoch: 1000
next table: 1988
cur table: 1968
epoch: 1000
next table: 2012
cur table: 1988
epoch: 1000
next table: 2016
cur table: 2012
epoch: 1000
next table: 1964
cur table: 2016
epoch: 1000
next table: 1986
cur table: 1964
epoch: 1000
next table: 1965
cur table: 1986
epoch: 1000
next table: 2057
cur table: 1965
epoch: 1000
next table: 2033
cur table: 2057
epoch: 1000
next table: 1959
cur table: 2033
epoch: 1000
next table: 1992
cur table: 1959
epoch: 1000
next table: 1967
cur table: 1992
epoch: 1000
next table: 2065
cur table: 1967
epoch: 1000
next table: 5068
cur table: 5103
epoch: 1000
next table: 2007
cur table: 2065
epoch: 1000
next table: 1990
cur table: 2007
epoch: 1000
next table: 2034
cur table: 1990
epoch: 1000
next table: 1976
cur table: 2034
epoch: 1000
next table: 2057
cur table: 1976
epoch: 1000
next table: 1980
cur table: 2057
epoch: 1000
next table: 1973
cur table: 1980
epoch: 1000
next table: 1981
cur table: 1973
epoch: 1000
next table: 1990
cur table: 1981
epoch: 1000
next table: 2061
cur table: 1990
epoch: 1000
next table: 2116
cur table: 2061
epoch: 1000
next table: 1989
cur table: 2116
epoch: 1000
next table: 1962
cur table: 1989
epoch: 1000
next table: 5120
cur table: 5068
epoch: 1000
next table: 2014
cur table: 1962
epoch: 1000
next table: 2071
cur table: 2014
epoch: 1000
next table: 1985
cur table: 2071
epoch: 1000
next table: 2054
cur table: 1985
epoch: 1000
next table: 1969
cur table: 2054
epoch: 1000
next table: 1999
cur table: 1969
epoch: 1000
next table: 2056
cur table: 1999
epoch: 1000
next table: 1961
cur table: 2056
epoch: 1000
next table: 1984
cur table: 1961
epoch: 1000
next table: 1990
cur table: 1984
epoch: 1000
next table: 2015
cur table: 1990
epoch: 1000
next table: 2056
cur table: 2015
epoch: 1000
next table: 5110
cur table: 5120
epoch: 1000
next table: 1936
cur table: 2056
epoch: 1000
next table: 1986
cur table: 1936
epoch: 1000
next table: 1992
cur table: 1986
epoch: 1000
next table: 2025
cur table: 1992
epoch: 1000
next table: 2058
cur table: 2025
epoch: 1000
next table: 1991
cur table: 2058
epoch: 1000
next table: 1938
cur table: 1991
epoch: 1000
next table: 1988
cur table: 1938
epoch: 1000
next table: 2033
cur table: 1988
epoch: 1000
next table: 2052
cur table: 2033
epoch: 1000
next table: 1986
cur table: 2052
epoch: 1000
next table: 1967
cur table: 1986
epoch: 1000
next table: 5129
cur table: 5110
epoch: 1000
next table: 1961
cur table: 1967
epoch: 1000
next table: 2026
cur table: 1961
epoch: 1000
next table: 2030
cur table: 2026
epoch: 1000
next table: 1959
cur table: 2030
epoch: 1000
next table: 1984
cur table: 1959
epoch: 1000
next table: 1993
cur table: 1984
epoch: 1000
next table: 2032
cur table: 1993
epoch: 1000
next table: 2052
cur table: 2032
epoch: 1000
next table: 1969
cur table: 2052
epoch: 1000
next table: 1978
cur table: 1969
epoch: 1000
next table: 1941
cur table: 1978
epoch: 1000
next table: 2052
cur table: 1941
epoch: 1000
next table: 2028
cur table: 2052
epoch: 1000
next table: 5118
cur table: 5129
epoch: 1000
next table: 1985
cur table: 2028
epoch: 1000
next table: 1973
cur table: 1985
epoch: 1000
next table: 1956
cur table: 1973
epoch: 1000
next table: 2076
cur table: 1956
epoch: 1000
next table: 2030
cur table: 2076
epoch: 1000
next table: 1965
cur table: 2030
epoch: 1000
next table: 1960
cur table: 1965
epoch: 1000
next table: 1988
cur table: 1960
epoch: 1000
next table: 2073
cur table: 1988
epoch: 1000
next table: 2074
cur table: 2073
epoch: 1000
next table: 2064
cur table: 2074
epoch: 1000
next table: 1984
cur table: 2064
epoch: 1000
next table: 5120
cur table: 5118
epoch: 1000
next table: 1998
cur table: 1984
epoch: 1000
next table: 2072
cur table: 1998
epoch: 1000
next table: 1992
cur table: 2072
epoch: 1000
next table: 1984
cur table: 1992
epoch: 1000
next table: 2105
cur table: 1984
epoch: 1000
next table: 1998
cur table: 2105
epoch: 1000
next table: 2060
cur table: 1998
epoch: 1000
next table: 1966
cur table: 2060
epoch: 1000
next table: 1960
cur table: 1966
[...]
cur table: 1978
epoch: 1000
next table: 1982
cur table: 2035
epoch: 1000
next table: 2010
cur table: 1982
epoch: 1000
next table: 1986
cur table: 2010
epoch: 1000
next table: 1990
cur table: 1986
epoch: 1000
next table: 1994
cur table: 1990
epoch: 1000
next table: 1989
cur table: 1994
epoch: 1000
next table: 5073
cur table: 5067
epoch: 1000
next table: 2031
cur table: 1989
epoch: 1000
next table: 1999
cur table: 2031
epoch: 1000
next table: 1960
cur table: 1999
epoch: 1000
next table: 1985
cur table: 1960
epoch: 1000
next table: 1992
cur table: 1985
epoch: 1000
next table: 2050
cur table: 1992
epoch: 1000
next table: 2031
cur table: 2050
epoch: 1000
next table: 1940
cur table: 2031
epoch: 1000
next table: 1991
cur table: 1940
epoch: 1000
next table: 1984
cur table: 1991
epoch: 1000
next table: 2015
cur table: 1984
epoch: 1000
next table: 1962
cur table: 2015
epoch: 1000
next table: 5076
cur table: 5073
epoch: 1000
next table: 1988
cur table: 1962
epoch: 1000
next table: 2011
cur table: 1988
epoch: 1000
next table: 2030
cur table: 2011
epoch: 1000
next table: 2033
cur table: 2030
epoch: 1000
next table: 1978
cur table: 2033
epoch: 1000
next table: 1968
cur table: 1978
epoch: 1000
next table: 1933
cur table: 1968
epoch: 1000
next table: 2057
cur table: 1933
epoch: 1000
next table: 2000
cur table: 2057
epoch: 1000
next table: 1986
cur table: 2000
epoch: 1000
next table: 1987
cur table: 1986
epoch: 1000
next table: 1981
cur table: 1987
epoch: 1000
next table: 5099
cur table: 5076
epoch: 1000
next table: 2061
cur table: 1981
epoch: 1000
next table: 1975
cur table: 2061
epoch: 1000
next table: 1988
cur table: 1975
epoch: 1000
next table: 1980
cur table: 1988
epoch: 1000
next table: 1992
cur table: 1980
epoch: 1000
next table: 2054
cur table: 1992
epoch: 1000
next table: 1991
cur table: 2054
epoch: 1000
next table: 1953
cur table: 1991
epoch: 1000
next table: 1994
cur table: 1953
epoch: 1000
next table: 2021
cur table: 1994
epoch: 1000
next table: 2066
cur table: 2021
epoch: 1000
next table: 1963
cur table: 2066
epoch: 1000
next table: 5116
cur table: 5099
epoch: 1000
next table: 1959
cur table: 1963
epoch: 1000
next table: 1999
cur table: 1959
epoch: 1000
next table: 2016
cur table: 1999
epoch: 1000
next table: 2043
cur table: 2016
epoch: 1000
next table: 1990
cur table: 2043
epoch: 1000
next table: 1970
cur table: 1990
epoch: 1000
next table: 1953
cur table: 1970
epoch: 1000
next table: 2096
cur table: 1953
epoch: 1000
next table: 2018
cur table: 2096
epoch: 1000
next table: 2014
cur table: 2018
epoch: 1000
next table: 1986
cur table: 2014
epoch: 1000
next table: 1956
cur table: 1986
epoch: 1000
next table: 2053
cur table: 1956
epoch: 1000
next table: 5117
cur table: 5116
epoch: 1000
next table: 2012
cur table: 2053
epoch: 1000
next table: 1949
cur table: 2012
epoch: 1000
next table: 1962
cur table: 1949
epoch: 1000
next table: 2004
cur table: 1962
epoch: 1000
next table: 2072
cur table: 2004
epoch: 1000
next table: 1996
cur table: 2072
epoch: 1000
next table: 1982
cur table: 1996
epoch: 1000
next table: 1999
cur table: 1982
epoch: 1000
next table: 2038
cur table: 1999
epoch: 1000
next table: 2038
cur table: 2038
epoch: 1000
next table: 1984
cur table: 2038
epoch: 1000
next table: 1968
cur table: 1984
epoch: 1000
next table: 5100
cur table: 5117
epoch: 1000
next table: 1983
cur table: 1968
epoch: 1000
next table: 2026
cur table: 1983
epoch: 1000
next table: 2040
cur table: 2026
epoch: 1000
next table: 1953
cur table: 2040
epoch: 1000
next table: 1969
cur table: 1953
epoch: 1000
next table: 1985
cur table: 1969
epoch: 1000
next table: 2026
cur table: 1985
Heartbeat CPU 0 instructions: 100000003 cycles: 100788076 heartbeat IPC: 0.661579 cumulative IPC: 0.66256 (Simulation time: 1 hr 27 min 20 sec) 
Finished CPU 0 instructions: 50000001 cycles: 75464906 cumulative IPC: 0.66256 (Simulation time: 1 hr 27 min 20 sec) 

ChampSim completed all CPUs

Region of Interest Statistics

CPU 0 cumulative IPC: 0.66256 instructions: 50000001 cycles: 75464906
ITLB TOTAL     ACCESS:    6420659  HIT:    6420659  MISS:          0  HIT %:        100  MISS %:          0   MPKI: 0
ITLB LOAD TRANSLATION ACCESS:    6420659  HIT:    6420659  MISS:          0  HIT %:        100  MISS %:          0   MPKI: 0
ITLB PREFETCH  REQUESTED:          0  ISSUED:          0  USEFUL:          0  USELESS:          0
ITLB USEFUL LOAD PREFETCHES:          0 PREFETCH ISSUED TO LOWER LEVEL:          0  ACCURACY: -nan
ITLB TIMELY PREFETCHES:          0 LATE PREFETCHES: 0 DROPPED PREFETCHES: 0
ITLB PREFETCHES SAME FILL-ORIGIN LEVEL: 0 DIFFERENT FILL-ORIGIN LEVEL: 0
ITLB AVERAGE MISS LATENCY: -nan cycles
ITLB RQ	ACCESS:    6824086	FORWARD:          0	MERGED:     403427	TO_CACHE:    6420659

Revised Interactions: positive negative neutral
ITLB_interactions 0 0 0 -nan -nan -nan
DTLB TOTAL     ACCESS:   22161946  HIT:   21901002  MISS:     260944  HIT %:    98.8226  MISS %:    1.17744   MPKI: 5.21888
DTLB LOAD TRANSLATION ACCESS:   22161946  HIT:   21901002  MISS:     260944  HIT %:    98.8226  MISS %:    1.17744   MPKI: 5.21888
DTLB PREFETCH  REQUESTED:          0  ISSUED:          0  USEFUL:          0  USELESS:          0
DTLB USEFUL LOAD PREFETCHES:          0 PREFETCH ISSUED TO LOWER LEVEL:          0  ACCURACY: -nan
DTLB TIMELY PREFETCHES:          0 LATE PREFETCHES: 0 DROPPED PREFETCHES: 0
DTLB PREFETCHES SAME FILL-ORIGIN LEVEL: 0 DIFFERENT FILL-ORIGIN LEVEL: 0
DTLB AVERAGE MISS LATENCY: 163.853 cycles
DTLB RQ	ACCESS:   24637872	FORWARD:          0	MERGED:    2464348	TO_CACHE:   22173524

Revised Interactions: positive negative neutral
DTLB_interactions 0 0 0 -nan -nan -nan
STLB TOTAL     ACCESS:     260944  HIT:      91168  MISS:     169776  HIT %:    34.9378  MISS %:    65.0622   MPKI: 3.39552
STLB LOAD TRANSLATION ACCESS:     260944  HIT:      91168  MISS:     169776  HIT %:    34.9378  MISS %:    65.0622   MPKI: 3.39552
STLB PREFETCH  REQUESTED:          0  ISSUED:          0  USEFUL:          0  USELESS:          0
STLB USEFUL LOAD PREFETCHES:          0 PREFETCH ISSUED TO LOWER LEVEL:          0  ACCURACY: -nan
STLB TIMELY PREFETCHES:          0 LATE PREFETCHES: 0 DROPPED PREFETCHES: 0
STLB PREFETCHES SAME FILL-ORIGIN LEVEL: 0 DIFFERENT FILL-ORIGIN LEVEL: 0
STLB AVERAGE MISS LATENCY: 220.32 cycles
STLB RQ	ACCESS:     260944	FORWARD:          0	MERGED:          0	TO_CACHE:     260944

Revised Interactions: positive negative neutral
STLB_interactions 0 0 0 -nan -nan -nan
STLB Hit, L1D data hit: 0
STLB Hit, L2C data hit: 0
STLB Hit, LLC data hit: 0
STLB Hit, LLC data miss: 0
STLB STLB hints to L2: 0
L1D TOTAL     ACCESS:   24552858  HIT:   23590857  MISS:     962001  HIT %:    96.0819  MISS %:    3.91808   MPKI: 19.24
L1D LOAD      ACCESS:   21347211  HIT:   20385210  MISS:     962001  HIT %:    95.4936  MISS %:    4.50645   MPKI: 19.24
L1D RFO       ACCESS:    3205647  HIT:    3205647  MISS:          0  HIT %:        100  MISS %:          0   MPKI: 0
L1D PREFETCH  REQUESTED:          0  ISSUED:          0  USEFUL:          0  USELESS:          0
L1D USEFUL LOAD PREFETCHES:          0 PREFETCH ISSUED TO LOWER LEVEL:          0  ACCURACY: -nan
L1D TIMELY PREFETCHES:          0 LATE PREFETCHES: 0 DROPPED PREFETCHES: 0
L1D PREFETCHES SAME FILL-ORIGIN LEVEL: 0 DIFFERENT FILL-ORIGIN LEVEL: 0
L1D AVERAGE MISS LATENCY: 87.8585 cycles
L1D RQ	ACCESS:   31961713	FORWARD:          0	MERGED:   10524567	TO_CACHE:   21432224
L1D WQ	ACCESS:    3205648	FORWARD:       4922	MERGED:          0	TO_CACHE:    3205648

Revised Interactions: positive negative neutral
L1D_interactions 0 0 0 -nan -nan -nan
L1D UNIQUE REGIONS ACCESSED: 0
L1D REGIONS CONFLICTS: 0
L1D Cross Page Prefetch Requests: 0
L1D Same Page Prefetch Requests: 0
L1D ROI Sum of L1D PQ occupancy: 0
L1D PREFETCHES PUSHED FROM L2C: 0
L1I TOTAL     ACCESS:    6824084  HIT:    6824084  MISS:          0  HIT %:        100  MISS %:          0   MPKI: 0
L1I LOAD      ACCESS:    6824084  HIT:    6824084  MISS:          0  HIT %:        100  MISS %:          0   MPKI: 0
L1I PREFETCH  REQUESTED:          0  ISSUED:          0  USEFUL:          0  USELESS:          0
L1I USEFUL LOAD PREFETCHES:          0 PREFETCH ISSUED TO LOWER LEVEL:          0  ACCURACY: -nan
L1I TIMELY PREFETCHES:          0 LATE PREFETCHES: 0 DROPPED PREFETCHES: 0
L1I PREFETCHES SAME FILL-ORIGIN LEVEL: 0 DIFFERENT FILL-ORIGIN LEVEL: 0
L1I AVERAGE MISS LATENCY: -nan cycles
L1I RQ	ACCESS:   15592355	FORWARD:          0	MERGED:    8768269	TO_CACHE:    6824086

Revised Interactions: positive negative neutral
L1I_interactions 0 0 0 -nan -nan -nan
BTB TOTAL     ACCESS:     560940  HIT:     560935  MISS:          5  HIT %:    99.9991  MISS %: 0.000891361   MPKI: 0.0001
BTB BRANCH_DIRECT_JUMP	ACCESS:      40061  HIT:      40060  MISS:          1
BTB BRANCH_INDIRECT	ACCESS:          0  HIT:          0  MISS:          0
BTB BRANCH_CONDITIONAL	ACCESS:     520879  HIT:     520875  MISS:          4
BTB BRANCH_DIRECT_CALL	ACCESS:          0  HIT:          0  MISS:          0
BTB BRANCH_INDIRECT_CALL	ACCESS:          0  HIT:          0  MISS:          0
BTB BRANCH_RETURN	ACCESS:          0  HIT:          0  MISS:          0
BTB BRANCH_OTHER ACCESS:          0  HIT:          0  MISS:          0

L2C TOTAL     ACCESS:    2387600  HIT:    1249726  MISS:    1137874  HIT %:    52.3424  MISS %:    47.6576   MPKI: 22.7575
L2C LOAD      ACCESS:     962000  HIT:     586818  MISS:     375182  HIT %:    60.9998  MISS %:    39.0002   MPKI: 7.50364
L2C DATA LOAD MPKI: 7.50364
L2C INSTRUCTION LOAD MPKI: 0
L2C PREFETCH  ACCESS:     770037  HIT:      32329  MISS:     737708  HIT %:    4.19837  MISS %:    95.8016   MPKI: 14.7542
L2C DATA PREFETCH MPKI: 14.7542
L2C INSTRUCTION PREFETCH MPKI: 0
L2C WRITEBACK ACCESS:     485740  HIT:     482357  MISS:       3383  HIT %:    99.3035  MISS %:   0.696463   MPKI: 0.06766
L2C LOAD TRANSLATION ACCESS:     169823  HIT:     148222  MISS:      21601  HIT %:    87.2803  MISS %:    12.7197   MPKI: 0.43202
L2C PREFETCH  REQUESTED:     789513  ISSUED:     789513  USEFUL:     585770  USELESS:     151957
L2C USEFUL LOAD PREFETCHES:     585770 PREFETCH ISSUED TO LOWER LEVEL:     754135  ACCURACY: 77.6744
L2C TIMELY PREFETCHES:     585770 LATE PREFETCHES: 16427 DROPPED PREFETCHES: 0
L2C PREFETCHES SAME FILL-ORIGIN LEVEL: 754135 DIFFERENT FILL-ORIGIN LEVEL: 0
L2C AVERAGE MISS LATENCY: 197.211 cycles
L2C RQ	ACCESS:    1131823	FORWARD:          0	MERGED:          0	TO_CACHE:    1131823
L2C WQ	ACCESS:     485740	FORWARD:          0	MERGED:          0	TO_CACHE:     485740
L2C PQ	ACCESS:     789513	FORWARD:          0	MERGED:          0	TO_CACHE:     789513

Revised Interactions: positive negative neutral
L2C_interactions 583226 155804 47887 74.1153 19.7993 6.08539
L2C Instructions Evicting Data 0
L2C Translations Evicting Data 21513
L2C Data Evicting Data 1091427
L2C Instructions Evicting Instructions 0
L2C Translations Evicting Instructions 0
L2C Data Evicting Instructions 0
L2C Instructions Evicting Translations 0
L2C Translations Evicting Translations 88
L2C Data Evicting Translations 21463
L2C Dense regions hint from L2: 0
PSCL5 TOTAL     ACCESS:     169776  HIT:     169776  MISS:          0  HIT %:        100  MISS %:          0   MPKI: 0
PSCL5 LOAD TRANSLATION ACCESS:     169776  HIT:     169776  MISS:          0  HIT %:        100  MISS %:          0   MPKI: 0
PSCL5 PREFETCH  REQUESTED:          0  ISSUED:          0  USEFUL:          0  USELESS:          0
PSCL5 USEFUL LOAD PREFETCHES:          0 PREFETCH ISSUED TO LOWER LEVEL:          0  ACCURACY: -nan
PSCL5 TIMELY PREFETCHES:          0 LATE PREFETCHES: 0 DROPPED PREFETCHES: 0
PSCL5 PREFETCHES SAME FILL-ORIGIN LEVEL: 0 DIFFERENT FILL-ORIGIN LEVEL: 0

Revised Interactions: positive negative neutral
PSCL5_interactions 0 0 0 -nan -nan -nan
PSCL4 TOTAL     ACCESS:     169776  HIT:     169776  MISS:          0  HIT %:        100  MISS %:          0   MPKI: 0
PSCL4 LOAD TRANSLATION ACCESS:     169776  HIT:     169776  MISS:          0  HIT %:        100  MISS %:          0   MPKI: 0
PSCL4 PREFETCH  REQUESTED:          0  ISSUED:          0  USEFUL:          0  USELESS:          0
PSCL4 USEFUL LOAD PREFETCHES:          0 PREFETCH ISSUED TO LOWER LEVEL:          0  ACCURACY: -nan
PSCL4 TIMELY PREFETCHES:          0 LATE PREFETCHES: 0 DROPPED PREFETCHES: 0
PSCL4 PREFETCHES SAME FILL-ORIGIN LEVEL: 0 DIFFERENT FILL-ORIGIN LEVEL: 0

Revised Interactions: positive negative neutral
PSCL4_interactions 0 0 0 -nan -nan -nan
PSCL3 TOTAL     ACCESS:     169776  HIT:     169776  MISS:          0  HIT %:        100  MISS %:          0   MPKI: 0
PSCL3 LOAD TRANSLATION ACCESS:     169776  HIT:     169776  MISS:          0  HIT %:        100  MISS %:          0   MPKI: 0
PSCL3 PREFETCH  REQUESTED:          0  ISSUED:          0  USEFUL:          0  USELESS:          0
PSCL3 USEFUL LOAD PREFETCHES:          0 PREFETCH ISSUED TO LOWER LEVEL:          0  ACCURACY: -nan
PSCL3 TIMELY PREFETCHES:          0 LATE PREFETCHES: 0 DROPPED PREFETCHES: 0
PSCL3 PREFETCHES SAME FILL-ORIGIN LEVEL: 0 DIFFERENT FILL-ORIGIN LEVEL: 0

Revised Interactions: positive negative neutral
PSCL3_interactions 0 0 0 -nan -nan -nan
PSCL2 TOTAL     ACCESS:     169776  HIT:     169481  MISS:        295  HIT %:    99.8262  MISS %:   0.173758   MPKI: 0.0059
PSCL2 LOAD TRANSLATION ACCESS:     169776  HIT:     169481  MISS:        295  HIT %:    99.8262  MISS %:   0.173758   MPKI: 0.0059
PSCL2 PREFETCH  REQUESTED:          0  ISSUED:          0  USEFUL:          0  USELESS:          0
PSCL2 USEFUL LOAD PREFETCHES:          0 PREFETCH ISSUED TO LOWER LEVEL:          0  ACCURACY: -nan
PSCL2 TIMELY PREFETCHES:          0 LATE PREFETCHES: 0 DROPPED PREFETCHES: 0
PSCL2 PREFETCHES SAME FILL-ORIGIN LEVEL: 0 DIFFERENT FILL-ORIGIN LEVEL: 0

Revised Interactions: positive negative neutral
PSCL2_interactions 0 0 0 -nan -nan -nan
LLC TOTAL     ACCESS:    1620148  HIT:     113470  MISS:    1506678  HIT %:    7.00368  MISS %:    92.9963   MPKI: 30.1336
LLC LOAD      ACCESS:     358755  HIT:      91507  MISS:     267248  HIT %:    25.5068  MISS %:    74.4932   MPKI: 5.34496
LLC PREFETCH  ACCESS:     754135  HIT:      13613  MISS:     740522  HIT %:    1.80511  MISS %:    98.1949   MPKI: 14.8104
LLC WRITEBACK ACCESS:     485657  HIT:       3004  MISS:     482653  HIT %:   0.618544  MISS %:    99.3815   MPKI: 9.65306
LLC LOAD TRANSLATION ACCESS:      21601  HIT:       5346  MISS:      16255  HIT %:    24.7489  MISS %:    75.2511   MPKI: 0.3251
LLC PREFETCH  REQUESTED:          0  ISSUED:          0  USEFUL:          1  USELESS:          0
LLC USEFUL LOAD PREFETCHES:          1 PREFETCH ISSUED TO LOWER LEVEL:     740522  ACCURACY: 0.00013504
LLC TIMELY PREFETCHES:          1 LATE PREFETCHES: 0 DROPPED PREFETCHES: 0
LLC PREFETCHES SAME FILL-ORIGIN LEVEL: 0 DIFFERENT FILL-ORIGIN LEVEL: 0
LLC AVERAGE MISS LATENCY: 120.521 cycles
LLC RQ	ACCESS:     380356	FORWARD:          0	MERGED:          0	TO_CACHE:     380356
LLC WQ	ACCESS:     485657	FORWARD:          0	MERGED:          0	TO_CACHE:     485657
LLC PQ	ACCESS:     754135	FORWARD:          0	MERGED:          0	TO_CACHE:     754135

Revised Interactions: positive negative neutral
LLC_interactions 0 0 0 -nan -nan -nan
LLC Dense regions hint to LLC: 0

RAW hits: 48629
Loads Generated: 32010344
Loads sent to L1D: 31961713
Stores Generated: 3205648
Stores sent to L1D: 3205648
Major fault: 0 Minor fault: 257109
Allocated PAGES: 257109
[Bingo] PHT Access: 344019
[Bingo] PHT Hit PC+Addr: 4336
[Bingo] PHT Hit PC+Offs: 333800
[Bingo] PHT Miss: 5883
[Bingo] Prefetch PC+Addr: 0
[Bingo] Prefetch PC+Offs: 0
[Bingo] Useful PC+Addr: 0
[Bingo] Useful PC+Offs: 0
[Bingo] Useless PC+Addr: 0
[Bingo] Useless PC+Offs: 0
[Bingo] L1 Prefetch per Region: 0
[Bingo] L2 Prefetch per Region: 3.3539
[Bingo] L3 Prefetch per Region: 0
[Bingo] No Prefetch per Region: 28.6461
[Bingo] Number of Voters Mean: 14.0074
[Bingo] Number of Voters SD: 14.7662
PHT read accesses: 5385663
PHT write accesses: 325360
AT read accesses: 627475
AT write accesses: 943341
FT read accesses: 984744
FT write accesses: 344019
PS read accesses: 694084
PS write accesses: 338136
PHT tag read accesses: 15807672
PHT tag write accesses: 329696
AT tag read accesses: 49143448
AT tag write accesses: 952835
FT tag read accesses: 42580208
FT tag write accesses: 1003403
PS tag read accesses: 28772832
PS tag write accesses: 1031943

DRAM Statistics
 CHANNEL 0
 RQ ROW_BUFFER_HIT:     449603  ROW_BUFFER_MISS:     574422
 DBUS_CONGESTED:        307
 WQ ROW_BUFFER_HIT:      24474  ROW_BUFFER_MISS:     460826  FULL:          0

 AVG_CONGESTED_CYCLE: 4
 All warmup complete: 2
Channel 0 Bank busy for read cycles: 0
Channel 0 Bank busy for write cycles: 0
Channel 0
Rank 0
0banks busy for read cycles: 21951376
0banks busy for write cycles: 54204
1banks busy for read cycles: 6701359
1banks busy for write cycles: 5442588
2banks busy for read cycles: 5873583
2banks busy for write cycles: 3520252
3banks busy for read cycles: 5425847
3banks busy for write cycles: 2914089
4banks busy for read cycles: 3708228
4banks busy for write cycles: 2605160
5banks busy for read cycles: 3067291
5banks busy for write cycles: 2540540
6banks busy for read cycles: 2493749
6banks busy for write cycles: 2474948
7banks busy for read cycles: 1718783
7banks busy for write cycles: 1862401
8banks busy for read cycles: 2095816
8banks busy for write cycles: 1014693

CPU 0 Branch Prediction Accuracy: 93.3275% MPKI: 0.80204 Average ROB Occupancy at Mispredict: 343.992
Branch types
NOT_BRANCH: 49398961 98.7979%
BRANCH_DIRECT_JUMP: 40061 0.080122%
BRANCH_INDIRECT: 0 0%
BRANCH_CONDITIONAL: 560940 1.12188%
BRANCH_DIRECT_CALL: 0 0%
BRANCH_INDIRECT_CALL: 0 0%
BRANCH_RETURN: 0 0%
BRANCH_OTHER: 0 0%

@sumon_overall_L1D         0         0         0         0         0         0         0
@Sumon_Early_by_class_L1D         0         0         0         0
@Sumon_Late_by_class_L1D         0         0         0         0

@Sumon_Early_by_cycle_L1D         0         0         0         0         0         0         0         0         0         0         0         0
@Sumon_Late_by_cycle_L1D         0         0         0         0         0         0
@Sumon_Early_stream_L1D         0         0         0         0         0         0         0         0         0         0         0         0
@Sumon_Early_CS_L1D         0         0         0         0         0         0         0         0         0         0         0         0
@Sumon_Early_CPLX_L1D         0         0         0         0         0         0         0         0         0         0         0         0
@Sumon_Late_stream_L1D         0         0         0         0         0         0
@Sumon_Late_CS_L1D         0         0         0         0         0         0
@Sumon_Late_CPLX_L1D         0         0         0         0         0         0
@sumon_overall_L2C    585770     16427         0    151957    737708    789513    789513
@Sumon_Early_by_class_L2C         0         0         0         0
@Sumon_Late_by_class_L2C         0         0         0         0

@Sumon_Early_by_cycle_L2C      9549     24720     80947    105895     86784     90669     13239     28584     63111     74530      2555      5187
@Sumon_Late_by_cycle_L2C       721       866      1656      3442      9732        10
@Sumon_Early_stream_L2C         0         0         0         0         0         0         0         0         0         0         0         0
@Sumon_Early_CS_L2C         0         0         0         0         0         0         0         0         0         0         0         0
@Sumon_Early_CPLX_L2C         0         0         0         0         0         0         0         0         0         0         0         0
@Sumon_Late_stream_L2C         0         0         0         0         0         0
@Sumon_Late_CS_L2C         0         0         0         0         0         0
@Sumon_Late_CPLX_L2C         0         0         0         0         0         0
DRAM PAGES: 1048576
Allocated PAGES: 257109
