
*** ChampSim Multicore Out-of-Order Simulator ***

Warmup Instructions: 50000000
Simulation Instructions: 50000000
Number of CPUs: 1
LLC sets: 2048
LLC ways: 16
Off-chip DRAM Size: 4096 MB Channels: 1 Width: 64-bit Data Rate: 6400 MT/s
CPU 0 runs ../../biswa/SPEC2017Traces/654.roms_s-1070B.champsimtrace.xz
.xz
CPU 0 Bimodal branch predictor
BTB has LRU replacement policy
ITLB has LRU replacement policy
DTLB has LRU replacement policy
STLB has LRU replacement policy
L1I has LRU replacement policy
L1D has LRU replacement policy
Bingo PHT WAYS: 16 and PHT_SIZE: 16384
Initialize DRRIP state for L2C
epoch: 1000
next table: 2018
cur table: 9685
epoch: 1000
next table: 1868
cur table: 2018
epoch: 1000
next table: 1857
cur table: 1868
epoch: 1000
next table: 1924
cur table: 1857
epoch: 1000
next table: 1809
cur table: 1924
epoch: 1000
next table: 1896
cur table: 1809
epoch: 1000
next table: 1926
cur table: 1896
epoch: 1000
next table: 1852
cur table: 1926
epoch: 1000
next table: 1921
cur table: 1852
epoch: 1000
next table: 1913
cur table: 1921
epoch: 1000
next table: 1880
cur table: 1913
epoch: 1000
next table: 1927
cur table: 1880
epoch: 1000
next table: 1975
cur table: 1927
epoch: 1000
next table: 1911
cur table: 1975
epoch: 1000
next table: 1965
cur table: 1911
epoch: 1000
next table: 1834
cur table: 1965
epoch: 1000
next table: 1942
cur table: 1834
epoch: 1000
next table: 1935
cur table: 1942
epoch: 1000
next table: 1970
cur table: 1935
epoch: 1000
next table: 1877
cur table: 1970
epoch: 1000
next table: 1977
cur table: 1877
epoch: 1000
next table: 1934
cur table: 1977
epoch: 1000
next table: 1978
cur table: 1934
epoch: 1000
next table: 2006
cur table: 1978
epoch: 1000
next table: 1365
cur table: 9162
epoch: 1000
next table: 1954
cur table: 2006
epoch: 1000
next table: 1248
cur table: 1365
epoch: 1000
next table: 1906
cur table: 1954
epoch: 1000
next table: 1191
cur table: 1248
epoch: 1000
next table: 1995
cur table: 1906
epoch: 1000
next table: 1807
cur table: 1995
epoch: 1000
next table: 1190
cur table: 1191
epoch: 1000
next table: 1843
cur table: 1807
epoch: 1000
next table: 1177
cur table: 1190
epoch: 1000
next table: 1874
cur table: 1843
epoch: 1000
next table: 1186
cur table: 1177
epoch: 1000
next table: 1917
cur table: 1874
epoch: 1000
next table: 1152
cur table: 1186
epoch: 1000
next table: 1872
cur table: 1917
epoch: 1000
next table: 1160
cur table: 1152
epoch: 1000
next table: 1948
cur table: 1872
epoch: 1000
next table: 1175
cur table: 1160
epoch: 1000
next table: 1837
cur table: 1948
epoch: 1000
next table: 1149
cur table: 1175
epoch: 1000
next table: 1902
cur table: 1837
epoch: 1000
next table: 1193
cur table: 1149
epoch: 1000
next table: 1947
cur table: 1902
epoch: 1000
next table: 1158
cur table: 1193
epoch: 1000
next table: 1894
cur table: 1947
epoch: 1000
next table: 1161
cur table: 1158
epoch: 1000
next table: 1942
cur table: 1894
epoch: 1000
next table: 1150
cur table: 1161
epoch: 1000
next table: 1968
cur table: 1942
epoch: 1000
next table: 1768
cur table: 1150
epoch: 1000
next table: 1950
cur table: 1968
epoch: 1000
next table: 1599
cur table: 1768
epoch: 1000
next table: 1932
cur table: 1950
epoch: 1000
next table: 1534
cur table: 1599
epoch: 1000
next table: 2002
cur table: 1932
epoch: 1000
next table: 1553
cur table: 1534
epoch: 1000
next table: 1951
cur table: 2002
epoch: 1000
next table: 1546
cur table: 1553
epoch: 1000
next table: 2024
cur table: 1951
epoch: 1000
next table: 1540
cur table: 1546
epoch: 1000
next table: 1988
cur table: 2024
epoch: 1000
next table: 1672
cur table: 1540
epoch: 1000
next table: 1873
cur table: 1988
epoch: 1000
next table: 1615
cur table: 1672
epoch: 1000
next table: 1881
cur table: 1873
epoch: 1000
next table: 1643
cur table: 1615
epoch: 1000
next table: 1848
cur table: 1881
epoch: 1000
next table: 1609
cur table: 1643
epoch: 1000
next table: 1888
cur table: 1848
epoch: 1000
next table: 1592
cur table: 1609
epoch: 1000
next table: 1877
cur table: 1888
epoch: 1000
next table: 1583
cur table: 1592
epoch: 1000
next table: 1904
cur table: 1877
epoch: 1000
next table: 1545
cur table: 1583
epoch: 1000
next table: 1878
cur table: 1904
epoch: 1000
next table: 1481
cur table: 1545
epoch: 1000
next table: 1967
cur table: 1878
epoch: 1000
next table: 1495
cur table: 1481
epoch: 1000
next table: 1962
cur table: 1967
epoch: 1000
next table: 1511
cur table: 1495
epoch: 1000
next table: 1950
cur table: 1962
epoch: 1000
next table: 1521
cur table: 1511
epoch: 1000
next table: 1995
cur table: 1950
epoch: 1000
next table: 1524
cur table: 1521
epoch: 1000
next table: 1977
cur table: 1995
epoch: 1000
next table: 1507
cur table: 1524
epoch: 1000
next table: 1927
cur table: 1977
epoch: 1000
next table: 1439
cur table: 1507
epoch: 1000
next table: 1845
cur table: 1927
epoch: 1000
next table: 1466
cur table: 1439
epoch: 1000
next table: 1856
cur table: 1845
epoch: 1000
next table: 1440
cur table: 1466
epoch: 1000
next table: 1910
cur table: 1856
epoch: 1000
next table: 1471
cur table: 1440
epoch: 1000
next table: 1846
cur table: 1910
epoch: 1000
next table: 1504
cur table: 1471
epoch: 1000
next table: 1872
cur table: 1846
epoch: 1000
next table: 1484
cur table: 1504
epoch: 1000
next table: 1921
cur table: 1872
epoch: 1000
next table: 1473
cur table: 1484
epoch: 1000
next table: 1920
cur table: 1921
epoch: 1000
next table: 1508
cur table: 1473
epoch: 1000
next table: 1931
cur table: 1920
epoch: 1000
next table: 1491
cur table: 1508
epoch: 1000
next table: 1981
cur table: 1931
epoch: 1000
next table: 1500
cur table: 1491
epoch: 1000
next table: 1979
cur table: 1981
epoch: 1000
next table: 1534
cur table: 1500
epoch: 1000
next table: 2010
cur table: 1979
epoch: 1000
next table: 1513
cur table: 1534
epoch: 1000
next table: 1961
cur table: 2010
epoch: 1000
next table: 1461
cur table: 1513
epoch: 1000
next table: 1870
cur table: 1961
epoch: 1000
next table: 1469
cur table: 1461
epoch: 1000
next table: 1841
cur table: 1870
epoch: 1000
next table: 1434
cur table: 1469
epoch: 1000
next table: 1826
cur table: 1841
epoch: 1000
next table: 1517
cur table: 1434
epoch: 1000
next table: 1886
cur table: 1826
epoch: 1000
next table: 1913
cur table: 1886
epoch: 1000
next table: 2000
cur table: 1517
epoch: 1000
next table: 1877
cur table: 1913
epoch: 1000
next table: 1937
cur table: 1877
epoch: 1000
next table: 2000
cur table: 2000
epoch: 1000
next table: 1924
cur table: 1937
epoch: 1000
next table: 1945
cur table: 1924
epoch: 1000
next table: 2000
cur table: 2000
epoch: 1000
next table: 1945
cur table: 1945
epoch: 1000
next table: 2026
cur table: 1945
epoch: 1000
next table: 2000
cur table: 2000
epoch: 1000
next table: 1964
cur table: 2026
epoch: 1000
next table: 1898
cur table: 1964
epoch: 1000
next table: 1829
cur table: 1898
epoch: 1000
next table: 2000
cur table: 2000
epoch: 1000
next table: 1863
cur table: 1829
epoch: 1000
next table: 1905
cur table: 1863
epoch: 1000
next table: 2000
cur table: 2000
epoch: 1000
next table: 1856
cur table: 1905
epoch: 1000
next table: 1873
cur table: 1856
epoch: 1000
next table: 2001
cur table: 2000
epoch: 1000
next table: 1919
cur table: 1873
epoch: 1000
next table: 1919
cur table: 1919
epoch: 1000
next table: 2000
cur table: 2001
epoch: 1000
next table: 1946
cur table: 1919
epoch: 1000
next table: 1992
cur table: 1946
epoch: 1000
next table: 2000
cur table: 2000
epoch: 1000
next table: 1956
cur table: 1992
epoch: 1000
next table: 2043
cur table: 1956
epoch: 1000
next table: 2000
cur table: 2000
epoch: 1000
next table: 1922
cur table: 2043
epoch: 1000
next table: 1837
cur table: 1922
epoch: 1000
next table: 2000
cur table: 2000
epoch: 1000
next table: 1873
cur table: 1837
epoch: 1000
next table: 1831
cur table: 1873
epoch: 1000
next table: 2000
cur table: 2000
epoch: 1000
next table: 1880
cur table: 1831
epoch: 1000
next table: 1915
cur table: 1880
epoch: 1000
next table: 2000
cur table: 2000
epoch: 1000
next table: 1887
cur table: 1915
epoch: 1000
next table: 1954
cur table: 1887
epoch: 1000
next table: 2000
cur table: 2000
epoch: 1000
next table: 1924
cur table: 1954
epoch: 1000
next table: 1925
cur table: 1924
epoch: 1000
next table: 2000
cur table: 2000
epoch: 1000
next table: 1990
cur table: 1925
epoch: 1000
next table: 1984
cur table: 1990
epoch: 1000
next table: 2000
cur table: 2000
epoch: 1000
next table: 2022
cur table: 1984
epoch: 1000
next table: 1829
cur table: 2022
epoch: 1000
next table: 2000
cur table: 2000
epoch: 1000
next table: 1835
cur table: 1829
epoch: 1000
next table: 1862
cur table: 1835
epoch: 1000
next table: 1910
cur table: 1862
epoch: 1000
next table: 2000
cur table: 2000
epoch: 1000
next table: 1853
cur table: 1910
epoch: 1000
next table: 1869
cur table: 1853
epoch: 1000
next table: 2000
cur table: 2000
epoch: 1000
next table: 1929
cur table: 1869
epoch: 1000
next table: 1918
cur table: 1929
epoch: 1000
next table: 1985
cur table: 1918
epoch: 1000
next table: 1974
cur table: 1985
epoch: 1000
next table: 1943
cur table: 1974
epoch: 1000
next table: 2034
cur table: 1943
epoch: 1000
next table: 1915
cur table: 2034
epoch: 1000
next table: 1803
cur table: 1915
epoch: 1000
next table: 1901
cur table: 1803
epoch: 1000
next table: 5446
cur table: 2000
epoch: 1000
next table: 1835
cur table: 1901
epoch: 1000
next table: 1882
cur table: 1835
epoch: 1000
next table: 1914
cur table: 1882
epoch: 1000
next table: 1875
cur table: 1914
epoch: 1000
next table: 1953
cur table: 1875
epoch: 1000
next table: 1933
cur table: 1953
epoch: 1000
next table: 1931
cur table: 1933
epoch: 1000
next table: 1999
cur table: 1931
epoch: 1000
next table: 1973
cur table: 1999
epoch: 1000
next table: 1985
cur table: 1973
epoch: 1000
next table: 1865
cur table: 1985
epoch: 1000
next table: 1814
cur table: 1865
epoch: 1000
next table: 1880
cur table: 1814
epoch: 1000
next table: 1915
cur table: 1880
epoch: 1000
next table: 1851
cur table: 1915
epoch: 1000
next table: 1871
cur table: 1851
epoch: 1000
next table: 1937
cur table: 1871
epoch: 1000
next table: 1925
cur table: 1937
epoch: 1000
next table: 1988
cur table: 1925
epoch: 1000
next table: 1953
cur table: 1988
epoch: 1000
next table: 1994
cur table: 1953
epoch: 1000
next table: 1990
cur table: 1994
epoch: 1000
next table: 1907
cur table: 1990
epoch: 1000
next table: 1823
cur table: 1907
epoch: 1000
next table: 1886
cur table: 1823
epoch: 1000
next table: 1834
cur table: 1886
epoch: 1000
next table: 1878
cur table: 1834
epoch: 1000
next table: 1918
cur table: 1878
epoch: 1000
next table: 1915
cur table: 1918
epoch: 1000
next table: 1927
cur table: 1915
epoch: 1000
next table: 1927
cur table: 1927
epoch: 1000
next table: 1960
cur table: 1927
epoch: 1000
next table: 2002
cur table: 1960
epoch: 1000
next table: 1994
cur table: 2002
epoch: 1000
next table: 1967
cur table: 1994
epoch: 1000
next table: 1813
cur table: 1967
epoch: 1000
next table: 1815
cur table: 1813
epoch: 1000
next table: 1887
cur table: 1815
epoch: 1000
next table: 1913
cur table: 1887
epoch: 1000
next table: 1855
cur table: 1913
epoch: 1000
next table: 1869
cur table: 1855
epoch: 1000
next table: 1948
cur table: 1869
epoch: 1000
next table: 1923
cur table: 1948
epoch: 1000
next table: 1986
cur table: 1923
epoch: 1000
next table: 1956
cur table: 1986
epoch: 1000
next table: 2023
cur table: 1956
epoch: 1000
next table: 1951
cur table: 2023
epoch: 1000
next table: 1907
cur table: 1951
epoch: 1000
next table: 1802
cur table: 1907
epoch: 1000
next table: 1908
cur table: 1802
epoch: 1000
next table: 1837
cur table: 1908
epoch: 1000
next table: 1881
cur table: 1837
epoch: 1000
next table: 1916
cur table: 1881
epoch: 1000
next table: 1915
cur table: 1916
epoch: 1000
next table: 1925
cur table: 1915
epoch: 1000
next table: 1927
cur table: 1925
epoch: 1000
next table: 2002
cur table: 1927
epoch: 1000
next table: 1962
cur table: 2002
epoch: 1000
next table: 2044
cur table: 1962
epoch: 1000
next table: 1922
cur table: 2044
epoch: 1000
next table: 1813
cur table: 1922
epoch: 1000
next table: 1833
cur table: 1813
epoch: 1000
next table: 1865
cur table: 1833
epoch: 1000
next table: 1911
cur table: 1865
epoch: 1000
next table: 1858
cur table: 1911
epoch: 1000
next table: 1977
cur table: 1858
epoch: 1000
next table: 33282
cur table: 5446
epoch: 1000
next table: 1969
cur table: 1977
epoch: 1000
next table: 2035
cur table: 1969
epoch: 1000
next table: 2000
cur table: 33282
epoch: 1000
next table: 1994
cur table: 2035
epoch: 1000
next table: 2038
cur table: 1994
epoch: 1000
next table: 2000
cur table: 2000
epoch: 1000
next table: 1993
cur table: 2038
epoch: 1000
next table: 2011
cur table: 1993
epoch: 1000
next table: 2000
cur table: 2000
epoch: 1000
next table: 2021
cur table: 2011
epoch: 1000
next table: 2006
cur table: 2021
epoch: 1000
next table: 2000
cur table: 2000
epoch: 1000
next table: 2024
cur table: 2006
epoch: 1000
next table: 1987
cur table: 2024
epoch: 1000
next table: 2000
cur table: 2000
epoch: 1000
next table: 2027
cur table: 1987
epoch: 1000
next table: 2000
cur table: 2000
epoch: 1000
next table: 2007
cur table: 2027
epoch: 1000
next table: 2022
cur table: 2007
epoch: 1000
next table: 2000
cur table: 2000
epoch: 1000
next table: 2011
cur table: 2022
epoch: 1000
next table: 1996
cur table: 2011
epoch: 1000
next table: 2000
cur table: 2000
epoch: 1000
next table: 2035
cur table: 1996
epoch: 1000
next table: 1994
cur table: 2035
epoch: 1000
next table: 2000
cur table: 2000
epoch: 1000
next table: 2033
cur table: 1994
epoch: 1000
next table: 1994
cur table: 2033
epoch: 1000
next table: 2000
cur table: 2000
epoch: 1000
next table: 2012
cur table: 1994
epoch: 1000
next table: 2026
cur table: 2012
epoch: 1000
next table: 2000
cur table: 2000
epoch: 1000
next table: 2003
cur table: 2026
epoch: 1000
next table: 2029
cur table: 2003
epoch: 1000
next table: 2000
cur table: 2000
epoch: 1000
next table: 1986
cur table: 2029
epoch: 1000
next table: 2024
cur table: 1986
epoch: 1000
next table: 2000
cur table: 2000
epoch: 1000
next table: 2009
cur table: 2024
epoch: 1000
next table: 2018
cur table: 2009
epoch: 1000
next table: 2002
cur table: 2000
epoch: 1000
next table: 2011
cur table: 2018
epoch: 1000
next table: 1994
cur table: 2011
epoch: 1000
next table: 2000
cur table: 2002
epoch: 1000
next table: 2035
cur table: 1994
epoch: 1000
next table: 1996
cur table: 2035
epoch: 1000
next table: 2000
cur table: 2000
epoch: 1000
next table: 2034
cur table: 1996
epoch: 1000
next table: 1988
cur table: 2034
epoch: 1000
next table: 2001
cur table: 2000
epoch: 1000
next table: 2015
cur table: 1988
epoch: 1000
next table: 2020
cur table: 2015
epoch: 1000
next table: 2000
cur table: 2001
epoch: 1000
next table: 2010
cur table: 2020
epoch: 1000
next table: 2022
cur table: 2010
epoch: 1000
next table: 2000
cur table: 2000
epoch: 1000
next table: 1986
cur table: 2022
epoch: 1000
next table: 2030
cur table: 1986
epoch: 1000
next table: 2000
cur table: 2000
epoch: 1000
next table: 2005
cur table: 2030
epoch: 1000
next table: 2025
cur table: 2005
epoch: 1000
next table: 2001
cur table: 2000
epoch: 1000
next table: 2012
cur table: 2025
epoch: 1000
next table: 2001
cur table: 2001
epoch: 1000
next table: 1994
cur table: 2012
epoch: 1000
next table: 2036
cur table: 1994
epoch: 1000
next table: 2002
cur table: 2001
epoch: 1000
next table: 1990
cur table: 2036
epoch: 1000
next table: 2036
cur table: 1990
epoch: 1000
next table: 2001
cur table: 2002
epoch: 1000
next table: 1998
cur table: 2036
epoch: 1000
next table: 2008
cur table: 1998
epoch: 1000
next table: 2000
cur table: 2001
epoch: 1000
next table: 2026
cur table: 2008
epoch: 1000
next table: 2005
cur table: 2026
epoch: 1000
next table: 2001
cur table: 2000
epoch: 1000
next table: 2029
cur table: 2005
epoch: 1000
next table: 1984
cur table: 2029
epoch: 1000
next table: 2001
cur table: 2001
epoch: 1000
next table: 2024
cur table: 1984
epoch: 1000
next table: 2012
cur table: 2024
epoch: 1000
next table: 2001
cur table: 2001
epoch: 1000
next table: 2017
cur table: 2012
epoch: 1000
next table: 2017
cur table: 2017
epoch: 1000
next table: 2000
cur table: 2001
epoch: 1000
next table: 1986
cur table: 2017
epoch: 1000
next table: 2036
cur table: 1986
epoch: 1000
next table: 2001
cur table: 2000
epoch: 1000
next table: 1998
cur table: 2036
epoch: 1000
next table: 2031
cur table: 1998
epoch: 1000
next table: 2001
cur table: 2001
epoch: 1000
next table: 2003
cur table: 2031
epoch: 1000
next table: 2003
cur table: 2003
epoch: 1000
next table: 2000
cur table: 2001
epoch: 1000
next table: 2030
cur table: 2003
epoch: 1000
next table: 1999
cur table: 2030
epoch: 1000
next table: 2000
cur table: 2000
epoch: 1000
next table: 2034
cur table: 1999
epoch: 1000
next table: 1992
cur table: 2034
epoch: 1000
next table: 2000
cur table: 2000
epoch: 1000
next table: 2010
cur table: 1992
epoch: 1000
next table: 2022
cur table: 2010
epoch: 1000
next table: 2000
cur table: 2000
epoch: 1000
next table: 2011
cur table: 2022
epoch: 1000
next table: 2025
cur table: 2011
epoch: 1000
next table: 2000
cur table: 2000
epoch: 1000
next table: 1985
cur table: 2025
epoch: 1000
next table: 2029
cur table: 1985
epoch: 1000
next table: 2000
cur table: 2000
epoch: 1000
next table: 2004
cur table: 2029
epoch: 1000
next table: 2000
cur table: 2000
epoch: 1000
next table: 2023
cur table: 2004
epoch: 1000
next table: 2015
cur table: 2023
epoch: 1000
next table: 2000
cur table: 2000
epoch: 1000
next table: 1990
cur table: 2015
epoch: 1000
next table: 2036
cur table: 1990
epoch: 1000
next table: 2001
cur table: 2000
epoch: 1000
next table: 1994
cur table: 2036
epoch: 1000
next table: 2035
cur table: 1994
epoch: 1000
next table: 2000
cur table: 2001
epoch: 1000
next table: 2001
cur table: 2035
epoch: 1000
next table: 2006
cur table: 2001
epoch: 1000
next table: 2000
cur table: 2000
epoch: 1000
next table: 2029
cur table: 2006
epoch: 1000
next table: 1999
cur table: 2029
epoch: 1000
next table: 2000
cur table: 2000
epoch: 1000
next table: 2034
cur table: 1999
epoch: 1000
next table: 1984
cur table: 2034
epoch: 1000
next table: 2000
cur table: 2000
epoch: 1000
next table: 2020
cur table: 1984
epoch: 1000
next table: 2016
cur table: 2020
epoch: 1000
next table: 2000
cur table: 2000
epoch: 1000
next table: 2014
cur table: 2016
epoch: 1000
next table: 2019
cur table: 2014
epoch: 1000
next table: 2000
cur table: 2000
epoch: 1000
next table: 1990
cur table: 2019
epoch: 1000
next table: 2027
cur table: 1990
epoch: 1000
next table: 2000
cur table: 2000
epoch: 1000
next table: 2002
cur table: 2027
epoch: 1000
next table: 2023
cur table: 2002
epoch: 1000
next table: 2000
cur table: 2000
Heartbeat CPU 0 instructions: 10000002 cycles: 3113864 heartbeat IPC: 3.21144 cumulative IPC: 3.21144 (Simulation time: 0 hr 6 min 14 sec) 
epoch: 1000
next table: 2006
cur table: 2023
epoch: 1000
next table: 1999
cur table: 2006
epoch: 1000
next table: 2000
cur table: 2000
epoch: 1000
next table: 2030
cur table: 1999
epoch: 1000
next table: 2001
cur table: 2030
epoch: 1000
next table: 2353
cur table: 2000
epoch: 1000
next table: 2035
cur table: 2001
epoch: 1000
next table: 1989
cur table: 2035
epoch: 1000
next table: 2017
cur table: 1989
epoch: 1000
next table: 2017
cur table: 2017
epoch: 1000
next table: 2010
cur table: 2017
epoch: 1000
next table: 2020
cur table: 2010
epoch: 1000
next table: 1986
cur table: 2020
epoch: 1000
next table: 2032
cur table: 1986
epoch: 1000
next table: 2004
cur table: 2032
epoch: 1000
next table: 2026
cur table: 2004
epoch: 1000
next table: 2009
cur table: 2026
epoch: 1000
next table: 1997
cur table: 2009
epoch: 1000
next table: 2036
cur table: 1997
epoch: 1000
next table: 1995
cur table: 2036
epoch: 1000
next table: 2031
cur table: 1995
epoch: 1000
next table: 2003
cur table: 2031
epoch: 1000
next table: 2003
cur table: 2003
epoch: 1000
next table: 2034
cur table: 2003
epoch: 1000
next table: 1997
cur table: 2034
epoch: 1000
next table: 2031
cur table: 1997
epoch: 1000
next table: 1985
cur table: 2031
epoch: 1000
next table: 2021
cur table: 1985
epoch: 1000
next table: 2014
cur table: 2021
epoch: 1000
next table: 2016
cur table: 2014
epoch: 1000
next table: 2020
cur table: 2016
epoch: 1000
next table: 1988
cur table: 2020
epoch: 1000
next table: 2030
cur table: 1988
epoch: 1000
next table: 2007
cur table: 2030
epoch: 1000
next table: 2022
cur table: 2007
epoch: 1000
next table: 2013
cur table: 2022
epoch: 1000
next table: 1994
cur table: 2013
epoch: 1000
next table: 2035
cur table: 1994
epoch: 1000
next table: 1993
cur table: 2035
epoch: 1000
next table: 2034
cur table: 1993
epoch: 1000
next table: 2003
cur table: 2034
epoch: 1000
next table: 1900
cur table: 2003
epoch: 1000
next table: 1937
cur table: 1900
epoch: 1000
next table: 1849
cur table: 1937
epoch: 1000
next table: 1872
cur table: 1849
epoch: 1000
next table: 1927
cur table: 1872
epoch: 1000
next table: 1904
cur table: 1927
epoch: 1000
next table: 1952
cur table: 1904
epoch: 1000
next table: 1931
cur table: 1952
epoch: 1000
next table: 1913
cur table: 1931
epoch: 1000
next table: 1998
cur table: 1913
epoch: 1000
next table: 1927
cur table: 1998
epoch: 1000
next table: 1967
cur table: 1927
epoch: 1000
next table: 2020
cur table: 1967
epoch: 1000
next table: 1851
cur table: 2020
epoch: 1000
next table: 2001
cur table: 1851
epoch: 1000
next table: 1836
cur table: 2001
epoch: 1000
next table: 1858
cur table: 1836
epoch: 1000
next table: 1939
cur table: 1858
epoch: 1000
next table: 1826
cur table: 1939
epoch: 1000
next table: 1868
cur table: 1826
epoch: 1000
next table: 1953
cur table: 1868
epoch: 1000
next table: 1877
cur table: 1953
epoch: 1000
next table: 1944
cur table: 1877
epoch: 1000
next table: 1902
cur table: 1944
epoch: 1000
next table: 1945
cur table: 1902
epoch: 1000
next table: 1844
cur table: 1945
epoch: 1000
next table: 1890
cur table: 1844
epoch: 1000
next table: 1928
cur table: 1890
epoch: 1000
next table: 1862
cur table: 1928
epoch: 1000
next table: 1942
cur table: 1862
epoch: 1000
next table: 1904
cur table: 1942
epoch: 1000
next table: 1945
cur table: 1904
epoch: 1000
next table: 1894
cur table: 1945
epoch: 1000
next table: 1960
cur table: 1894
epoch: 1000
next table: 1993
cur table: 1960
epoch: 1000
next table: 1887
cur table: 1993
epoch: 1000
next table: 1983
cur table: 1887
epoch: 1000
next table: 1869
cur table: 1983
epoch: 1000
next table: 1992
cur table: 1869
epoch: 1000
next table: 1886
cur table: 1992
epoch: 1000
next table: 1812
cur table: 1886
epoch: 1000
next table: 1944
cur table: 1812
epoch: 1000
next table: 1825
cur table: 1944
epoch: 1000
next table: 1862
cur table: 1825
epoch: 1000
next table: 1936
cur table: 1862
epoch: 1000
next table: 1835
cur table: 1936
epoch: 1000
next table: 1866
cur table: 1835
epoch: 1000
next table: 1938
cur table: 1866
epoch: 1000
next table: 1866
cur table: 1938
epoch: 1000
next table: 1952
cur table: 1866
epoch: 1000
next table: 1850
cur table: 1952
epoch: 1000
next table: 1846
cur table: 1850
epoch: 1000
next table: 1929
cur table: 1846
epoch: 1000
next table: 1905
cur table: 1929
epoch: 1000
next table: 1929
cur table: 1905
epoch: 1000
next table: 1830
cur table: 1929
epoch: 1000
next table: 1966
cur table: 1830
epoch: 1000
next table: 1910
cur table: 1966
epoch: 1000
next table: 1999
cur table: 1910
epoch: 1000
next table: 1902
cur table: 1999
epoch: 1000
next table: 1959
cur table: 1902
epoch: 1000
next table: 2027
cur table: 1959
epoch: 1000
next table: 1915
cur table: 2027
epoch: 1000
next table: 1944
cur table: 1915
epoch: 1000
next table: 1825
cur table: 1944
epoch: 1000
next table: 1985
cur table: 1825
epoch: 1000
next table: 1819
cur table: 1985
epoch: 1000
next table: 1834
cur table: 1819
epoch: 1000
next table: 1977
cur table: 1834
epoch: 1000
next table: 1811
cur table: 1977
epoch: 1000
next table: 1870
cur table: 1811
epoch: 1000
next table: 1828
cur table: 1870
epoch: 1000
next table: 1925
cur table: 1828
epoch: 1000
next table: 1910
cur table: 1925
epoch: 1000
next table: 1945
cur table: 1910
epoch: 1000
next table: 1884
cur table: 1945
epoch: 1000
next table: 1937
cur table: 1884
epoch: 1000
next table: 1878
cur table: 1937
epoch: 1000
next table: 1958
cur table: 1878
epoch: 1000
next table: 1827
cur table: 1958
epoch: 1000
next table: 1891
cur table: 1827
epoch: 1000
next table: 1932
cur table: 1891
epoch: 1000
next table: 1902
cur table: 1932
epoch: 1000
next table: 1960
cur table: 1902
epoch: 1000
next table: 1996
cur table: 1960
epoch: 1000
next table: 1883
cur table: 1996
epoch: 1000
next table: 1986
cur table: 1883
epoch: 1000
next table: 1910
cur table: 1986
epoch: 1000
next table: 1966
cur table: 1910
epoch: 1000
next table: 1877
cur table: 1966
epoch: 1000
next table: 1928
cur table: 1877
epoch: 1000
next table: 1829
cur table: 1928
epoch: 1000
next table: 1861
cur table: 1829
epoch: 1000
next table: 1808
cur table: 1861
epoch: 1000
next table: 1936
cur table: 1808
epoch: 1000
next table: 1829
cur table: 1936
epoch: 1000
next table: 1867
cur table: 1829
epoch: 1000
next table: 1943
cur table: 1867
epoch: 1000
next table: 1918
cur table: 1943
epoch: 1000
next table: 1936
cur table: 1918
epoch: 1000
next table: 1899
cur table: 1936
epoch: 1000
next table: 1939
cur table: 1899
epoch: 1000
next table: 1878
cur table: 1939
epoch: 1000
next table: 1942
cur table: 1878
epoch: 1000
next table: 1849
cur table: 1942
epoch: 1000
next table: 1974
cur table: 1849
epoch: 1000
next table: 1853
cur table: 1974
epoch: 1000
next table: 1952
cur table: 1853
epoch: 1000
next table: 1943
cur table: 1952
epoch: 1000
next table: 1961
cur table: 1943
epoch: 1000
next table: 1940
cur table: 1961
epoch: 1000
next table: 1986
cur table: 1940
epoch: 1000
next table: 1970
cur table: 1986
epoch: 1000
next table: 1887
cur table: 1970
epoch: 1000
next table: 1928
cur table: 1887
epoch: 1000
next table: 1831
cur table: 1928
epoch: 1000
next table: 1810
cur table: 1831
epoch: 1000
next table: 1857
cur table: 1810
epoch: 1000
next table: 1943
cur table: 1857
epoch: 1000
next table: 1831
cur table: 1943
epoch: 1000
next table: 1864
cur table: 1831
epoch: 1000
next table: 1953
cur table: 1864
epoch: 1000
next table: 1821
cur table: 1953
epoch: 1000
next table: 1984
cur table: 1821
epoch: 1000
next table: 1854
cur table: 1984
epoch: 1000
next table: 1972
cur table: 1854
epoch: 1000
next table: 1805
cur table: 1972
epoch: 1000
next table: 1901
cur table: 1805
epoch: 1000
next table: 1885
cur table: 1901
epoch: 1000
next table: 1877
cur table: 1885
epoch: 1000
next table: 1942
cur table: 1877
epoch: 1000
next table: 1889
cur table: 1942
epoch: 1000
next table: 1895
cur table: 1889
epoch: 1000
next table: 1951
cur table: 1895
epoch: 1000
next table: 1898
cur table: 1951
epoch: 1000
next table: 1961
cur table: 1898
epoch: 1000
next table: 2013
cur table: 1961
epoch: 1000
next table: 1920
cur table: 2013
epoch: 1000
next table: 1972
cur table: 1920
epoch: 1000
next table: 1990
cur table: 1972
epoch: 1000
next table: 1816
cur table: 1990
epoch: 1000
next table: 1831
cur table: 1816
epoch: 1000
next table: 1862
cur table: 1831
epoch: 1000
next table: 1921
cur table: 1862
epoch: 1000
next table: 1863
cur table: 1921
epoch: 1000
next table: 1846
cur table: 1863
epoch: 1000
next table: 1939
cur table: 1846
epoch: 1000
next table: 1886
cur table: 1939
epoch: 1000
next table: 1932
cur table: 1886
epoch: 1000
next table: 1842
cur table: 1932
epoch: 1000
next table: 1925
cur table: 1842
epoch: 1000
next table: 1914
cur table: 1925
epoch: 1000
next table: 1876
cur table: 1914
epoch: 1000
next table: 1926
cur table: 1876
epoch: 1000
next table: 1842
cur table: 1926
epoch: 1000
next table: 1950
cur table: 1842
epoch: 1000
next table: 1873
cur table: 1950
epoch: 1000
next table: 1963
cur table: 1873
epoch: 1000
next table: 1906
cur table: 1963
epoch: 1000
next table: 1998
cur table: 1906
epoch: 1000
next table: 1915
cur table: 1998
epoch: 1000
next table: 1974
cur table: 1915
epoch: 1000
next table: 2009
cur table: 1974
epoch: 1000
next table: 1903
cur table: 2009
Heartbeat CPU 0 instructions: 20000002 cycles: 6332456 heartbeat IPC: 3.10695 cumulative IPC: 3.15833 (Simulation time: 0 hr 12 min 2 sec) 
epoch: 1000
next table: 1925
cur table: 1903
epoch: 1000
next table: 1841
cur table: 1925
epoch: 1000
next table: 1875
cur table: 1841
epoch: 1000
next table: 1783
cur table: 1875
epoch: 1000
next table: 1953
cur table: 1783
epoch: 1000
next table: 1813
cur table: 1953
epoch: 1000
next table: 1862
cur table: 1813
epoch: 1000
next table: 1948
cur table: 1862
epoch: 1000
next table: 1888
cur table: 1948
epoch: 1000
next table: 1925
cur table: 1888
epoch: 1000
next table: 1902
cur table: 1925
epoch: 1000
next table: 1953
cur table: 1902
epoch: 1000
next table: 1843
cur table: 1953
epoch: 1000
next table: 1895
cur table: 1843
epoch: 1000
next table: 1909
cur table: 1895
epoch: 1000
next table: 1879
cur table: 1909
epoch: 1000
next table: 1934
cur table: 1879
epoch: 1000
next table: 1910
cur table: 1934
epoch: 1000
next table: 1950
cur table: 1910
epoch: 1000
next table: 1905
cur table: 1950
epoch: 1000
next table: 1952
cur table: 1905
epoch: 1000
next table: 2018
cur table: 1952
epoch: 1000
next table: 1918
cur table: 2018
epoch: 1000
next table: 1967
cur table: 1918
epoch: 1000
next table: 1877
cur table: 1967
epoch: 1000
next table: 1948
cur table: 1877
epoch: 1000
next table: 1874
cur table: 1948
epoch: 1000
next table: 1804
cur table: 1874
epoch: 1000
next table: 1944
cur table: 1804
epoch: 1000
next table: 1813
cur table: 1944
epoch: 1000
next table: 1874
cur table: 1813
epoch: 1000
next table: 1934
cur table: 1874
epoch: 1000
next table: 1838
cur table: 1934
epoch: 1000
next table: 1867
cur table: 1838
epoch: 1000
next table: 1954
cur table: 1867
epoch: 1000
next table: 1884
cur table: 1954
epoch: 1000
next table: 1944
cur table: 1884
epoch: 1000
next table: 1897
cur table: 1944
epoch: 1000
next table: 1938
cur table: 1897
epoch: 1000
next table: 1832
cur table: 1938
epoch: 1000
next table: 1990
cur table: 1832
epoch: 1000
next table: 1859
cur table: 1990
epoch: 1000
next table: 1990
cur table: 1859
epoch: 1000
next table: 1845
cur table: 1990
epoch: 1000
next table: 1995
cur table: 1845
epoch: 1000
next table: 1908
cur table: 1995
epoch: 1000
next table: 1957
cur table: 1908
epoch: 1000
next table: 2004
cur table: 1957
epoch: 1000
next table: 1928
cur table: 2004
epoch: 1000
next table: 1972
cur table: 1928
epoch: 1000
next table: 1886
cur table: 1972
epoch: 1000
next table: 1925
cur table: 1886
epoch: 1000
next table: 1834
cur table: 1925
epoch: 1000
next table: 1871
cur table: 1834
epoch: 1000
next table: 1924
cur table: 1871
epoch: 1000
next table: 1854
cur table: 1924
epoch: 1000
next table: 1851
cur table: 1854
epoch: 1000
next table: 1937
cur table: 1851
epoch: 1000
next table: 1879
cur table: 1937
epoch: 1000
next table: 1949
cur table: 1879
epoch: 1000
next table: 1848
cur table: 1949
epoch: 1000
next table: 1883
cur table: 1848
epoch: 1000
next table: 1951
cur table: 1883
epoch: 1000
next table: 1863
cur table: 1951
epoch: 1000
next table: 1934
cur table: 1863
epoch: 1000
next table: 1838
cur table: 1934
epoch: 1000
next table: 1866
cur table: 1838
epoch: 1000
next table: 1952
cur table: 1866
epoch: 1000
next table: 1907
cur table: 1952
epoch: 1000
next table: 1948
cur table: 1907
epoch: 1000
next table: 2002
cur table: 1948
epoch: 1000
next table: 1912
cur table: 2002
epoch: 1000
next table: 1967
cur table: 1912
epoch: 1000
next table: 2019
cur table: 1967
epoch: 1000
next table: 1848
cur table: 2019
epoch: 1000
next table: 1862
cur table: 1848
epoch: 1000
next table: 1951
cur table: 1862
epoch: 1000
next table: 1823
cur table: 1951
epoch: 1000
next table: 1852
cur table: 1823
epoch: 1000
next table: 1952
cur table: 1852
epoch: 1000
next table: 1825
cur table: 1952
epoch: 1000
next table: 1870
cur table: 1825
epoch: 1000
next table: 1936
cur table: 1870
epoch: 1000
next table: 1837
cur table: 1936
epoch: 1000
next table: 1850
cur table: 1837
epoch: 1000
next table: 1936
cur table: 1850
epoch: 1000
next table: 1828
cur table: 1936
epoch: 1000
next table: 1954
cur table: 1828
epoch: 1000
next table: 1866
cur table: 1954
epoch: 1000
next table: 1876
cur table: 1866
epoch: 1000
next table: 1935
cur table: 1876
epoch: 1000
next table: 1905
cur table: 1935
epoch: 1000
next table: 1933
cur table: 1905
epoch: 1000
next table: 1846
cur table: 1933
epoch: 1000
next table: 1951
cur table: 1846
epoch: 1000
next table: 1922
cur table: 1951
epoch: 1000
next table: 1974
cur table: 1922
epoch: 1000
next table: 1916
cur table: 1974
epoch: 1000
next table: 1972
cur table: 1916
epoch: 1000
next table: 2003
cur table: 1972
epoch: 1000
next table: 1846
cur table: 2003
epoch: 1000
next table: 1870
cur table: 1846
epoch: 1000
next table: 1947
cur table: 1870
epoch: 1000
next table: 1862
cur table: 1947
epoch: 1000
next table: 1840
cur table: 1862
epoch: 1000
next table: 1929
cur table: 1840
epoch: 1000
next table: 1861
cur table: 1929
epoch: 1000
next table: 1814
cur table: 1861
epoch: 1000
next table: 1948
cur table: 1814
epoch: 1000
next table: 1980
cur table: 1948
epoch: 1000
next table: 1857
cur table: 1980
epoch: 1000
next table: 1896
cur table: 1857
epoch: 1000
next table: 1935
cur table: 1896
epoch: 1000
next table: 1869
cur table: 1935
epoch: 1000
next table: 1952
cur table: 1869
epoch: 1000
next table: 1846
cur table: 1952
epoch: 1000
next table: 1985
cur table: 1846
epoch: 1000
next table: 1841
cur table: 1985
epoch: 1000
next table: 1965
cur table: 1841
epoch: 1000
next table: 1893
cur table: 1965
epoch: 1000
next table: 1998
cur table: 1893
epoch: 1000
next table: 1914
cur table: 1998
epoch: 1000
next table: 1965
cur table: 1914
epoch: 1000
next table: 2026
cur table: 1965
epoch: 1000
next table: 1895
cur table: 2026
epoch: 1000
next table: 1935
cur table: 1895
epoch: 1000
next table: 1847
cur table: 1935
epoch: 1000
next table: 1983
cur table: 1847
epoch: 1000
next table: 1807
cur table: 1983
epoch: 1000
next table: 1852
cur table: 1807
epoch: 1000
next table: 1974
cur table: 1852
epoch: 1000
next table: 1821
cur table: 1974
epoch: 1000
next table: 1879
cur table: 1821
epoch: 1000
next table: 1949
cur table: 1879
epoch: 1000
next table: 1843
cur table: 1949
epoch: 1000
next table: 1957
cur table: 1843
epoch: 1000
next table: 1883
cur table: 1957
epoch: 1000
next table: 1884
cur table: 1883
epoch: 1000
next table: 1936
cur table: 1884
epoch: 1000
next table: 1928
cur table: 1936
epoch: 1000
next table: 1952
cur table: 1928
epoch: 1000
next table: 1930
cur table: 1952
epoch: 1000
next table: 2038
cur table: 1930
epoch: 1000
next table: 1968
cur table: 2038
epoch: 1000
next table: 1892
cur table: 1968
epoch: 1000
next table: 1808
cur table: 1892
epoch: 1000
next table: 1887
cur table: 1808
epoch: 1000
next table: 1883
cur table: 1887
epoch: 1000
next table: 1865
cur table: 1883
epoch: 1000
next table: 1883
cur table: 1865
epoch: 1000
next table: 1917
cur table: 1883
epoch: 1000
next table: 1923
cur table: 1917
epoch: 1000
next table: 1926
cur table: 1923
epoch: 1000
next table: 2020
cur table: 1926
epoch: 1000
next table: 1955
cur table: 2020
epoch: 1000
next table: 2040
cur table: 1955
epoch: 1000
next table: 1921
cur table: 2040
epoch: 1000
next table: 1885
cur table: 1921
epoch: 1000
next table: 1831
cur table: 1885
epoch: 1000
next table: 1829
cur table: 1831
epoch: 1000
next table: 1877
cur table: 1829
epoch: 1000
next table: 1917
cur table: 1877
epoch: 1000
next table: 1914
cur table: 1917
epoch: 1000
next table: 1926
cur table: 1914
epoch: 1000
next table: 1922
cur table: 1926
epoch: 1000
next table: 1926
cur table: 1922
epoch: 1000
next table: 2003
cur table: 1926
epoch: 1000
next table: 1967
cur table: 2003
epoch: 1000
next table: 2039
cur table: 1967
epoch: 1000
next table: 1814
cur table: 2039
epoch: 1000
next table: 1854
cur table: 1814
epoch: 1000
next table: 1848
cur table: 1854
epoch: 1000
next table: 1908
cur table: 1848
epoch: 1000
next table: 1850
cur table: 1908
epoch: 1000
next table: 1886
cur table: 1850
epoch: 1000
next table: 1931
cur table: 1886
epoch: 1000
next table: 1908
cur table: 1931
epoch: 1000
next table: 1993
cur table: 1908
epoch: 1000
next table: 1958
cur table: 1993
epoch: 1000
next table: 1948
cur table: 1958
epoch: 1000
next table: 2030
cur table: 1948
epoch: 1000
next table: 1877
cur table: 2030
epoch: 1000
next table: 1826
cur table: 1877
epoch: 1000
next table: 1872
cur table: 1826
epoch: 1000
next table: 1842
cur table: 1872
epoch: 1000
next table: 1884
cur table: 1842
epoch: 1000
next table: 1889
cur table: 1884
epoch: 1000
next table: 1914
cur table: 1889
epoch: 1000
next table: 1890
cur table: 1914
epoch: 1000
next table: 1979
cur table: 1890
epoch: 1000
next table: 1958
cur table: 1979
epoch: 1000
next table: 1933
cur table: 1958
epoch: 1000
next table: 2038
cur table: 1933
epoch: 1000
next table: 1934
cur table: 2038
epoch: 1000
next table: 1909
cur table: 1934
epoch: 1000
next table: 1816
cur table: 1909
epoch: 1000
next table: 1861
cur table: 1816
epoch: 1000
next table: 1849
cur table: 1861
epoch: 1000
next table: 1902
cur table: 1849
epoch: 1000
next table: 1913
cur table: 1902
epoch: 1000
next table: 1919
cur table: 1913
epoch: 1000
next table: 1923
cur table: 1919
epoch: 1000
next table: 1925
cur table: 1923
epoch: 1000
next table: 2001
cur table: 1925
epoch: 1000
next table: 1970
cur table: 2001
epoch: 1000
next table: 2040
cur table: 1970
epoch: 1000
next table: 1860
cur table: 2040
epoch: 1000
next table: 1856
cur table: 1860
epoch: 1000
next table: 1867
cur table: 1856
epoch: 1000
next table: 1847
cur table: 1867
epoch: 1000
next table: 1886
cur table: 1847
epoch: 1000
next table: 1893
cur table: 1886
epoch: 1000
next table: 1919
cur table: 1893
epoch: 1000
next table: 1911
cur table: 1919
epoch: 1000
next table: 1953
cur table: 1911
epoch: 1000
next table: 1955
cur table: 1953
epoch: 1000
next table: 1962
cur table: 1955
epoch: 1000
next table: 2014
cur table: 1962
epoch: 1000
next table: 1927
cur table: 2014
epoch: 1000
next table: 1906
cur table: 1927
epoch: 1000
next table: 1816
cur table: 1906
epoch: 1000
next table: 1871
cur table: 1816
epoch: 1000
next table: 1853
cur table: 1871
epoch: 1000
next table: 1887
cur table: 1853
epoch: 1000
next table: 1916
cur table: 1887
epoch: 1000
next table: 1922
cur table: 1916
epoch: 1000
next table: 1924
cur table: 1922
epoch: 1000
next table: 1962
cur table: 1924
epoch: 1000
next table: 2005
cur table: 1962
epoch: 1000
next table: 1975
cur table: 2005
epoch: 1000
next table: 2000
cur table: 1975
epoch: 1000
next table: 1844
cur table: 2000
epoch: 1000
next table: 1858
cur table: 1844
epoch: 1000
next table: 1867
cur table: 1858
epoch: 1000
next table: 1852
cur table: 1867
epoch: 1000
next table: 1906
cur table: 1852
epoch: 1000
next table: 1904
cur table: 1906
epoch: 1000
next table: 1889
cur table: 1904
epoch: 1000
next table: 1926
cur table: 1889
epoch: 1000
next table: 1956
cur table: 1926
epoch: 1000
next table: 1939
cur table: 1956
epoch: 1000
next table: 2000
cur table: 1939
epoch: 1000
next table: 1978
cur table: 2000
epoch: 1000
next table: 1918
cur table: 1978
epoch: 1000
next table: 1905
cur table: 1918
epoch: 1000
next table: 1812
cur table: 1905
epoch: 1000
next table: 1858
cur table: 1812
epoch: 1000
next table: 1860
cur table: 1858
epoch: 1000
next table: 1903
cur table: 1860
epoch: 1000
next table: 1914
cur table: 1903
epoch: 1000
next table: 1921
cur table: 1914
epoch: 1000
next table: 1927
cur table: 1921
epoch: 1000
next table: 1969
cur table: 1927
epoch: 1000
next table: 1991
cur table: 1969
epoch: 1000
next table: 1982
cur table: 1991
epoch: 1000
next table: 1988
cur table: 1982
epoch: 1000
next table: 1816
cur table: 1988
epoch: 1000
next table: 1864
cur table: 1816
epoch: 1000
next table: 1831
cur table: 1864
epoch: 1000
next table: 1911
cur table: 1831
epoch: 1000
next table: 1854
cur table: 1911
epoch: 1000
next table: 1908
cur table: 1854
epoch: 1000
next table: 1933
cur table: 1908
epoch: 1000
next table: 1924
cur table: 1933
epoch: 1000
next table: 1964
cur table: 1924
epoch: 1000
next table: 1947
cur table: 1964
epoch: 1000
next table: 2011
cur table: 1947
epoch: 1000
next table: 1970
cur table: 2011
epoch: 1000
next table: 1912
cur table: 1970
epoch: 1000
next table: 1862
cur table: 1912
Heartbeat CPU 0 instructions: 30000000 cycles: 9362718 heartbeat IPC: 3.30004 cumulative IPC: 3.2042 (Simulation time: 0 hr 17 min 21 sec) 
epoch: 1000
next table: 1847
cur table: 1862
epoch: 1000
next table: 1835
cur table: 1847
epoch: 1000
next table: 1879
cur table: 1835
epoch: 1000
next table: 1913
cur table: 1879
epoch: 1000
next table: 1916
cur table: 1913
epoch: 1000
next table: 1926
cur table: 1916
epoch: 1000
next table: 1924
cur table: 1926
epoch: 1000
next table: 1994
cur table: 1924
epoch: 1000
next table: 1973
cur table: 1994
epoch: 1000
next table: 2003
cur table: 1973
epoch: 1000
next table: 1965
cur table: 2003
epoch: 1000
next table: 1815
cur table: 1965
epoch: 1000
next table: 1863
cur table: 1815
epoch: 1000
next table: 1830
cur table: 1863
epoch: 1000
next table: 1913
cur table: 1830
epoch: 1000
next table: 1889
cur table: 1913
epoch: 1000
next table: 1982
cur table: 1889
epoch: 1000
next table: 2012
cur table: 1982
epoch: 1000
next table: 2017
cur table: 2012
epoch: 1000
next table: 2015
cur table: 2017
epoch: 1000
next table: 1988
cur table: 2015
epoch: 1000
next table: 2036
cur table: 1988
epoch: 1000
next table: 1994
cur table: 2036
epoch: 1000
next table: 2038
cur table: 1994
epoch: 1000
next table: 1994
cur table: 2038
epoch: 1000
next table: 2009
cur table: 1994
epoch: 1000
next table: 2028
cur table: 2009
epoch: 1000
next table: 2001
cur table: 2028
epoch: 1000
next table: 2030
cur table: 2001
epoch: 1000
next table: 1984
cur table: 2030
epoch: 1000
next table: 2022
cur table: 1984
epoch: 1000
next table: 2009
cur table: 2022
epoch: 1000
next table: 2020
cur table: 2009
epoch: 1000
next table: 2013
cur table: 2020
epoch: 1000
next table: 1994
cur table: 2013
epoch: 1000
next table: 2034
cur table: 1994
epoch: 1000
next table: 1997
cur table: 2034
epoch: 1000
next table: 2032
cur table: 1997
epoch: 1000
next table: 2001
cur table: 2032
epoch: 1000
next table: 2003
cur table: 2001
epoch: 1000
next table: 2033
cur table: 2003
epoch: 1000
next table: 1997
cur table: 2033
epoch: 1000
next table: 2035
cur table: 1997
epoch: 1000
next table: 1979
cur table: 2035
epoch: 1000
next table: 2025
cur table: 1979
epoch: 1000
next table: 2005
cur table: 2025
epoch: 1000
next table: 2026
cur table: 2005
epoch: 1000
next table: 2005
cur table: 2026
epoch: 1000
next table: 1996
cur table: 2005
epoch: 1000
next table: 2035
cur table: 1996
epoch: 1000
next table: 1994
cur table: 2035
epoch: 1000
next table: 2036
cur table: 1994
epoch: 1000
next table: 1999
cur table: 2036
epoch: 1000
next table: 2007
cur table: 1999
epoch: 1000
next table: 2025
cur table: 2007
epoch: 1000
next table: 2002
cur table: 2025
epoch: 1000
next table: 2034
cur table: 2002
epoch: 1000
next table: 1986
cur table: 2034
epoch: 1000
next table: 2019
cur table: 1986
epoch: 1000
next table: 2014
cur table: 2019
epoch: 1000
next table: 2017
cur table: 2014
epoch: 1000
next table: 2018
cur table: 2017
epoch: 1000
next table: 1990
cur table: 2018
epoch: 1000
next table: 2032
cur table: 1990
epoch: 1000
next table: 1999
cur table: 2032
epoch: 1000
next table: 2027
cur table: 1999
epoch: 1000
next table: 2010
cur table: 2027
epoch: 1000
next table: 1996
cur table: 2010
epoch: 1000
next table: 2034
cur table: 1996
epoch: 1000
next table: 1995
cur table: 2034
epoch: 1000
next table: 2036
cur table: 1995
epoch: 1000
next table: 1992
cur table: 2036
epoch: 1000
next table: 2014
cur table: 1992
epoch: 1000
next table: 2018
cur table: 2014
epoch: 1000
next table: 2009
cur table: 2018
epoch: 1000
next table: 2024
cur table: 2009
epoch: 1000
next table: 1984
cur table: 2024
epoch: 1000
next table: 2030
cur table: 1984
epoch: 1000
next table: 2006
cur table: 2030
epoch: 1000
next table: 2023
cur table: 2006
epoch: 1000
next table: 2011
cur table: 2023
epoch: 1000
next table: 1996
cur table: 2011
epoch: 1000
next table: 2035
cur table: 1996
epoch: 1000
next table: 1991
cur table: 2035
epoch: 1000
next table: 2036
cur table: 1991
epoch: 1000
next table: 1996
cur table: 2036
epoch: 1000
next table: 2009
cur table: 1996
epoch: 1000
next table: 2026
cur table: 2009
epoch: 1000
next table: 2004
cur table: 2026
epoch: 1000
next table: 2033
cur table: 2004
epoch: 1000
next table: 1986
cur table: 2033
epoch: 1000
next table: 2021
cur table: 1986
epoch: 1000
next table: 2009
cur table: 2021
epoch: 1000
next table: 2016
cur table: 2009
epoch: 1000
next table: 2018
cur table: 2016
epoch: 1000
next table: 1988
cur table: 2018
epoch: 1000
next table: 2035
cur table: 1988
epoch: 1000
next table: 2001
cur table: 2035
epoch: 1000
next table: 2029
cur table: 2001
epoch: 1000
next table: 2009
cur table: 2029
epoch: 1000
next table: 1997
cur table: 2009
epoch: 1000
next table: 2034
cur table: 1997
epoch: 1000
next table: 1991
cur table: 2034
epoch: 1000
next table: 2037
cur table: 1991
epoch: 1000
next table: 1997
cur table: 2037
epoch: 1000
next table: 2005
cur table: 1997
epoch: 1000
next table: 2030
cur table: 2005
epoch: 1000
next table: 1998
cur table: 2030
epoch: 1000
next table: 2035
cur table: 1998
epoch: 1000
next table: 1982
cur table: 2035
epoch: 1000
next table: 2022
cur table: 1982
epoch: 1000
next table: 2005
cur table: 2022
epoch: 1000
next table: 2021
cur table: 2005
epoch: 1000
next table: 2013
cur table: 2021
epoch: 1000
next table: 1993
cur table: 2013
epoch: 1000
next table: 2035
cur table: 1993
epoch: 1000
next table: 1995
cur table: 2035
epoch: 1000
next table: 2035
cur table: 1995
epoch: 1000
next table: 1998
cur table: 2035
epoch: 1000
next table: 2008
cur table: 1998
epoch: 1000
next table: 2026
cur table: 2008
epoch: 1000
next table: 2001
cur table: 2026
epoch: 1000
next table: 2034
cur table: 2001
epoch: 1000
next table: 1982
cur table: 2034
epoch: 1000
next table: 2023
cur table: 1982
epoch: 1000
next table: 2017
cur table: 2023
epoch: 1000
next table: 2016
cur table: 2017
epoch: 1000
next table: 2022
cur table: 2016
epoch: 1000
next table: 1988
cur table: 2022
epoch: 1000
next table: 2028
cur table: 1988
epoch: 1000
next table: 2005
cur table: 2028
epoch: 1000
next table: 2021
cur table: 2005
epoch: 1000
next table: 2008
cur table: 2021
epoch: 1000
next table: 1998
cur table: 2008
epoch: 1000
next table: 2035
cur table: 1998
epoch: 1000
next table: 1994
cur table: 2035
epoch: 1000
next table: 2036
cur table: 1994
epoch: 1000
next table: 1999
cur table: 2036
epoch: 1000
next table: 2007
cur table: 1999
epoch: 1000
next table: 2027
cur table: 2007
epoch: 1000
next table: 2000
cur table: 2027
epoch: 1000
next table: 2035
cur table: 2000
epoch: 1000
next table: 1986
cur table: 2035
epoch: 1000
next table: 2019
cur table: 1986
epoch: 1000
next table: 2020
cur table: 2019
epoch: 1000
next table: 2013
cur table: 2020
epoch: 1000
next table: 2023
cur table: 2013
epoch: 1000
next table: 1990
cur table: 2023
epoch: 1000
next table: 2024
cur table: 1990
epoch: 1000
next table: 1777
cur table: 2024
epoch: 1000
next table: 1887
cur table: 1777
epoch: 1000
next table: 1914
cur table: 1887
epoch: 1000
next table: 1881
cur table: 1914
epoch: 1000
next table: 1946
cur table: 1881
epoch: 1000
next table: 1838
cur table: 1946
epoch: 1000
next table: 2000
cur table: 1838
epoch: 1000
next table: 1835
cur table: 2000
epoch: 1000
next table: 1967
cur table: 1835
epoch: 1000
next table: 1940
cur table: 1967
epoch: 1000
next table: 1964
cur table: 1940
epoch: 1000
next table: 1917
cur table: 1964
epoch: 1000
next table: 1957
cur table: 1917
epoch: 1000
next table: 2027
cur table: 1957
epoch: 1000
next table: 2019
cur table: 2027
epoch: 1000
next table: 1826
cur table: 2019
epoch: 1000
next table: 1897
cur table: 1826
epoch: 1000
next table: 1917
cur table: 1897
epoch: 1000
next table: 1819
cur table: 1917
epoch: 1000
next table: 1847
cur table: 1819
epoch: 1000
next table: 1964
cur table: 1847
epoch: 1000
next table: 1830
cur table: 1964
epoch: 1000
next table: 1860
cur table: 1830
epoch: 1000
next table: 1948
cur table: 1860
epoch: 1000
next table: 1873
cur table: 1948
epoch: 1000
next table: 1896
cur table: 1873
epoch: 1000
next table: 1873
cur table: 1896
epoch: 1000
next table: 1801
cur table: 1873
epoch: 1000
next table: 1921
cur table: 1801
epoch: 1000
next table: 1902
cur table: 1921
epoch: 1000
next table: 1894
cur table: 1902
epoch: 1000
next table: 1867
cur table: 1894
epoch: 1000
next table: 1885
cur table: 1867
epoch: 1000
next table: 2019
cur table: 1885
epoch: 1000
next table: 1846
cur table: 2019
epoch: 1000
next table: 2010
cur table: 1846
epoch: 1000
next table: 1892
cur table: 2010
epoch: 1000
next table: 1963
cur table: 1892
epoch: 1000
next table: 2028
cur table: 1963
epoch: 1000
next table: 1842
cur table: 2028
epoch: 1000
next table: 2006
cur table: 1842
epoch: 1000
next table: 1811
cur table: 2006
epoch: 1000
next table: 1827
cur table: 1811
epoch: 1000
next table: 1884
cur table: 1827
epoch: 1000
next table: 1893
cur table: 1884
epoch: 1000
next table: 1823
cur table: 1893
epoch: 1000
next table: 1888
cur table: 1823
epoch: 1000
next table: 1919
cur table: 1888
epoch: 1000
next table: 1892
cur table: 1919
epoch: 1000
next table: 1828
cur table: 1892
epoch: 1000
next table: 1909
cur table: 1828
epoch: 1000
next table: 1848
cur table: 1909
epoch: 1000
next table: 1872
cur table: 1848
epoch: 1000
next table: 1922
cur table: 1872
epoch: 1000
next table: 1896
cur table: 1922
epoch: 1000
next table: 1933
cur table: 1896
epoch: 1000
next table: 1835
cur table: 1933
epoch: 1000
next table: 2007
cur table: 1835
epoch: 1000
next table: 1898
cur table: 2007
epoch: 1000
next table: 1952
cur table: 1898
epoch: 1000
next table: 1898
cur table: 1952
epoch: 1000
next table: 1971
cur table: 1898
epoch: 1000
next table: 2017
cur table: 1971
epoch: 1000
next table: 1900
cur table: 2017
epoch: 1000
next table: 1960
cur table: 1900
epoch: 1000
next table: 1891
cur table: 1960
epoch: 1000
next table: 1936
cur table: 1891
epoch: 1000
next table: 1810
cur table: 1936
epoch: 1000
next table: 1848
cur table: 1810
epoch: 1000
next table: 1966
cur table: 1848
epoch: 1000
next table: 1811
cur table: 1966
epoch: 1000
next table: 1871
cur table: 1811
epoch: 1000
next table: 1956
cur table: 1871
epoch: 1000
next table: 1830
cur table: 1956
epoch: 1000
next table: 2000
cur table: 1830
epoch: 1000
next table: 1836
cur table: 2000
Heartbeat CPU 0 instructions: 40000001 cycles: 12666495 heartbeat IPC: 3.02684 cumulative IPC: 3.15794 (Simulation time: 0 hr 22 min 45 sec) 
epoch: 1000
next table: 1796
cur table: 1836
epoch: 1000
next table: 1895
cur table: 1796
epoch: 1000
next table: 1906
cur table: 1895
epoch: 1000
next table: 1829
cur table: 1906
epoch: 1000
next table: 1927
cur table: 1829
epoch: 1000
next table: 1911
cur table: 1927
epoch: 1000
next table: 1957
cur table: 1911
epoch: 1000
next table: 1871
cur table: 1957
epoch: 1000
next table: 1980
cur table: 1871
epoch: 1000
next table: 1873
cur table: 1980
epoch: 1000
next table: 2015
cur table: 1873
epoch: 1000
next table: 1907
cur table: 2015
epoch: 1000
next table: 1965
cur table: 1907
epoch: 1000
next table: 2030
cur table: 1965
epoch: 1000
next table: 1883
cur table: 2030
epoch: 1000
next table: 1947
cur table: 1883
epoch: 1000
next table: 1799
cur table: 1947
epoch: 1000
next table: 1803
cur table: 1799
epoch: 1000
next table: 1851
cur table: 1803
epoch: 1000
next table: 1932
cur table: 1851
epoch: 1000
next table: 1838
cur table: 1932
epoch: 1000
next table: 1870
cur table: 1838
epoch: 1000
next table: 1960
cur table: 1870
epoch: 1000
next table: 1805
cur table: 1960
epoch: 1000
next table: 1901
cur table: 1805
epoch: 1000
next table: 1923
cur table: 1901
epoch: 1000
next table: 1803
cur table: 1923
epoch: 1000
next table: 1909
cur table: 1803
epoch: 1000
next table: 1923
cur table: 1909
epoch: 1000
next table: 1829
cur table: 1923
epoch: 1000
next table: 1939
cur table: 1829
epoch: 1000
next table: 1905
cur table: 1939
epoch: 1000
next table: 1886
cur table: 1905
epoch: 1000
next table: 1931
cur table: 1886
epoch: 1000
next table: 1998
cur table: 1931
epoch: 1000
next table: 1876
cur table: 1998
epoch: 1000
next table: 2013
cur table: 1876
epoch: 1000
next table: 1925
cur table: 2013
epoch: 1000
next table: 1949
cur table: 1925
epoch: 1000
next table: 2012
cur table: 1949
epoch: 1000
next table: 1855
cur table: 2012
epoch: 1000
next table: 1860
cur table: 1855
epoch: 1000
next table: 1927
cur table: 1860
epoch: 1000
next table: 1806
cur table: 1927
epoch: 1000
next table: 1866
cur table: 1806
epoch: 1000
next table: 1957
cur table: 1866
epoch: 1000
next table: 1789
cur table: 1957
epoch: 1000
next table: 1886
cur table: 1789
epoch: 1000
next table: 1951
cur table: 1886
epoch: 1000
next table: 1859
cur table: 1951
epoch: 1000
next table: 1871
cur table: 1859
epoch: 1000
next table: 1898
cur table: 1871
epoch: 1000
next table: 1810
cur table: 1898
epoch: 1000
next table: 1924
cur table: 1810
epoch: 1000
next table: 1901
cur table: 1924
epoch: 1000
next table: 1888
cur table: 1901
epoch: 1000
next table: 1949
cur table: 1888
epoch: 1000
next table: 1891
cur table: 1949
epoch: 1000
next table: 1952
cur table: 1891
epoch: 1000
next table: 1894
cur table: 1952
epoch: 1000
next table: 1969
cur table: 1894
epoch: 1000
next table: 2004
cur table: 1969
epoch: 1000
next table: 1866
cur table: 2004
epoch: 1000
next table: 2007
cur table: 1866
epoch: 1000
next table: 1916
cur table: 2007
epoch: 1000
next table: 1931
cur table: 1916
epoch: 1000
next table: 1821
cur table: 1931
epoch: 1000
next table: 1868
cur table: 1821
epoch: 1000
next table: 1928
cur table: 1868
epoch: 1000
next table: 1800
cur table: 1928
epoch: 1000
next table: 1867
cur table: 1800
epoch: 1000
next table: 1956
cur table: 1867
epoch: 1000
next table: 1807
cur table: 1956
epoch: 1000
next table: 1895
cur table: 1807
epoch: 1000
next table: 1939
cur table: 1895
epoch: 1000
next table: 1810
cur table: 1939
epoch: 1000
next table: 1903
cur table: 1810
epoch: 1000
next table: 1858
cur table: 1903
epoch: 1000
next table: 1862
cur table: 1858
epoch: 1000
next table: 1937
cur table: 1862
epoch: 1000
next table: 1911
cur table: 1937
epoch: 1000
next table: 1881
cur table: 1911
epoch: 1000
next table: 1942
cur table: 1881
epoch: 1000
next table: 1901
cur table: 1942
epoch: 1000
next table: 1949
cur table: 1901
epoch: 1000
next table: 1893
cur table: 1949
epoch: 1000
next table: 1961
cur table: 1893
epoch: 1000
next table: 2033
cur table: 1961
epoch: 1000
next table: 1929
cur table: 2033
epoch: 1000
next table: 1930
cur table: 1929
epoch: 1000
next table: 1905
cur table: 1930
epoch: 1000
next table: 1928
cur table: 1905
epoch: 1000
next table: 1820
cur table: 1928
epoch: 1000
next table: 1856
cur table: 1820
epoch: 1000
next table: 1950
cur table: 1856
epoch: 1000
next table: 1824
cur table: 1950
epoch: 1000
next table: 1886
cur table: 1824
epoch: 1000
next table: 1946
cur table: 1886
epoch: 1000
next table: 1896
cur table: 1946
epoch: 1000
next table: 1922
cur table: 1896
epoch: 1000
next table: 1883
cur table: 1922
epoch: 1000
next table: 1944
cur table: 1883
epoch: 1000
next table: 1810
cur table: 1944
epoch: 1000
next table: 1909
cur table: 1810
epoch: 1000
next table: 1918
cur table: 1909
epoch: 1000
next table: 1814
cur table: 1918
epoch: 1000
next table: 1914
cur table: 1814
epoch: 1000
next table: 1915
cur table: 1914
epoch: 1000
next table: 1920
cur table: 1915
epoch: 1000
next table: 1926
cur table: 1920
epoch: 1000
next table: 1916
cur table: 1926
epoch: 1000
next table: 1939
cur table: 1916
epoch: 1000
next table: 2024
cur table: 1939
epoch: 1000
next table: 1920
cur table: 2024
epoch: 1000
next table: 1952
cur table: 1920
epoch: 1000
next table: 1957
cur table: 1952
epoch: 1000
next table: 1854
cur table: 1957
epoch: 1000
next table: 1838
cur table: 1854
epoch: 1000
next table: 1939
cur table: 1838
epoch: 1000
next table: 1852
cur table: 1939
epoch: 1000
next table: 1859
cur table: 1852
epoch: 1000
next table: 1920
cur table: 1859
epoch: 1000
next table: 1860
cur table: 1920
epoch: 1000
next table: 1898
cur table: 1860
epoch: 1000
next table: 1939
cur table: 1898
epoch: 1000
next table: 1816
cur table: 1939
epoch: 1000
next table: 1901
cur table: 1816
epoch: 1000
next table: 1914
cur table: 1901
epoch: 1000
next table: 1815
cur table: 1914
epoch: 1000
next table: 1926
cur table: 1815
epoch: 1000
next table: 1907
cur table: 1926
epoch: 1000
next table: 1904
cur table: 1907
epoch: 1000
next table: 1940
cur table: 1904
epoch: 1000
next table: 1908
cur table: 1940
epoch: 1000
next table: 1947
cur table: 1908
epoch: 1000
next table: 1896
cur table: 1947
epoch: 1000
next table: 1950
cur table: 1896
epoch: 1000
next table: 2018
cur table: 1950
epoch: 1000
next table: 1928
cur table: 2018
epoch: 1000
next table: 1949
cur table: 1928
epoch: 1000
next table: 1937
cur table: 1949
epoch: 1000
next table: 1894
cur table: 1937
epoch: 1000
next table: 1893
cur table: 1894
epoch: 1000
next table: 1914
cur table: 1893
epoch: 1000
next table: 1836
cur table: 1914
epoch: 1000
next table: 1861
cur table: 1836
epoch: 1000
next table: 1940
cur table: 1861
epoch: 1000
next table: 1876
cur table: 1940
epoch: 1000
next table: 1844
cur table: 1876
epoch: 1000
next table: 1922
cur table: 1844
epoch: 1000
next table: 1877
cur table: 1922
epoch: 1000
next table: 1833
cur table: 1877
epoch: 1000
next table: 1915
cur table: 1833
epoch: 1000
next table: 1889
cur table: 1915
epoch: 1000
next table: 1937
cur table: 1889
epoch: 1000
next table: 1812
cur table: 1937
epoch: 1000
next table: 1958
cur table: 1812
epoch: 1000
next table: 1889
cur table: 1958
epoch: 1000
next table: 1916
cur table: 1889
epoch: 1000
next table: 1919
cur table: 1916
epoch: 1000
next table: 1945
cur table: 1919
epoch: 1000
next table: 1921
cur table: 1945
epoch: 1000
next table: 2010
cur table: 1921
epoch: 1000
next table: 1907
cur table: 2010
epoch: 1000
next table: 1969
cur table: 1907
epoch: 1000
next table: 2019
cur table: 1969
epoch: 1000
next table: 1812
cur table: 2019
epoch: 1000
next table: 1835
cur table: 1812
epoch: 1000
next table: 1864
cur table: 1835
epoch: 1000
next table: 1911
cur table: 1864
epoch: 1000
next table: 1836
cur table: 1911
epoch: 1000
next table: 1875
cur table: 1836
epoch: 1000
next table: 1917
cur table: 1875
epoch: 1000
next table: 1837
cur table: 1917
epoch: 1000
next table: 1888
cur table: 1837
epoch: 1000
next table: 1914
cur table: 1888
epoch: 1000
next table: 1890
cur table: 1914
epoch: 1000
next table: 1820
cur table: 1890
epoch: 1000
next table: 1912
cur table: 1820
epoch: 1000
next table: 1833
cur table: 1912
epoch: 1000
next table: 1893
cur table: 1833
epoch: 1000
next table: 1925
cur table: 1893
epoch: 1000
next table: 1888
cur table: 1925
epoch: 1000
next table: 1945
cur table: 1888
epoch: 1000
next table: 1889
cur table: 1945
epoch: 1000
next table: 1963
cur table: 1889
epoch: 1000
next table: 1959
cur table: 1963
epoch: 1000
next table: 1914
cur table: 1959
epoch: 1000
next table: 2018
cur table: 1914
epoch: 1000
next table: 1947
cur table: 2018
epoch: 1000
next table: 1921
cur table: 1947
epoch: 1000
next table: 1893
cur table: 1921
epoch: 1000
next table: 1911
cur table: 1893
epoch: 1000
next table: 1822
cur table: 1911
epoch: 1000
next table: 1802
cur table: 1822
epoch: 1000
next table: 1855
cur table: 1802
epoch: 1000
next table: 1947
cur table: 1855
epoch: 1000
next table: 1823
cur table: 1947
Heartbeat CPU 0 instructions: 50000001 cycles: 15853625 heartbeat IPC: 3.13762 cumulative IPC: 3.15385 (Simulation time: 0 hr 28 min 40 sec) 

Warmup complete CPU 0 instructions: 50000001 cycles: 15853625 (Simulation time: 0 hr 28 min 40 sec) 

epoch: 1000
next table: 1898
cur table: 1810
epoch: 1000
next table: 1940
cur table: 1898
epoch: 1000
next table: 1811
cur table: 1940
epoch: 1000
next table: 1907
cur table: 1811
epoch: 1000
next table: 1921
cur table: 1907
epoch: 1000
next table: 1844
cur table: 1921
epoch: 1000
next table: 1984
cur table: 1844
epoch: 1000
next table: 1896
cur table: 1984
epoch: 1000
next table: 1953
cur table: 1896
epoch: 1000
next table: 1895
cur table: 1953
epoch: 1000
next table: 1952
cur table: 1895
epoch: 1000
next table: 1997
cur table: 1952
epoch: 1000
next table: 1875
cur table: 1997
epoch: 1000
next table: 2016
cur table: 1875
epoch: 1000
next table: 1930
cur table: 2016
epoch: 1000
next table: 1938
cur table: 1930
epoch: 1000
next table: 1903
cur table: 1938
epoch: 1000
next table: 1920
cur table: 1903
epoch: 1000
next table: 1843
cur table: 1920
epoch: 1000
next table: 1979
cur table: 1843
epoch: 1000
next table: 1808
cur table: 1979
epoch: 1000
next table: 1853
cur table: 1808
epoch: 1000
next table: 1971
cur table: 1853
epoch: 1000
next table: 1826
cur table: 1971
epoch: 1000
next table: 1893
cur table: 1826
epoch: 1000
next table: 1957
cur table: 1893
epoch: 1000
next table: 1901
cur table: 1957
epoch: 1000
next table: 1892
cur table: 1901
epoch: 1000
next table: 2333
cur table: 1892
epoch: 1000
next table: 2917
cur table: 2333
epoch: 1000
next table: 3041
cur table: 2917
epoch: 1000
next table: 2695
cur table: 3041
epoch: 1000
next table: 3718
cur table: 2695
epoch: 1000
next table: 3132
cur table: 3718
epoch: 1000
next table: 4043
cur table: 3132
epoch: 1000
next table: 3710
cur table: 4043
epoch: 1000
next table: 2537
cur table: 3710
epoch: 1000
next table: 2784
cur table: 2537
epoch: 1000
next table: 2934
cur table: 2784
epoch: 1000
next table: 2603
cur table: 2934
epoch: 1000
next table: 3516
cur table: 2603
epoch: 1000
next table: 3522
cur table: 3516
epoch: 1000
next table: 2912
cur table: 3522
epoch: 1000
next table: 2498
cur table: 2912
epoch: 1000
next table: 3538
cur table: 2498
epoch: 1000
next table: 3322
cur table: 3538
epoch: 1000
next table: 3317
cur table: 3322
epoch: 1000
next table: 3160
cur table: 3317
epoch: 1000
next table: 2859
cur table: 3160
epoch: 1000
next table: 2372
cur table: 2859
epoch: 1000
next table: 2555
cur table: 2372
epoch: 1000
next table: 1905
cur table: 2555
epoch: 1000
next table: 2266
cur table: 1905
epoch: 1000
next table: 2637
cur table: 2266
epoch: 1000
next table: 2337
cur table: 2637
epoch: 1000
next table: 3439
cur table: 2337
epoch: 1000
next table: 3212
cur table: 3439
epoch: 1000
next table: 3054
cur table: 3212
epoch: 1000
next table: 3280
cur table: 3054
epoch: 1000
next table: 3301
cur table: 3280
epoch: 1000
next table: 3182
cur table: 3301
epoch: 1000
next table: 2701
cur table: 3182
epoch: 1000
next table: 2379
cur table: 2701
epoch: 1000
next table: 2487
cur table: 2379
epoch: 1000
next table: 3279
cur table: 2487
epoch: 1000
next table: 3042
cur table: 3279
epoch: 1000
next table: 2563
cur table: 3042
epoch: 1000
next table: 3187
cur table: 2563
epoch: 1000
next table: 3071
cur table: 3187
epoch: 1000
next table: 2936
cur table: 3071
epoch: 1000
next table: 2438
cur table: 2936
epoch: 1000
next table: 2693
cur table: 2438
epoch: 1000
next table: 2525
cur table: 2693
epoch: 1000
next table: 2671
cur table: 2525
epoch: 1000
next table: 3483
cur table: 2671
epoch: 1000
next table: 3232
cur table: 3483
epoch: 1000
next table: 2891
cur table: 3232
epoch: 1000
next table: 3634
cur table: 2891
epoch: 1000
next table: 2789
cur table: 3634
epoch: 1000
next table: 3239
cur table: 2789
epoch: 1000
next table: 2745
cur table: 3239
epoch: 1000
next table: 3340
cur table: 2745
epoch: 1000
next table: 3737
cur table: 3340
epoch: 1000
next table: 3549
cur table: 3737
epoch: 1000
next table: 3578
cur table: 3549
epoch: 1000
next table: 2705
cur table: 3578
epoch: 1000
next table: 2483
cur table: 2705
epoch: 1000
next table: 2911
cur table: 2483
epoch: 1000
next table: 3551
cur table: 2911
epoch: 1000
next table: 2901
cur table: 3551
epoch: 1000
next table: 3161
cur table: 2901
epoch: 1000
next table: 2854
cur table: 3161
epoch: 1000
next table: 3228
cur table: 2854
epoch: 1000
next table: 3271
cur table: 3228
epoch: 1000
next table: 2151
cur table: 3271
epoch: 1000
next table: 2011
cur table: 2151
epoch: 1000
next table: 2909
cur table: 2011
epoch: 1000
next table: 2294
cur table: 2909
epoch: 1000
next table: 2569
cur table: 2294
epoch: 1000
next table: 2434
cur table: 2569
epoch: 1000
next table: 2613
cur table: 2434
epoch: 1000
next table: 3003
cur table: 2613
epoch: 1000
next table: 2288
cur table: 3003
epoch: 1000
next table: 2578
cur table: 2288
epoch: 1000
next table: 2117
cur table: 2578
epoch: 1000
next table: 3100
cur table: 2117
epoch: 1000
next table: 2599
cur table: 3100
epoch: 1000
next table: 2832
cur table: 2599
epoch: 1000
next table: 2543
cur table: 2832
epoch: 1000
next table: 2409
cur table: 2543
epoch: 1000
next table: 4122
cur table: 2409
epoch: 1000
next table: 2152
cur table: 4122
epoch: 1000
next table: 2585
cur table: 2152
epoch: 1000
next table: 2255
cur table: 2585
epoch: 1000
next table: 2981
cur table: 2255
epoch: 1000
next table: 2385
cur table: 2981
epoch: 1000
next table: 3127
cur table: 2385
epoch: 1000
next table: 2825
cur table: 3127
epoch: 1000
next table: 2777
cur table: 2825
epoch: 1000
next table: 3345
cur table: 2777
epoch: 1000
next table: 3424
cur table: 3345
epoch: 1000
next table: 2734
cur table: 3424
epoch: 1000
next table: 3109
cur table: 2734
epoch: 1000
next table: 2970
cur table: 3109
epoch: 1000
next table: 2849
cur table: 2970
epoch: 1000
next table: 2445
cur table: 2849
epoch: 1000
next table: 2980
cur table: 2445
epoch: 1000
next table: 2343
cur table: 2980
epoch: 1000
next table: 2749
cur table: 2343
epoch: 1000
next table: 3136
cur table: 2749
epoch: 1000
next table: 2913
cur table: 3136
epoch: 1000
next table: 3446
cur table: 2913
epoch: 1000
next table: 4239
cur table: 3446
epoch: 1000
next table: 4002
cur table: 4239
epoch: 1000
next table: 2905
cur table: 4002
epoch: 1000
next table: 2775
cur table: 2905
epoch: 1000
next table: 2559
cur table: 2775
epoch: 1000
next table: 2785
cur table: 2559
epoch: 1000
next table: 3425
cur table: 2785
epoch: 1000
next table: 3121
cur table: 3425
epoch: 1000
next table: 3283
cur table: 3121
epoch: 1000
next table: 2538
cur table: 3283
epoch: 1000
next table: 2317
cur table: 2538
epoch: 1000
next table: 3038
cur table: 2317
epoch: 1000
next table: 3523
cur table: 3038
epoch: 1000
next table: 2218
cur table: 3523
epoch: 1000
next table: 4219
cur table: 2218
epoch: 1000
next table: 3154
cur table: 4219
epoch: 1000
next table: 3084
cur table: 3154
epoch: 1000
next table: 2889
cur table: 3084
epoch: 1000
next table: 3560
cur table: 2889
epoch: 1000
next table: 2948
cur table: 3560
epoch: 1000
next table: 3887
cur table: 2948
epoch: 1000
next table: 3040
cur table: 3887
epoch: 1000
next table: 2626
cur table: 3040
epoch: 1000
next table: 3270
cur table: 2626
epoch: 1000
next table: 3108
cur table: 3270
epoch: 1000
next table: 2942
cur table: 3108
epoch: 1000
next table: 3769
cur table: 2942
epoch: 1000
next table: 3709
cur table: 3769
epoch: 1000
next table: 3192
cur table: 3709
epoch: 1000
next table: 2657
cur table: 3192
epoch: 1000
next table: 3759
cur table: 2657
epoch: 1000
next table: 3574
cur table: 3759
epoch: 1000
next table: 2605
cur table: 3574
epoch: 1000
next table: 3138
cur table: 2605
epoch: 1000
next table: 2286
cur table: 3138
epoch: 1000
next table: 2375
cur table: 2286
epoch: 1000
next table: 3533
cur table: 2375
epoch: 1000
next table: 3223
cur table: 3533
epoch: 1000
next table: 3498
cur table: 3223
epoch: 1000
next table: 3088
cur table: 3498
epoch: 1000
next table: 3778
cur table: 3088
epoch: 1000
next table: 2885
cur table: 3778
epoch: 1000
next table: 2642
cur table: 2885
epoch: 1000
next table: 2007
cur table: 2642
epoch: 1000
next table: 2031
cur table: 2007
epoch: 1000
next table: 1997
cur table: 2031
epoch: 1000
next table: 2032
cur table: 1997
epoch: 1000
next table: 1984
cur table: 2032
epoch: 1000
next table: 2021
cur table: 1984
epoch: 1000
next table: 2015
cur table: 2021
epoch: 1000
next table: 2017
cur table: 2015
epoch: 1000
next table: 2019
cur table: 2017
epoch: 1000
next table: 1992
cur table: 2019
epoch: 1000
next table: 2028
cur table: 1992
epoch: 1000
next table: 1997
cur table: 2028
epoch: 1000
next table: 2032
cur table: 1997
epoch: 1000
next table: 1999
cur table: 2032
epoch: 1000
next table: 2008
cur table: 1999
epoch: 1000
next table: 2024
cur table: 2008
epoch: 1000
next table: 2003
cur table: 2024
epoch: 1000
next table: 2034
cur table: 2003
epoch: 1000
next table: 1988
cur table: 2034
epoch: 1000
next table: 2017
cur table: 1988
epoch: 1000
next table: 2020
cur table: 2017
epoch: 1000
next table: 2009
cur table: 2020
epoch: 1000
next table: 2025
cur table: 2009
epoch: 1000
next table: 1985
cur table: 2025
epoch: 1000
next table: 2028
cur table: 1985
epoch: 1000
next table: 2004
cur table: 2028
epoch: 1000
next table: 2026
cur table: 2004
epoch: 1000
next table: 2006
cur table: 2026
epoch: 1000
next table: 2000
cur table: 2006
epoch: 1000
next table: 2031
cur table: 2000
epoch: 1000
next table: 1998
cur table: 2031
epoch: 1000
next table: 2035
cur table: 1998
epoch: 1000
next table: 1989
cur table: 2035
epoch: 1000
next table: 2012
cur table: 1989
epoch: 1000
next table: 2021
cur table: 2012
epoch: 1000
next table: 2011
cur table: 2021
epoch: 1000
next table: 2023
cur table: 2011
epoch: 1000
next table: 1987
cur table: 2023
epoch: 1000
next table: 2029
cur table: 1987
epoch: 1000
next table: 2003
cur table: 2029
epoch: 1000
next table: 2025
cur table: 2003
epoch: 1000
next table: 2011
cur table: 2025
epoch: 1000
next table: 1992
cur table: 2011
epoch: 1000
next table: 2036
cur table: 1992
epoch: 1000
next table: 1997
cur table: 2036
epoch: 1000
next table: 2035
cur table: 1997
epoch: 1000
next table: 1999
cur table: 2035
epoch: 1000
next table: 2005
cur table: 1999
epoch: 1000
next table: 2027
cur table: 2005
epoch: 1000
next table: 2000
cur table: 2027
epoch: 1000
next table: 2031
cur table: 2000
epoch: 1000
next table: 1985
cur table: 2031
epoch: 1000
next table: 2021
cur table: 1985
epoch: 1000
next table: 2013
cur table: 2021
epoch: 1000
next table: 2019
cur table: 2013
epoch: 1000
next table: 2013
cur table: 2019
epoch: 1000
next table: 1991
cur table: 2013
epoch: 1000
next table: 2037
cur table: 1991
epoch: 1000
next table: 1992
cur table: 2037
epoch: 1000
next table: 2034
cur table: 1992
epoch: 1000
next table: 1999
cur table: 2034
epoch: 1000
next table: 2006
cur table: 1999
epoch: 1000
next table: 2030
cur table: 2006
epoch: 1000
next table: 2002
cur table: 2030
epoch: 1000
next table: 2033
cur table: 2002
epoch: 1000
next table: 1986
cur table: 2033
epoch: 1000
next table: 2017
cur table: 1986
epoch: 1000
next table: 2016
cur table: 2017
epoch: 1000
next table: 2015
cur table: 2016
epoch: 1000
next table: 2021
cur table: 2015
epoch: 1000
next table: 1984
cur table: 2021
epoch: 1000
next table: 2033
cur table: 1984
epoch: 1000
next table: 2003
cur table: 2033
epoch: 1000
next table: 2029
cur table: 2003
epoch: 1000
next table: 2006
cur table: 2029
epoch: 1000
next table: 1997
cur table: 2006
epoch: 1000
next table: 2036
cur table: 1997
epoch: 1000
next table: 1993
cur table: 2036
epoch: 1000
next table: 2036
cur table: 1993
epoch: 1000
next table: 1995
cur table: 2036
epoch: 1000
next table: 2008
cur table: 1995
epoch: 1000
next table: 2028
cur table: 2008
epoch: 1000
next table: 2001
cur table: 2028
epoch: 1000
next table: 2033
cur table: 2001
epoch: 1000
next table: 1983
cur table: 2033
epoch: 1000
next table: 2023
cur table: 1983
epoch: 1000
next table: 2010
cur table: 2023
epoch: 1000
next table: 2016
cur table: 2010
epoch: 1000
next table: 2016
cur table: 2016
epoch: 1000
next table: 1990
cur table: 2016
epoch: 1000
next table: 2032
cur table: 1990
epoch: 1000
next table: 2000
cur table: 2032
epoch: 1000
next table: 2027
cur table: 2000
epoch: 1000
next table: 2005
cur table: 2027
epoch: 1000
next table: 2000
cur table: 2005
epoch: 1000
next table: 2029
cur table: 2000
epoch: 1000
next table: 2001
cur table: 2029
epoch: 1000
next table: 2034
cur table: 2001
epoch: 1000
next table: 1989
cur table: 2034
epoch: 1000
next table: 2015
cur table: 1989
epoch: 1000
next table: 2020
cur table: 2015
epoch: 1000
next table: 2010
cur table: 2020
epoch: 1000
next table: 2018
cur table: 2010
epoch: 1000
next table: 1989
cur table: 2018
epoch: 1000
next table: 2033
cur table: 1989
epoch: 1000
next table: 2004
cur table: 2033
epoch: 1000
next table: 2023
cur table: 2004
epoch: 1000
next table: 2011
cur table: 2023
epoch: 1000
next table: 1994
cur table: 2011
epoch: 1000
next table: 2034
cur table: 1994
epoch: 1000
next table: 2000
cur table: 2034
epoch: 1000
next table: 2032
cur table: 2000
epoch: 1000
next table: 2005
cur table: 2032
epoch: 1000
next table: 1999
cur table: 2005
epoch: 1000
next table: 2036
cur table: 1999
epoch: 1000
next table: 1992
cur table: 2036
epoch: 1000
next table: 2037
cur table: 1992
epoch: 1000
next table: 1984
cur table: 2037
Heartbeat CPU 0 instructions: 60000000 cycles: 30514120 heartbeat IPC: 0.682105 cumulative IPC: 0.682105 (Simulation time: 0 hr 37 min 41 sec) 
epoch: 1000
next table: 2019
cur table: 1984
epoch: 1000
next table: 2015
cur table: 2019
epoch: 1000
next table: 2015
cur table: 2015
epoch: 1000
next table: 2026
cur table: 2015
epoch: 1000
next table: 1985
cur table: 2026
epoch: 1000
next table: 2028
cur table: 1985
epoch: 1000
next table: 2005
cur table: 2028
epoch: 1000
next table: 2025
cur table: 2005
epoch: 1000
next table: 2010
cur table: 2025
epoch: 1000
next table: 1992
cur table: 2010
epoch: 1000
next table: 2035
cur table: 1992
epoch: 1000
next table: 2000
cur table: 2035
epoch: 1000
next table: 2032
cur table: 2000
epoch: 1000
next table: 2004
cur table: 2032
epoch: 1000
next table: 1980
cur table: 2004
epoch: 1000
next table: 1813
cur table: 1980
epoch: 1000
next table: 1885
cur table: 1813
epoch: 1000
next table: 1850
cur table: 1885
epoch: 1000
next table: 1889
cur table: 1850
epoch: 1000
next table: 1879
cur table: 1889
epoch: 1000
next table: 1944
cur table: 1879
epoch: 1000
next table: 1834
cur table: 1944
epoch: 1000
next table: 2007
cur table: 1834
epoch: 1000
next table: 1899
cur table: 2007
epoch: 1000
next table: 1958
cur table: 1899
epoch: 1000
next table: 1913
cur table: 1958
epoch: 1000
next table: 1958
cur table: 1913
epoch: 1000
next table: 2006
cur table: 1958
epoch: 1000
next table: 1901
cur table: 2006
epoch: 1000
next table: 1984
cur table: 1901
epoch: 1000
next table: 2012
cur table: 1984
epoch: 1000
next table: 1850
cur table: 2012
epoch: 1000
next table: 1992
cur table: 1850
epoch: 1000
next table: 1820
cur table: 1992
epoch: 1000
next table: 1852
cur table: 1820
epoch: 1000
next table: 1969
cur table: 1852
epoch: 1000
next table: 1804
cur table: 1969
epoch: 1000
next table: 1865
cur table: 1804
epoch: 1000
next table: 1963
cur table: 1865
epoch: 1000
next table: 1816
cur table: 1963
epoch: 1000
next table: 1880
cur table: 1816
epoch: 1000
next table: 1923
cur table: 1880
epoch: 1000
next table: 1817
cur table: 1923
epoch: 1000
next table: 1917
cur table: 1817
epoch: 1000
next table: 1910
cur table: 1917
epoch: 1000
next table: 1831
cur table: 1910
epoch: 1000
next table: 1943
cur table: 1831
epoch: 1000
next table: 1895
cur table: 1943
epoch: 1000
next table: 1946
cur table: 1895
epoch: 1000
next table: 1889
cur table: 1946
epoch: 1000
next table: 1981
cur table: 1889
epoch: 1000
next table: 1883
cur table: 1981
epoch: 1000
next table: 2019
cur table: 1883
epoch: 1000
next table: 2021
cur table: 2019
epoch: 1000
next table: 1896
cur table: 2021
epoch: 1000
next table: 1974
cur table: 1896
epoch: 1000
next table: 1861
cur table: 1974
epoch: 1000
next table: 1869
cur table: 1861
epoch: 1000
next table: 1900
cur table: 1869
epoch: 1000
next table: 1815
cur table: 1900
epoch: 1000
next table: 1908
cur table: 1815
epoch: 1000
next table: 1915
cur table: 1908
epoch: 1000
next table: 1812
cur table: 1915
epoch: 1000
next table: 1960
cur table: 1812
epoch: 1000
next table: 1861
cur table: 1960
epoch: 1000
next table: 1807
cur table: 1861
epoch: 1000
next table: 1880
cur table: 1807
epoch: 1000
next table: 1923
cur table: 1880
epoch: 1000
next table: 1827
cur table: 1923
epoch: 1000
next table: 1927
cur table: 1827
epoch: 1000
next table: 1900
cur table: 1927
epoch: 1000
next table: 1922
cur table: 1900
epoch: 1000
next table: 1902
cur table: 1922
epoch: 1000
next table: 1975
cur table: 1902
epoch: 1000
next table: 1883
cur table: 1975
epoch: 1000
next table: 1929
cur table: 1883
epoch: 1000
next table: 1928
cur table: 1929
epoch: 1000
next table: 2010
cur table: 1928
epoch: 1000
next table: 1987
cur table: 2010
epoch: 1000
next table: 1948
cur table: 1987
epoch: 1000
next table: 1985
cur table: 1948
epoch: 1000
next table: 1869
cur table: 1985
epoch: 1000
next table: 1967
cur table: 1869
epoch: 1000
next table: 1841
cur table: 1967
epoch: 1000
next table: 1855
cur table: 1841
epoch: 1000
next table: 1961
cur table: 1855
epoch: 1000
next table: 1814
cur table: 1961
epoch: 1000
next table: 1918
cur table: 1814
epoch: 1000
next table: 1912
cur table: 1918
epoch: 1000
next table: 1865
cur table: 1912
epoch: 1000
next table: 1870
cur table: 1865
epoch: 1000
next table: 1906
cur table: 1870
epoch: 1000
next table: 1855
cur table: 1906
epoch: 1000
next table: 1854
cur table: 1855
epoch: 1000
next table: 1909
cur table: 1854
epoch: 1000
next table: 1922
cur table: 1909
epoch: 1000
next table: 1904
cur table: 1922
epoch: 1000
next table: 1945
cur table: 1904
epoch: 1000
next table: 1894
cur table: 1945
epoch: 1000
next table: 1890
cur table: 1894
epoch: 1000
next table: 1967
cur table: 1890
epoch: 1000
next table: 1998
cur table: 1967
epoch: 1000
next table: 1862
cur table: 1998
epoch: 1000
next table: 2020
cur table: 1862
epoch: 1000
next table: 1995
cur table: 2020
epoch: 1000
next table: 1874
cur table: 1995
epoch: 1000
next table: 2010
cur table: 1874
epoch: 1000
next table: 1803
cur table: 2010
epoch: 1000
next table: 1825
cur table: 1803
epoch: 1000
next table: 1898
cur table: 1825
epoch: 1000
next table: 1884
cur table: 1898
epoch: 1000
next table: 1836
cur table: 1884
epoch: 1000
next table: 1915
cur table: 1836
epoch: 1000
next table: 1902
cur table: 1915
epoch: 1000
next table: 1872
cur table: 1902
epoch: 1000
next table: 1907
cur table: 1872
epoch: 1000
next table: 1844
cur table: 1907
epoch: 1000
next table: 1891
cur table: 1844
epoch: 1000
next table: 1933
cur table: 1891
epoch: 1000
next table: 1836
cur table: 1933
epoch: 1000
next table: 1974
cur table: 1836
epoch: 1000
next table: 1903
cur table: 1974
epoch: 1000
next table: 1879
cur table: 1903
epoch: 1000
next table: 1961
cur table: 1879
epoch: 1000
next table: 1938
cur table: 1961
epoch: 1000
next table: 1912
cur table: 1938
epoch: 1000
next table: 1983
cur table: 1912
epoch: 1000
next table: 1887
cur table: 1983
epoch: 1000
next table: 2030
cur table: 1887
epoch: 1000
next table: 2019
cur table: 2030
epoch: 1000
next table: 1901
cur table: 2019
epoch: 1000
next table: 1952
cur table: 1901
epoch: 1000
next table: 1832
cur table: 1952
epoch: 1000
next table: 1926
cur table: 1832
epoch: 1000
next table: 1870
cur table: 1926
epoch: 1000
next table: 1855
cur table: 1870
epoch: 1000
next table: 1939
cur table: 1855
epoch: 1000
next table: 1850
cur table: 1939
epoch: 1000
next table: 1869
cur table: 1850
epoch: 1000
next table: 1915
cur table: 1869
epoch: 1000
next table: 1838
cur table: 1915
epoch: 1000
next table: 1862
cur table: 1838
epoch: 1000
next table: 1879
cur table: 1862
epoch: 1000
next table: 1887
cur table: 1879
epoch: 1000
next table: 1877
cur table: 1887
epoch: 1000
next table: 1894
cur table: 1877
epoch: 1000
next table: 1879
cur table: 1894
epoch: 1000
next table: 1923
cur table: 1879
epoch: 1000
next table: 1905
cur table: 1923
epoch: 1000
next table: 1890
cur table: 1905
epoch: 1000
next table: 1968
cur table: 1890
epoch: 1000
next table: 1929
cur table: 1968
epoch: 1000
next table: 1926
cur table: 1929
[...]
epoch: 1000
next table: 1858
cur table: 2014
epoch: 1000
next table: 2011
cur table: 1858
epoch: 1000
next table: 1841
cur table: 2011
epoch: 1000
next table: 1977
cur table: 1841
epoch: 1000
next table: 1838
cur table: 1977
epoch: 1000
next table: 1866
cur table: 1838
epoch: 1000
next table: 1964
cur table: 1866
epoch: 1000
next table: 1800
cur table: 1964
epoch: 1000
next table: 1866
cur table: 1800
epoch: 1000
next table: 1926
cur table: 1866
epoch: 1000
next table: 1817
cur table: 1926
epoch: 1000
next table: 1857
cur table: 1817
epoch: 1000
next table: 1905
cur table: 1857
epoch: 1000
next table: 1868
cur table: 1905
epoch: 1000
next table: 1857
cur table: 1868
epoch: 1000
next table: 1960
cur table: 1857
epoch: 1000
next table: 1857
cur table: 1960
epoch: 1000
next table: 1987
cur table: 1857
epoch: 1000
next table: 1896
cur table: 1987
epoch: 1000
next table: 1970
cur table: 1896
epoch: 1000
next table: 1872
cur table: 1970
epoch: 1000
next table: 1988
cur table: 1872
epoch: 1000
next table: 2013
cur table: 1988
epoch: 1000
next table: 1922
cur table: 2013
epoch: 1000
next table: 1982
cur table: 1922
epoch: 1000
next table: 1898
cur table: 1982
epoch: 1000
next table: 1943
cur table: 1898
epoch: 1000
next table: 1854
cur table: 1943
epoch: 1000
next table: 1897
cur table: 1854
epoch: 1000
next table: 1880
cur table: 1897
epoch: 1000
next table: 1845
cur table: 1880
epoch: 1000
next table: 1900
cur table: 1845
epoch: 1000
next table: 1876
cur table: 1900
epoch: 1000
next table: 1808
cur table: 1876
epoch: 1000
next table: 1876
cur table: 1808
epoch: 1000
next table: 1920
cur table: 1876
epoch: 1000
next table: 1828
cur table: 1920
epoch: 1000
next table: 1914
cur table: 1828
epoch: 1000
next table: 1907
cur table: 1914
epoch: 1000
next table: 1833
cur table: 1907
epoch: 1000
next table: 1939
cur table: 1833
epoch: 1000
next table: 1895
cur table: 1939
epoch: 1000
next table: 1986
cur table: 1895
epoch: 1000
next table: 1866
cur table: 1986
epoch: 1000
next table: 2009
cur table: 1866
epoch: 1000
next table: 1968
cur table: 2009
epoch: 1000
next table: 1898
cur table: 1968
epoch: 1000
next table: 2026
cur table: 1898
epoch: 1000
next table: 1973
cur table: 2026
epoch: 1000
next table: 1951
cur table: 1973
epoch: 1000
next table: 1989
cur table: 1951
epoch: 1000
next table: 1957
cur table: 1989
epoch: 1000
next table: 1885
cur table: 1957
epoch: 1000
next table: 1854
cur table: 1885
epoch: 1000
next table: 1971
cur table: 1854
epoch: 1000
next table: 1822
cur table: 1971
epoch: 1000
next table: 1871
cur table: 1822
epoch: 1000
next table: 1933
cur table: 1871
epoch: 1000
next table: 1793
cur table: 1933
epoch: 1000
next table: 1865
cur table: 1793
epoch: 1000
next table: 1900
cur table: 1865
epoch: 1000
next table: 1865
cur table: 1900
epoch: 1000
next table: 1860
cur table: 1865
epoch: 1000
next table: 1901
cur table: 1860
epoch: 1000
next table: 1882
cur table: 1901
epoch: 1000
next table: 1951
cur table: 1882
epoch: 1000
next table: 1910
cur table: 1951
epoch: 1000
next table: 1846
cur table: 1910
epoch: 1000
next table: 1967
cur table: 1846
epoch: 1000
next table: 1964
cur table: 1967
epoch: 1000
next table: 1909
cur table: 1964
epoch: 1000
next table: 2018
cur table: 1909
epoch: 1000
next table: 1965
cur table: 2018
epoch: 1000
next table: 1916
cur table: 1965
epoch: 1000
next table: 2023
cur table: 1916
epoch: 1000
next table: 1946
cur table: 2023
Heartbeat CPU 0 instructions: 100000003 cycles: 72516095 heartbeat IPC: 1.14062 cumulative IPC: 0.882418 (Simulation time: 1 hr 3 min 34 sec) 
Finished CPU 0 instructions: 50000002 cycles: 56662470 cumulative IPC: 0.882418 (Simulation time: 1 hr 3 min 34 sec) 

ChampSim completed all CPUs

Region of Interest Statistics

CPU 0 cumulative IPC: 0.882418 instructions: 50000002 cycles: 56662470
ITLB TOTAL     ACCESS:    7531932  HIT:    7531932  MISS:          0  HIT %:        100  MISS %:          0   MPKI: 0
ITLB LOAD TRANSLATION ACCESS:    7531932  HIT:    7531932  MISS:          0  HIT %:        100  MISS %:          0   MPKI: 0
ITLB PREFETCH  REQUESTED:          0  ISSUED:          0  USEFUL:          0  USELESS:          0
ITLB USEFUL LOAD PREFETCHES:          0 PREFETCH ISSUED TO LOWER LEVEL:          0  ACCURACY: -nan
ITLB TIMELY PREFETCHES:          0 LATE PREFETCHES: 0 DROPPED PREFETCHES: 0
ITLB PREFETCHES SAME FILL-ORIGIN LEVEL: 0 DIFFERENT FILL-ORIGIN LEVEL: 0
ITLB AVERAGE MISS LATENCY: -nan cycles
ITLB RQ	ACCESS:    8080124	FORWARD:          0	MERGED:     548192	TO_CACHE:    7531932

Revised Interactions: positive negative neutral
ITLB_interactions 0 0 0 -nan -nan -nan
DTLB TOTAL     ACCESS:   12769410  HIT:   12745233  MISS:      24177  HIT %:    99.8107  MISS %:   0.189335   MPKI: 0.48354
DTLB LOAD TRANSLATION ACCESS:   12769410  HIT:   12745233  MISS:      24177  HIT %:    99.8107  MISS %:   0.189335   MPKI: 0.48354
DTLB PREFETCH  REQUESTED:          0  ISSUED:          0  USEFUL:          0  USELESS:          0
DTLB USEFUL LOAD PREFETCHES:          0 PREFETCH ISSUED TO LOWER LEVEL:          0  ACCURACY: -nan
DTLB TIMELY PREFETCHES:          0 LATE PREFETCHES: 0 DROPPED PREFETCHES: 0
DTLB PREFETCHES SAME FILL-ORIGIN LEVEL: 0 DIFFERENT FILL-ORIGIN LEVEL: 0
DTLB AVERAGE MISS LATENCY: 176.236 cycles
DTLB RQ	ACCESS:   14152344	FORWARD:          0	MERGED:    1360989	TO_CACHE:   12791355

Revised Interactions: positive negative neutral
DTLB_interactions 0 0 0 -nan -nan -nan
STLB TOTAL     ACCESS:      24177  HIT:         18  MISS:      24159  HIT %:  0.0744509  MISS %:    99.9255   MPKI: 0.48318
STLB LOAD TRANSLATION ACCESS:      24177  HIT:         18  MISS:      24159  HIT %:  0.0744509  MISS %:    99.9255   MPKI: 0.48318
STLB PREFETCH  REQUESTED:          0  ISSUED:          0  USEFUL:          0  USELESS:          0
STLB USEFUL LOAD PREFETCHES:          0 PREFETCH ISSUED TO LOWER LEVEL:          0  ACCURACY: -nan
STLB TIMELY PREFETCHES:          0 LATE PREFETCHES: 0 DROPPED PREFETCHES: 0
STLB PREFETCHES SAME FILL-ORIGIN LEVEL: 0 DIFFERENT FILL-ORIGIN LEVEL: 0
STLB AVERAGE MISS LATENCY: 167.041 cycles
STLB RQ	ACCESS:      24177	FORWARD:          0	MERGED:          0	TO_CACHE:      24177

Revised Interactions: positive negative neutral
STLB_interactions 0 0 0 -nan -nan -nan
STLB Hit, L1D data hit: 0
STLB Hit, L2C data hit: 0
STLB Hit, LLC data hit: 0
STLB Hit, LLC data miss: 0
STLB STLB hints to L2: 0
L1D TOTAL     ACCESS:   12437051  HIT:   11354617  MISS:    1082434  HIT %:    91.2967  MISS %:     8.7033   MPKI: 21.6487
L1D LOAD      ACCESS:   11363268  HIT:   10615019  MISS:     748249  HIT %:    93.4152  MISS %:     6.5848   MPKI: 14.965
L1D RFO       ACCESS:    1073783  HIT:     739598  MISS:     334185  HIT %:    68.8778  MISS %:    31.1222   MPKI: 6.6837
L1D PREFETCH  REQUESTED:          0  ISSUED:          0  USEFUL:          0  USELESS:          0
L1D USEFUL LOAD PREFETCHES:          0 PREFETCH ISSUED TO LOWER LEVEL:          0  ACCURACY: -nan
L1D TIMELY PREFETCHES:          0 LATE PREFETCHES: 0 DROPPED PREFETCHES: 0
L1D PREFETCHES SAME FILL-ORIGIN LEVEL: 0 DIFFERENT FILL-ORIGIN LEVEL: 0
L1D AVERAGE MISS LATENCY: 101.817 cycles
L1D RQ	ACCESS:   18843743	FORWARD:          0	MERGED:    7349520	TO_CACHE:   11494223
L1D WQ	ACCESS:    2658121	FORWARD:          0	MERGED:          0	TO_CACHE:    2658121

Revised Interactions: positive negative neutral
L1D_interactions 0 0 0 -nan -nan -nan
L1D UNIQUE REGIONS ACCESSED: 0
L1D REGIONS CONFLICTS: 0
L1D Cross Page Prefetch Requests: 0
L1D Same Page Prefetch Requests: 0
L1D ROI Sum of L1D PQ occupancy: 0
L1D PREFETCHES PUSHED FROM L2C: 0
L1I TOTAL     ACCESS:    8080123  HIT:    8080123  MISS:          0  HIT %:        100  MISS %:          0   MPKI: 0
L1I LOAD      ACCESS:    8080123  HIT:    8080123  MISS:          0  HIT %:        100  MISS %:          0   MPKI: 0
L1I PREFETCH  REQUESTED:          0  ISSUED:          0  USEFUL:          0  USELESS:          0
L1I USEFUL LOAD PREFETCHES:          0 PREFETCH ISSUED TO LOWER LEVEL:          0  ACCURACY: -nan
L1I TIMELY PREFETCHES:          0 LATE PREFETCHES: 0 DROPPED PREFETCHES: 0
L1I PREFETCHES SAME FILL-ORIGIN LEVEL: 0 DIFFERENT FILL-ORIGIN LEVEL: 0
L1I AVERAGE MISS LATENCY: -nan cycles
L1I RQ	ACCESS:   12980509	FORWARD:          0	MERGED:    4900385	TO_CACHE:    8080124

Revised Interactions: positive negative neutral
L1I_interactions 0 0 0 -nan -nan -nan
BTB TOTAL     ACCESS:    2648594  HIT:    2648585  MISS:          9  HIT %:    99.9997  MISS %: 0.000339803   MPKI: 0.00018
BTB BRANCH_DIRECT_JUMP	ACCESS:          0  HIT:          0  MISS:          0
BTB BRANCH_INDIRECT	ACCESS:          0  HIT:          0  MISS:          0
BTB BRANCH_CONDITIONAL	ACCESS:    2648594  HIT:    2648585  MISS:          9
BTB BRANCH_DIRECT_CALL	ACCESS:          0  HIT:          0  MISS:          0
BTB BRANCH_INDIRECT_CALL	ACCESS:          0  HIT:          0  MISS:          0
BTB BRANCH_RETURN	ACCESS:          0  HIT:          0  MISS:          0
BTB BRANCH_OTHER ACCESS:          0  HIT:          0  MISS:          0

L2C TOTAL     ACCESS:    2361558  HIT:    1167606  MISS:    1193952  HIT %:    49.4422  MISS %:    50.5578   MPKI: 23.879
L2C LOAD      ACCESS:     748249  HIT:     698199  MISS:      50050  HIT %:    93.3111  MISS %:    6.68895   MPKI: 1.001
L2C DATA LOAD MPKI: 1.001
L2C INSTRUCTION LOAD MPKI: 0
L2C RFO       ACCESS:     334185  HIT:          0  MISS:     334185  HIT %:          0  MISS %:        100   MPKI: 6.6837
L2C PREFETCH  ACCESS:     920741  HIT:     125488  MISS:     795253  HIT %:     13.629  MISS %:     86.371   MPKI: 15.9051
L2C DATA PREFETCH MPKI: 15.9051
L2C INSTRUCTION PREFETCH MPKI: 0
L2C WRITEBACK ACCESS:     334191  HIT:     324821  MISS:       9370  HIT %:    97.1962  MISS %:    2.80379   MPKI: 0.1874
L2C LOAD TRANSLATION ACCESS:      24192  HIT:      19098  MISS:       5094  HIT %:    78.9435  MISS %:    21.0565   MPKI: 0.10188
L2C PREFETCH  REQUESTED:     929514  ISSUED:     929514  USEFUL:     698196  USELESS:      97288
L2C USEFUL LOAD PREFETCHES:     698196 PREFETCH ISSUED TO LOWER LEVEL:     801616  ACCURACY: 87.0986
L2C TIMELY PREFETCHES:     698196 LATE PREFETCHES: 6363 DROPPED PREFETCHES: 0
L2C PREFETCHES SAME FILL-ORIGIN LEVEL: 801616 DIFFERENT FILL-ORIGIN LEVEL: 0
L2C AVERAGE MISS LATENCY: 239.372 cycles
L2C RQ	ACCESS:    1106626	FORWARD:          0	MERGED:          0	TO_CACHE:    1106626
L2C WQ	ACCESS:     334191	FORWARD:          0	MERGED:          0	TO_CACHE:     334191
L2C PQ	ACCESS:     929514	FORWARD:          0	MERGED:          0	TO_CACHE:     929514

Revised Interactions: positive negative neutral
L2C_interactions 699227 88490 28697 85.6461 10.8389 3.51501
L2C Instructions Evicting Data 0
L2C Translations Evicting Data 5086
L2C Data Evicting Data 1174477
L2C Instructions Evicting Instructions 0
L2C Translations Evicting Instructions 0
L2C Data Evicting Instructions 0
L2C Instructions Evicting Translations 0
L2C Translations Evicting Translations 8
L2C Data Evicting Translations 5011
L2C Dense regions hint from L2: 0
PSCL5 TOTAL     ACCESS:      24159  HIT:      24159  MISS:          0  HIT %:        100  MISS %:          0   MPKI: 0
PSCL5 LOAD TRANSLATION ACCESS:      24159  HIT:      24159  MISS:          0  HIT %:        100  MISS %:          0   MPKI: 0
PSCL5 PREFETCH  REQUESTED:          0  ISSUED:          0  USEFUL:          0  USELESS:          0
PSCL5 USEFUL LOAD PREFETCHES:          0 PREFETCH ISSUED TO LOWER LEVEL:          0  ACCURACY: -nan
PSCL5 TIMELY PREFETCHES:          0 LATE PREFETCHES: 0 DROPPED PREFETCHES: 0
PSCL5 PREFETCHES SAME FILL-ORIGIN LEVEL: 0 DIFFERENT FILL-ORIGIN LEVEL: 0

Revised Interactions: positive negative neutral
PSCL5_interactions 0 0 0 -nan -nan -nan
PSCL4 TOTAL     ACCESS:      24159  HIT:      24159  MISS:          0  HIT %:        100  MISS %:          0   MPKI: 0
PSCL4 LOAD TRANSLATION ACCESS:      24159  HIT:      24159  MISS:          0  HIT %:        100  MISS %:          0   MPKI: 0
PSCL4 PREFETCH  REQUESTED:          0  ISSUED:          0  USEFUL:          0  USELESS:          0
PSCL4 USEFUL LOAD PREFETCHES:          0 PREFETCH ISSUED TO LOWER LEVEL:          0  ACCURACY: -nan
PSCL4 TIMELY PREFETCHES:          0 LATE PREFETCHES: 0 DROPPED PREFETCHES: 0
PSCL4 PREFETCHES SAME FILL-ORIGIN LEVEL: 0 DIFFERENT FILL-ORIGIN LEVEL: 0

Revised Interactions: positive negative neutral
PSCL4_interactions 0 0 0 -nan -nan -nan
PSCL3 TOTAL     ACCESS:      24159  HIT:      24159  MISS:          0  HIT %:        100  MISS %:          0   MPKI: 0
PSCL3 LOAD TRANSLATION ACCESS:      24159  HIT:      24159  MISS:          0  HIT %:        100  MISS %:          0   MPKI: 0
PSCL3 PREFETCH  REQUESTED:          0  ISSUED:          0  USEFUL:          0  USELESS:          0
PSCL3 USEFUL LOAD PREFETCHES:          0 PREFETCH ISSUED TO LOWER LEVEL:          0  ACCURACY: -nan
PSCL3 TIMELY PREFETCHES:          0 LATE PREFETCHES: 0 DROPPED PREFETCHES: 0
PSCL3 PREFETCHES SAME FILL-ORIGIN LEVEL: 0 DIFFERENT FILL-ORIGIN LEVEL: 0

Revised Interactions: positive negative neutral
PSCL3_interactions 0 0 0 -nan -nan -nan
PSCL2 TOTAL     ACCESS:      24159  HIT:      24092  MISS:         67  HIT %:    99.7227  MISS %:   0.277329   MPKI: 0.00134
PSCL2 LOAD TRANSLATION ACCESS:      24159  HIT:      24092  MISS:         67  HIT %:    99.7227  MISS %:   0.277329   MPKI: 0.00134
PSCL2 PREFETCH  REQUESTED:          0  ISSUED:          0  USEFUL:          0  USELESS:          0
PSCL2 USEFUL LOAD PREFETCHES:          0 PREFETCH ISSUED TO LOWER LEVEL:          0  ACCURACY: -nan
PSCL2 TIMELY PREFETCHES:          0 LATE PREFETCHES: 0 DROPPED PREFETCHES: 0
PSCL2 PREFETCHES SAME FILL-ORIGIN LEVEL: 0 DIFFERENT FILL-ORIGIN LEVEL: 0

Revised Interactions: positive negative neutral
PSCL2_interactions 0 0 0 -nan -nan -nan
LLC TOTAL     ACCESS:    1518784  HIT:     173849  MISS:    1344935  HIT %:    11.4466  MISS %:    88.5534   MPKI: 26.8987
LLC LOAD      ACCESS:      43687  HIT:       2235  MISS:      41452  HIT %:    5.11594  MISS %:    94.8841   MPKI: 0.82904
LLC RFO       ACCESS:     334185  HIT:      57242  MISS:     276943  HIT %:    17.1288  MISS %:    82.8712   MPKI: 5.53886
LLC PREFETCH  ACCESS:     801616  HIT:      56710  MISS:     744906  HIT %:    7.07446  MISS %:    92.9255   MPKI: 14.8981
LLC WRITEBACK ACCESS:     334202  HIT:      57246  MISS:     276956  HIT %:    17.1292  MISS %:    82.8708   MPKI: 5.53912
LLC LOAD TRANSLATION ACCESS:       5094  HIT:        416  MISS:       4678  HIT %:    8.16647  MISS %:    91.8335   MPKI: 0.09356
LLC PREFETCH  REQUESTED:          0  ISSUED:          0  USEFUL:          0  USELESS:          0
LLC USEFUL LOAD PREFETCHES:          0 PREFETCH ISSUED TO LOWER LEVEL:     744906  ACCURACY: 0
LLC TIMELY PREFETCHES:          0 LATE PREFETCHES: 0 DROPPED PREFETCHES: 0
LLC PREFETCHES SAME FILL-ORIGIN LEVEL: 0 DIFFERENT FILL-ORIGIN LEVEL: 0
LLC AVERAGE MISS LATENCY: 186.197 cycles
LLC RQ	ACCESS:     382966	FORWARD:          0	MERGED:          0	TO_CACHE:     382966
LLC WQ	ACCESS:     334202	FORWARD:          0	MERGED:          0	TO_CACHE:     334202
LLC PQ	ACCESS:     801616	FORWARD:          0	MERGED:          0	TO_CACHE:     801616

Revised Interactions: positive negative neutral
LLC_interactions 0 0 0 -nan -nan -nan
LLC Dense regions hint to LLC: 0

RAW hits: 4
Loads Generated: 18843746
Loads sent to L1D: 18843743
Stores Generated: 2658121
Stores sent to L1D: 2658121
Major fault: 0 Minor fault: 22392
Allocated PAGES: 22392
[Bingo] PHT Access: 38516
[Bingo] PHT Hit PC+Addr: 663
[Bingo] PHT Hit PC+Offs: 37531
[Bingo] PHT Miss: 322
[Bingo] Prefetch PC+Addr: 0
[Bingo] Prefetch PC+Offs: 0
[Bingo] Useful PC+Addr: 0
[Bingo] Useful PC+Offs: 0
[Bingo] Useless PC+Addr: 0
[Bingo] Useless PC+Offs: 0
[Bingo] L1 Prefetch per Region: 0
[Bingo] L2 Prefetch per Region: 26.1993
[Bingo] L3 Prefetch per Region: 0
[Bingo] No Prefetch per Region: 5.80073
[Bingo] Number of Voters Mean: 15.3524
[Bingo] Number of Voters SD: 15.4692
PHT read accesses: 604348
PHT write accesses: 37349
AT read accesses: 736730
AT write accesses: 747082
FT read accesses: 113218
FT write accesses: 38516
PS read accesses: 141548
PS write accesses: 38194
PHT tag read accesses: 1792737
PHT tag write accesses: 38012
AT tag read accesses: 32651346
AT tag write accesses: 774081
FT tag read accesses: 21586965
FT tag write accesses: 114381
PS tag read accesses: 13468251
PS tag write accesses: 178476

DRAM Statistics
 CHANNEL 0
 RQ ROW_BUFFER_HIT:     546470  ROW_BUFFER_MISS:     521509
 DBUS_CONGESTED:       1026
 WQ ROW_BUFFER_HIT:     104594  ROW_BUFFER_MISS:     172370  FULL:       2271

 AVG_CONGESTED_CYCLE: 4
 All warmup complete: 2
Channel 0 Bank busy for read cycles: 0
Channel 0 Bank busy for write cycles: 0
Channel 0
Rank 0
0banks busy for read cycles: 14774576
0banks busy for write cycles: 15795
1banks busy for read cycles: 13499674
1banks busy for write cycles: 2121572
2banks busy for read cycles: 4597797
2banks busy for write cycles: 987803
3banks busy for read cycles: 1285175
3banks busy for write cycles: 778360
4banks busy for read cycles: 944011
4banks busy for write cycles: 672017
5banks busy for read cycles: 822533
5banks busy for write cycles: 625963
6banks busy for read cycles: 878132
6banks busy for write cycles: 609579
7banks busy for read cycles: 1690713
7banks busy for write cycles: 880166
8banks busy for read cycles: 7085080
8banks busy for write cycles: 4393525

CPU 0 Branch Prediction Accuracy: 99.8824% MPKI: 0.0623 Average ROB Occupancy at Mispredict: 201.903
Branch types
NOT_BRANCH: 47350062 94.7001%
BRANCH_DIRECT_JUMP: 0 0%
BRANCH_INDIRECT: 0 0%
BRANCH_CONDITIONAL: 2649624 5.29925%
BRANCH_DIRECT_CALL: 0 0%
BRANCH_INDIRECT_CALL: 0 0%
BRANCH_RETURN: 0 0%
BRANCH_OTHER: 0 0%

@sumon_overall_L1D         0         0         0         0         0         0         0
@Sumon_Early_by_class_L1D         0         0         0         0
@Sumon_Late_by_class_L1D         0         0         0         0

@Sumon_Early_by_cycle_L1D         0         0         0         0         0         0         0         0         0         0         0         0
@Sumon_Late_by_cycle_L1D         0         0         0         0         0         0
@Sumon_Early_stream_L1D         0         0         0         0         0         0         0         0         0         0         0         0
@Sumon_Early_CS_L1D         0         0         0         0         0         0         0         0         0         0         0         0
@Sumon_Early_CPLX_L1D         0         0         0         0         0         0         0         0         0         0         0         0
@Sumon_Late_stream_L1D         0         0         0         0         0         0
@Sumon_Late_CS_L1D         0         0         0         0         0         0
@Sumon_Late_CPLX_L1D         0         0         0         0         0         0
@sumon_overall_L2C    698196      6363         0     97288    795253    929514    929514
@Sumon_Early_by_class_L2C         0         0         0         0
@Sumon_Late_by_class_L2C         0         0         0         0

@Sumon_Early_by_cycle_L2C      5582     21891     27224     32497     31503    146713    150929    242556     39296         5         0         0
@Sumon_Late_by_cycle_L2C       148       295       563       643      3910       804
@Sumon_Early_stream_L2C         0         0         0         0         0         0         0         0         0         0         0         0
@Sumon_Early_CS_L2C         0         0         0         0         0         0         0         0         0         0         0         0
@Sumon_Early_CPLX_L2C         0         0         0         0         0         0         0         0         0         0         0         0
@Sumon_Late_stream_L2C         0         0         0         0         0         0
@Sumon_Late_CS_L2C         0         0         0         0         0         0
@Sumon_Late_CPLX_L2C         0         0         0         0         0         0
DRAM PAGES: 1048576
Allocated PAGES: 22392
