
*** ChampSim Multicore Out-of-Order Simulator ***

Warmup Instructions: 50000000
Simulation Instructions: 50000000
Number of CPUs: 1
LLC sets: 2048
LLC ways: 16
Off-chip DRAM Size: 4096 MB Channels: 1 Width: 64-bit Data Rate: 6400 MT/s
CPU 0 runs ../../biswa/SPEC2017Traces/605.mcf_s-665B.champsimtrace.xz
.xz
CPU 0 Bimodal branch predictor
BTB has LRU replacement policy
ITLB has LRU replacement policy
DTLB has LRU replacement policy
STLB has LRU replacement policy
L1I has LRU replacement policy
IP Table Entries: 256
L1D has LRU replacement policy
IP_Table L2 entries: 256
Initialize DRRIP state for L2C
Initialize SRRIP state
epoch: 1000
next table: 1844
cur table: 6913
epoch: 1000
next table: 1682
cur table: 1844
epoch: 1000
next table: 1568
cur table: 1682
epoch: 1000
next table: 1552
cur table: 1568
epoch: 1000
next table: 1570
cur table: 1552
epoch: 1000
next table: 1668
cur table: 1570
epoch: 1000
next table: 1593
cur table: 1668
epoch: 1000
next table: 1558
cur table: 1593
epoch: 1000
next table: 1546
cur table: 1558
epoch: 1000
next table: 1494
cur table: 1546
epoch: 1000
next table: 1522
cur table: 1494
epoch: 1000
next table: 1537
cur table: 1522
epoch: 1000
next table: 1501
cur table: 1537
epoch: 1000
next table: 1493
cur table: 1501
epoch: 1000
next table: 1505
cur table: 1493
epoch: 1000
next table: 1703
cur table: 1505
epoch: 1000
next table: 3174
cur table: 1703
epoch: 1000
next table: 3365
cur table: 3174
epoch: 1000
next table: 1695
cur table: 3365
epoch: 1000
next table: 1427
cur table: 1695
epoch: 1000
next table: 1451
cur table: 1427
epoch: 1000
next table: 1480
cur table: 1451
epoch: 1000
next table: 1519
cur table: 1480
epoch: 1000
next table: 1523
cur table: 1519
epoch: 1000
next table: 1498
cur table: 1523
epoch: 1000
next table: 1501
cur table: 1498
epoch: 1000
next table: 1497
cur table: 1501
epoch: 1000
next table: 1552
cur table: 1497
epoch: 1000
next table: 4046
cur table: 13209
epoch: 1000
next table: 1543
cur table: 1552
epoch: 1000
next table: 1525
cur table: 1543
epoch: 1000
next table: 1501
cur table: 1525
epoch: 1000
next table: 1515
cur table: 1501
epoch: 1000
next table: 1489
cur table: 1515
epoch: 1000
next table: 3185
cur table: 4046
epoch: 1000
next table: 1513
cur table: 1489
epoch: 1000
next table: 1519
cur table: 1513
epoch: 1000
next table: 1497
cur table: 1519
epoch: 1000
next table: 1505
cur table: 1497
epoch: 1000
next table: 2609
cur table: 3185
epoch: 1000
next table: 1611
cur table: 1505
epoch: 1000
next table: 2140
cur table: 1611
epoch: 1000
next table: 4637
cur table: 2140
epoch: 1000
next table: 1695
cur table: 4637
epoch: 1000
next table: 2809
cur table: 2609
epoch: 1000
next table: 1427
cur table: 1695
epoch: 1000
next table: 1458
cur table: 1427
epoch: 1000
next table: 1455
cur table: 1458
epoch: 1000
next table: 1853
cur table: 2809
epoch: 1000
next table: 1483
cur table: 1455
epoch: 1000
next table: 1498
cur table: 1483
epoch: 1000
next table: 1966
cur table: 1853
epoch: 1000
next table: 1505
cur table: 1498
epoch: 1000
next table: 1485
cur table: 1505
epoch: 1000
next table: 1511
cur table: 1485
epoch: 1000
next table: 2006
cur table: 1966
epoch: 1000
next table: 1532
cur table: 1511
epoch: 1000
next table: 1541
cur table: 1532
epoch: 1000
next table: 1998
cur table: 2006
epoch: 1000
next table: 1552
cur table: 1541
epoch: 1000
next table: 1535
cur table: 1552
epoch: 1000
next table: 1942
cur table: 1998
epoch: 1000
next table: 1497
cur table: 1535
epoch: 1000
next table: 1504
cur table: 1497
epoch: 1000
next table: 1498
cur table: 1504
epoch: 1000
next table: 1987
cur table: 1942
epoch: 1000
next table: 1529
cur table: 1498
epoch: 1000
next table: 1501
cur table: 1529
epoch: 1000
next table: 1944
cur table: 1987
epoch: 1000
next table: 1502
cur table: 1501
epoch: 1000
next table: 1514
cur table: 1502
epoch: 1000
next table: 2852
cur table: 1514
epoch: 1000
next table: 2239
cur table: 1944
epoch: 1000
next table: 3683
cur table: 2852
epoch: 1000
next table: 2079
cur table: 3683
epoch: 1000
next table: 2019
cur table: 2239
epoch: 1000
next table: 1422
cur table: 2079
epoch: 1000
next table: 1431
cur table: 1422
epoch: 1000
next table: 1782
cur table: 2019
epoch: 1000
next table: 1471
cur table: 1431
epoch: 1000
next table: 1505
cur table: 1471
epoch: 1000
next table: 1509
cur table: 1505
epoch: 1000
next table: 1784
cur table: 1782
epoch: 1000
next table: 1493
cur table: 1509
epoch: 1000
next table: 1490
cur table: 1493
epoch: 1000
next table: 1829
cur table: 1784
epoch: 1000
next table: 1493
cur table: 1490
epoch: 1000
next table: 1529
cur table: 1493
epoch: 1000
next table: 1929
cur table: 1829
epoch: 1000
next table: 1544
cur table: 1529
epoch: 1000
next table: 1534
cur table: 1544
epoch: 1000
next table: 1950
cur table: 1929
epoch: 1000
next table: 1516
cur table: 1534
epoch: 1000
next table: 1517
cur table: 1516
epoch: 1000
next table: 1491
cur table: 1517
epoch: 1000
next table: 1919
cur table: 1950
epoch: 1000
next table: 1499
cur table: 1491
epoch: 1000
next table: 1523
cur table: 1499
epoch: 1000
next table: 1869
cur table: 1919
epoch: 1000
next table: 1514
cur table: 1523
epoch: 1000
next table: 1499
cur table: 1514
epoch: 1000
next table: 1987
cur table: 1869
epoch: 1000
next table: 1503
cur table: 1499
epoch: 1000
next table: 1844
cur table: 1503
epoch: 1000
next table: 3921
cur table: 1844
epoch: 1000
next table: 2091
cur table: 1987
epoch: 1000
next table: 2380
cur table: 3921
epoch: 1000
next table: 1890
cur table: 2091
epoch: 1000
next table: 2181
cur table: 2380
epoch: 1000
next table: 1531
cur table: 2181
epoch: 1000
next table: 1684
cur table: 1890
epoch: 1000
next table: 1429
cur table: 1531
epoch: 1000
next table: 1473
cur table: 1429
epoch: 1000
next table: 1750
cur table: 1684
epoch: 1000
next table: 1490
cur table: 1473
epoch: 1000
next table: 1518
cur table: 1490
epoch: 1000
next table: 1802
cur table: 1750
epoch: 1000
next table: 1519
cur table: 1518
epoch: 1000
next table: 1491
cur table: 1519
epoch: 1000
next table: 1483
cur table: 1491
epoch: 1000
next table: 1884
cur table: 1802
epoch: 1000
next table: 1492
cur table: 1483
epoch: 1000
next table: 1535
cur table: 1492
epoch: 1000
next table: 1946
cur table: 1884
epoch: 1000
next table: 1532
cur table: 1535
epoch: 1000
next table: 1535
cur table: 1532
epoch: 1000
next table: 1933
cur table: 1946
epoch: 1000
next table: 1515
cur table: 1535
epoch: 1000
next table: 1491
cur table: 1515
epoch: 1000
next table: 1892
cur table: 1933
epoch: 1000
next table: 1512
cur table: 1491
epoch: 1000
next table: 1520
cur table: 1512
epoch: 1000
next table: 1917
cur table: 1892
epoch: 1000
next table: 1506
cur table: 1520
epoch: 1000
next table: 1498
cur table: 1506
epoch: 1000
next table: 1519
cur table: 1498
epoch: 1000
next table: 1971
cur table: 1917
epoch: 1000
next table: 1680
cur table: 1519
epoch: 1000
next table: 2794
cur table: 1680
epoch: 1000
next table: 2001
cur table: 1971
epoch: 1000
next table: 3864
cur table: 2794
epoch: 1000
next table: 1662
cur table: 3864
epoch: 1000
next table: 1937
cur table: 2001
epoch: 1000
next table: 1424
cur table: 1662
epoch: 1000
next table: 1460
cur table: 1424
epoch: 1000
next table: 1728
cur table: 1937
epoch: 1000
next table: 1462
cur table: 1460
epoch: 1000
next table: 1505
cur table: 1462
epoch: 1000
next table: 1746
cur table: 1728
epoch: 1000
next table: 1501
cur table: 1505
epoch: 1000
next table: 1501
cur table: 1501
epoch: 1000
next table: 1494
cur table: 1501
epoch: 1000
next table: 1873
cur table: 1746
epoch: 1000
next table: 1491
cur table: 1494
epoch: 1000
next table: 1533
cur table: 1491
epoch: 1000
next table: 1951
cur table: 1873
epoch: 1000
next table: 1552
cur table: 1533
epoch: 1000
next table: 1553
cur table: 1552
epoch: 1000
next table: 1980
cur table: 1951
epoch: 1000
next table: 1520
cur table: 1553
epoch: 1000
next table: 1503
cur table: 1520
epoch: 1000
next table: 1890
cur table: 1980
epoch: 1000
next table: 1497
cur table: 1503
epoch: 1000
next table: 1521
cur table: 1497
epoch: 1000
next table: 1511
cur table: 1521
epoch: 1000
next table: 1947
cur table: 1890
epoch: 1000
next table: 1519
cur table: 1511
epoch: 1000
next table: 1500
cur table: 1519
epoch: 1000
next table: 1951
cur table: 1947
epoch: 1000
next table: 1566
cur table: 1500
epoch: 1000
next table: 2067
cur table: 1566
epoch: 1000
next table: 4768
cur table: 2067
epoch: 1000
next table: 2116
cur table: 1951
epoch: 1000
next table: 1678
cur table: 4768
epoch: 1000
next table: 1427
cur table: 1678
epoch: 1000
next table: 1843
cur table: 2116
epoch: 1000
next table: 1454
cur table: 1427
epoch: 1000
next table: 1460
cur table: 1454
epoch: 1000
next table: 1732
cur table: 1843
epoch: 1000
next table: 1502
cur table: 1460
epoch: 1000
next table: 1506
cur table: 1502
epoch: 1000
next table: 1756
cur table: 1732
epoch: 1000
next table: 1505
cur table: 1506
epoch: 1000
next table: 1496
cur table: 1505
epoch: 1000
next table: 1845
cur table: 1756
epoch: 1000
next table: 1499
cur table: 1496
epoch: 1000
next table: 1537
cur table: 1499
epoch: 1000
next table: 1923
cur table: 1845
epoch: 1000
next table: 1557
cur table: 1537
epoch: 1000
next table: 1535
cur table: 1557
epoch: 1000
next table: 1883
cur table: 1923
epoch: 1000
next table: 1522
cur table: 1535
epoch: 1000
next table: 1502
cur table: 1522
epoch: 1000
next table: 1909
cur table: 1883
epoch: 1000
next table: 1496
cur table: 1502
epoch: 1000
next table: 1492
cur table: 1496
epoch: 1000
next table: 1523
cur table: 1492
epoch: 1000
next table: 1874
cur table: 1909
epoch: 1000
next table: 1518
cur table: 1523
epoch: 1000
next table: 1497
cur table: 1518
epoch: 1000
next table: 1869
cur table: 1874
epoch: 1000
next table: 1514
cur table: 1497
epoch: 1000
next table: 2561
cur table: 1514
epoch: 1000
next table: 2141
cur table: 1869
epoch: 1000
next table: 4084
cur table: 2561
epoch: 1000
next table: 1840
cur table: 4084
epoch: 1000
next table: 1435
cur table: 1840
epoch: 1000
next table: 1977
cur table: 2141
epoch: 1000
next table: 1451
cur table: 1435
epoch: 1000
next table: 1456
cur table: 1451
epoch: 1000
next table: 1750
cur table: 1977
epoch: 1000
next table: 1507
cur table: 1456
epoch: 1000
next table: 1524
cur table: 1507
epoch: 1000
next table: 1773
cur table: 1750
epoch: 1000
next table: 1510
cur table: 1524
epoch: 1000
next table: 1481
cur table: 1510
epoch: 1000
next table: 1809
cur table: 1773
epoch: 1000
next table: 1496
cur table: 1481
epoch: 1000
next table: 1536
cur table: 1496
epoch: 1000
next table: 1883
cur table: 1809
epoch: 1000
next table: 1550
cur table: 1536
epoch: 1000
next table: 1529
cur table: 1550
epoch: 1000
next table: 1982
cur table: 1883
epoch: 1000
next table: 1514
cur table: 1529
epoch: 1000
next table: 1539
cur table: 1514
epoch: 1000
next table: 1500
cur table: 1539
epoch: 1000
next table: 1955
cur table: 1982
epoch: 1000
next table: 1501
cur table: 1500
epoch: 1000
next table: 1521
cur table: 1501
epoch: 1000
next table: 1930
cur table: 1955
epoch: 1000
next table: 1502
cur table: 1521
epoch: 1000
next table: 1494
cur table: 1502
epoch: 1000
next table: 1894
cur table: 1930
epoch: 1000
next table: 1495
cur table: 1494
epoch: 1000
next table: 1937
cur table: 1495
epoch: 1000
next table: 4553
cur table: 1937
epoch: 1000
next table: 2052
cur table: 1894
epoch: 1000
next table: 2592
cur table: 4553
epoch: 1000
next table: 1455
cur table: 2592
epoch: 1000
next table: 1972
cur table: 2052
epoch: 1000
next table: 1448
cur table: 1455
epoch: 1000
next table: 1453
cur table: 1448
epoch: 1000
next table: 1739
cur table: 1972
epoch: 1000
next table: 1498
cur table: 1453
epoch: 1000
next table: 1488
cur table: 1498
epoch: 1000
next table: 1761
cur table: 1739
epoch: 1000
next table: 1499
cur table: 1488
epoch: 1000
next table: 1507
cur table: 1499
epoch: 1000
next table: 1825
cur table: 1761
epoch: 1000
next table: 1508
cur table: 1507
epoch: 1000
next table: 1504
cur table: 1508
epoch: 1000
next table: 1893
cur table: 1825
epoch: 1000
next table: 1543
cur table: 1504
epoch: 1000
next table: 1525
cur table: 1543
epoch: 1000
next table: 1934
cur table: 1893
epoch: 1000
next table: 1538
cur table: 1525
epoch: 1000
next table: 1530
cur table: 1538
epoch: 1000
next table: 1484
cur table: 1530
epoch: 1000
next table: 1880
cur table: 1934
epoch: 1000
next table: 1507
cur table: 1484
epoch: 1000
next table: 1530
cur table: 1507
epoch: 1000
next table: 1922
cur table: 1880
epoch: 1000
next table: 1489
cur table: 1530
epoch: 1000
next table: 1491
cur table: 1489
epoch: 1000
next table: 1921
cur table: 1922
epoch: 1000
next table: 1498
cur table: 1491
epoch: 1000
next table: 1766
cur table: 1498
epoch: 1000
next table: 3701
cur table: 1766
epoch: 1000
next table: 2101
cur table: 1921
epoch: 1000
next table: 2747
cur table: 3701
epoch: 1000
next table: 1560
cur table: 2747
epoch: 1000
next table: 1923
cur table: 2101
epoch: 1000
next table: 1418
cur table: 1560
epoch: 1000
next table: 1458
cur table: 1418
epoch: 1000
next table: 1688
cur table: 1923
epoch: 1000
next table: 1460
cur table: 1458
epoch: 1000
next table: 1500
cur table: 1460
epoch: 1000
next table: 1754
cur table: 1688
epoch: 1000
next table: 1530
cur table: 1500
epoch: 1000
next table: 1475
cur table: 1530
epoch: 1000
next table: 1751
cur table: 1754
epoch: 1000
next table: 1488
cur table: 1475
epoch: 1000
next table: 1496
cur table: 1488
epoch: 1000
next table: 1856
cur table: 1751
epoch: 1000
next table: 1538
cur table: 1496
epoch: 1000
next table: 1538
cur table: 1538
epoch: 1000
next table: 1904
cur table: 1856
epoch: 1000
next table: 1529
cur table: 1538
epoch: 1000
next table: 1528
cur table: 1529
epoch: 1000
next table: 1868
cur table: 1904
epoch: 1000
next table: 1497
cur table: 1528
epoch: 1000
next table: 1502
cur table: 1497
epoch: 1000
next table: 1507
cur table: 1502
epoch: 1000
next table: 1923
cur table: 1868
epoch: 1000
next table: 1509
cur table: 1507
epoch: 1000
next table: 1506
cur table: 1509
epoch: 1000
next table: 1920
cur table: 1923
epoch: 1000
next table: 1492
cur table: 1506
epoch: 1000
next table: 1629
cur table: 1492
epoch: 1000
next table: 2483
cur table: 1629
epoch: 1000
next table: 2233
cur table: 1920
epoch: 1000
next table: 3935
cur table: 2483
epoch: 1000
next table: 1662
cur table: 3935
epoch: 1000
next table: 1884
cur table: 2233
epoch: 1000
next table: 1420
cur table: 1662
epoch: 1000
next table: 1469
cur table: 1420
epoch: 1000
next table: 1661
cur table: 1884
epoch: 1000
next table: 1476
cur table: 1469
epoch: 1000
next table: 1730
cur table: 1661
epoch: 1000
next table: 1484
cur table: 1476
epoch: 1000
next table: 1524
cur table: 1484
epoch: 1000
next table: 1747
cur table: 1730
epoch: 1000
next table: 1496
cur table: 1524
epoch: 1000
next table: 1494
cur table: 1496
epoch: 1000
next table: 1815
cur table: 1747
epoch: 1000
next table: 1506
cur table: 1494
epoch: 1000
next table: 1523
cur table: 1506
epoch: 1000
next table: 1563
cur table: 1523
epoch: 1000
next table: 1969
cur table: 1815
epoch: 1000
next table: 1543
cur table: 1563
epoch: 1000
next table: 1522
cur table: 1543
epoch: 1000
next table: 1847
cur table: 1969
epoch: 1000
next table: 1507
cur table: 1522
epoch: 1000
next table: 1496
cur table: 1507
epoch: 1000
next table: 1927
cur table: 1847
epoch: 1000
next table: 1517
cur table: 1496
epoch: 1000
next table: 1521
cur table: 1517
epoch: 1000
next table: 1910
cur table: 1927
epoch: 1000
next table: 1493
cur table: 1521
epoch: 1000
next table: 1498
cur table: 1493
epoch: 1000
next table: 1530
cur table: 1498
epoch: 1000
next table: 2879
cur table: 1530
epoch: 1000
next table: 2387
cur table: 1910
epoch: 1000
next table: 4024
cur table: 2879
epoch: 1000
next table: 1834
cur table: 2387
epoch: 1000
next table: 1700
cur table: 4024
epoch: 1000
next table: 1412
cur table: 1700
epoch: 1000
next table: 1664
cur table: 1834
epoch: 1000
next table: 1450
cur table: 1412
epoch: 1000
next table: 1459
cur table: 1450
epoch: 1000
next table: 1705
cur table: 1664
epoch: 1000
next table: 1506
cur table: 1459
epoch: 1000
next table: 1499
cur table: 1506
epoch: 1000
next table: 1738
cur table: 1705
epoch: 1000
next table: 1509
cur table: 1499
epoch: 1000
next table: 1500
cur table: 1509
epoch: 1000
next table: 1784
cur table: 1738
epoch: 1000
next table: 1515
cur table: 1500
epoch: 1000
next table: 1531
cur table: 1515
epoch: 1000
next table: 1914
cur table: 1784
epoch: 1000
next table: 1534
cur table: 1531
epoch: 1000
next table: 1526
cur table: 1534
epoch: 1000
next table: 1844
cur table: 1914
epoch: 1000
next table: 1509
cur table: 1526
epoch: 1000
next table: 1522
cur table: 1509
epoch: 1000
next table: 1859
cur table: 1844
epoch: 1000
next table: 1486
cur table: 1522
epoch: 1000
next table: 1509
cur table: 1486
epoch: 1000
next table: 1521
cur table: 1509
epoch: 1000
next table: 1881
cur table: 1859
epoch: 1000
next table: 1512
cur table: 1521
epoch: 1000
next table: 1486
cur table: 1512
epoch: 1000
next table: 1928
cur table: 1881
epoch: 1000
next table: 1511
cur table: 1486
epoch: 1000
next table: 2065
cur table: 1511
epoch: 1000
next table: 4127
cur table: 2065
epoch: 1000
next table: 2115
cur table: 1928
epoch: 1000
next table: 2060
cur table: 4127
epoch: 1000
next table: 1960
cur table: 2060
epoch: 1000
next table: 2134
cur table: 2115
epoch: 1000
next table: 1436
cur table: 1960
epoch: 1000
next table: 1698
cur table: 2134
epoch: 1000
next table: 1459
cur table: 1436
epoch: 1000
next table: 1461
cur table: 1459
epoch: 1000
next table: 1702
cur table: 1698
epoch: 1000
next table: 1509
cur table: 1461
epoch: 1000
next table: 1519
cur table: 1509
epoch: 1000
next table: 1751
cur table: 1702
epoch: 1000
next table: 1500
cur table: 1519
epoch: 1000
next table: 1483
cur table: 1500
epoch: 1000
next table: 1767
cur table: 1751
epoch: 1000
next table: 1488
cur table: 1483
epoch: 1000
next table: 1514
cur table: 1488
epoch: 1000
next table: 1898
cur table: 1767
epoch: 1000
next table: 1546
cur table: 1514
epoch: 1000
next table: 1520
cur table: 1546
epoch: 1000
next table: 1525
cur table: 1520
epoch: 1000
next table: 1897
cur table: 1898
epoch: 1000
next table: 1515
cur table: 1525
epoch: 1000
next table: 1489
cur table: 1515
epoch: 1000
next table: 1887
cur table: 1897
epoch: 1000
next table: 1523
cur table: 1489
epoch: 1000
next table: 1513
cur table: 1523
epoch: 1000
next table: 1886
cur table: 1887
epoch: 1000
next table: 1511
cur table: 1513
epoch: 1000
next table: 1494
cur table: 1511
epoch: 1000
next table: 1898
cur table: 1886
epoch: 1000
next table: 1508
cur table: 1494
epoch: 1000
next table: 1694
cur table: 1508
epoch: 1000
next table: 3497
cur table: 1694
epoch: 1000
next table: 2188
cur table: 1898
epoch: 1000
next table: 3036
cur table: 3497
epoch: 1000
next table: 1996
cur table: 3036
epoch: 1000
next table: 2003
cur table: 2188
epoch: 1000
next table: 1790
cur table: 1996
epoch: 1000
next table: 1434
cur table: 1790
epoch: 1000
next table: 1768
cur table: 2003
epoch: 1000
next table: 1468
cur table: 1434
epoch: 1000
next table: 1473
cur table: 1468
epoch: 1000
next table: 1759
cur table: 1768
epoch: 1000
next table: 1516
cur table: 1473
epoch: 1000
next table: 1498
cur table: 1516
epoch: 1000
next table: 1715
cur table: 1759
epoch: 1000
next table: 1501
cur table: 1498
epoch: 1000
next table: 1483
cur table: 1501
epoch: 1000
next table: 1783
cur table: 1715
epoch: 1000
next table: 1493
cur table: 1483
epoch: 1000
next table: 1533
cur table: 1493
epoch: 1000
next table: 1854
cur table: 1783
epoch: 1000
next table: 1532
cur table: 1533
epoch: 1000
next table: 1516
cur table: 1532
epoch: 1000
next table: 1875
cur table: 1854
epoch: 1000
next table: 1525
cur table: 1516
epoch: 1000
next table: 1499
cur table: 1525
epoch: 1000
next table: 1848
cur table: 1875
epoch: 1000
next table: 1500
cur table: 1499
epoch: 1000
next table: 1495
cur table: 1500
epoch: 1000
next table: 1879
cur table: 1848
epoch: 1000
next table: 1514
cur table: 1495
epoch: 1000
next table: 1512
cur table: 1514
epoch: 1000
next table: 1920
cur table: 1879
epoch: 1000
next table: 1508
cur table: 1512
epoch: 1000
next table: 1519
cur table: 1508
epoch: 1000
next table: 2430
cur table: 1519
epoch: 1000
next table: 2156
cur table: 1920
epoch: 1000
next table: 4564
cur table: 2430
epoch: 1000
next table: 1707
cur table: 4564
epoch: 1000
next table: 1875
cur table: 2156
epoch: 1000
next table: 1429
cur table: 1707
epoch: 1000
next table: 1453
cur table: 1429
epoch: 1000
next table: 1721
cur table: 1875
epoch: 1000
next table: 1458
cur table: 1453
epoch: 1000
next table: 1506
cur table: 1458
epoch: 1000
next table: 1790
cur table: 1721
epoch: 1000
next table: 1532
cur table: 1506
epoch: 1000
next table: 1502
cur table: 1532
epoch: 1000
next table: 1767
cur table: 1790
epoch: 1000
next table: 1498
cur table: 1502
epoch: 1000
next table: 1511
cur table: 1498
epoch: 1000
next table: 1815
cur table: 1767
epoch: 1000
next table: 1533
cur table: 1511
epoch: 1000
next table: 1540
cur table: 1533
epoch: 1000
next table: 1859
cur table: 1815
epoch: 1000
next table: 1543
cur table: 1540
epoch: 1000
next table: 1512
cur table: 1543
epoch: 1000
next table: 1823
cur table: 1859
epoch: 1000
next table: 1515
cur table: 1512
epoch: 1000
next table: 1500
cur table: 1515
epoch: 1000
next table: 1856
cur table: 1823
epoch: 1000
next table: 1518
cur table: 1500
epoch: 1000
next table: 1500
cur table: 1518
epoch: 1000
next table: 1865
cur table: 1856
epoch: 1000
next table: 1513
cur table: 1500
epoch: 1000
next table: 1514
cur table: 1513
epoch: 1000
next table: 1917
cur table: 1865
epoch: 1000
next table: 1501
cur table: 1514
epoch: 1000
next table: 2319
cur table: 1501
epoch: 1000
next table: 4812
cur table: 2319
epoch: 1000
next table: 2005
cur table: 1917
epoch: 1000
next table: 1950
cur table: 4812
epoch: 1000
next table: 1410
cur table: 1950
epoch: 1000
next table: 1964
cur table: 2005
epoch: 1000
next table: 1432
cur table: 1410
epoch: 1000
next table: 1471
cur table: 1432
epoch: 1000
next table: 1772
cur table: 1964
epoch: 1000
next table: 1482
cur table: 1471
epoch: 1000
next table: 1496
cur table: 1482
epoch: 1000
next table: 1821
cur table: 1772
epoch: 1000
next table: 1519
cur table: 1496
epoch: 1000
next table: 1495
cur table: 1519
epoch: 1000
next table: 1860
cur table: 1821
epoch: 1000
next table: 1510
cur table: 1495
epoch: 1000
next table: 1508
cur table: 1510
epoch: 1000
next table: 1897
cur table: 1860
epoch: 1000
next table: 1532
cur table: 1508
epoch: 1000
next table: 1551
cur table: 1532
epoch: 1000
next table: 1823
cur table: 1897
epoch: 1000
next table: 1525
cur table: 1551
epoch: 1000
next table: 1522
cur table: 1525
epoch: 1000
next table: 1827
cur table: 1823
epoch: 1000
next table: 1500
cur table: 1522
epoch: 1000
next table: 1503
cur table: 1500
epoch: 1000
next table: 1526
cur table: 1503
epoch: 1000
next table: 1869
cur table: 1827
epoch: 1000
next table: 1511
cur table: 1526
epoch: 1000
next table: 1524
cur table: 1511
epoch: 1000
next table: 1918
cur table: 1869
epoch: 1000
next table: 1489
cur table: 1524
epoch: 1000
next table: 1836
cur table: 1489
epoch: 1000
next table: 2171
cur table: 1918
epoch: 1000
next table: 4183
cur table: 1836
epoch: 1000
next table: 2632
cur table: 4183
epoch: 1000
next table: 1527
cur table: 2632
epoch: 1000
next table: 1883
cur table: 2171
epoch: 1000
next table: 1451
cur table: 1527
epoch: 1000
next table: 1722
cur table: 1883
epoch: 1000
next table: 1473
cur table: 1451
epoch: 1000
next table: 1512
cur table: 1473
epoch: 1000
next table: 1791
cur table: 1722
epoch: 1000
next table: 1523
cur table: 1512
epoch: 1000
next table: 1514
cur table: 1523
epoch: 1000
next table: 1496
cur table: 1514
epoch: 1000
next table: 1807
cur table: 1791
epoch: 1000
next table: 1490
cur table: 1496
epoch: 1000
next table: 1520
cur table: 1490
epoch: 1000
next table: 1881
cur table: 1807
epoch: 1000
next table: 1542
cur table: 1520
epoch: 1000
next table: 1545
cur table: 1542
epoch: 1000
next table: 1898
cur table: 1881
epoch: 1000
next table: 1526
cur table: 1545
epoch: 1000
next table: 1514
cur table: 1526
epoch: 1000
next table: 1810
cur table: 1898
epoch: 1000
next table: 1483
cur table: 1514
epoch: 1000
next table: 1518
cur table: 1483
epoch: 1000
next table: 1848
cur table: 1810
epoch: 1000
next table: 1517
cur table: 1518
epoch: 1000
next table: 1518
cur table: 1517
epoch: 1000
next table: 1895
cur table: 1848
epoch: 1000
next table: 1490
cur table: 1518
epoch: 1000
next table: 1506
cur table: 1490
epoch: 1000
next table: 1722
cur table: 1506
epoch: 1000
next table: 2245
cur table: 1895
epoch: 1000
next table: 3277
cur table: 1722
epoch: 1000
next table: 3562
cur table: 3277
epoch: 1000
next table: 1839
cur table: 2245
epoch: 1000
next table: 1604
cur table: 3562
epoch: 1000
next table: 1450
cur table: 1604
epoch: 1000
next table: 1692
cur table: 1839
epoch: 1000
next table: 1461
cur table: 1450
epoch: 1000
next table: 1486
cur table: 1461
epoch: 1000
next table: 1786
cur table: 1692
epoch: 1000
next table: 1522
cur table: 1486
epoch: 1000
next table: 1502
cur table: 1522
epoch: 1000
next table: 1805
cur table: 1786
epoch: 1000
next table: 1499
cur table: 1502
epoch: 1000
next table: 1512
cur table: 1499
epoch: 1000
next table: 1838
cur table: 1805
epoch: 1000
next table: 1508
cur table: 1512
epoch: 1000
next table: 1530
cur table: 1508
epoch: 1000
next table: 1530
cur table: 1530
epoch: 1000
next table: 1982
cur table: 1838
epoch: 1000
next table: 1547
cur table: 1530
epoch: 1000
next table: 1527
cur table: 1547
epoch: 1000
next table: 1821
cur table: 1982
epoch: 1000
next table: 1509
cur table: 1527
epoch: 1000
next table: 1505
cur table: 1509
epoch: 1000
next table: 1871
cur table: 1821
epoch: 1000
next table: 1526
cur table: 1505
epoch: 1000
next table: 1520
cur table: 1526
epoch: 1000
next table: 1840
cur table: 1871
epoch: 1000
next table: 1504
cur table: 1520
epoch: 1000
next table: 1493
cur table: 1504
epoch: 1000
next table: 1882
cur table: 1840
epoch: 1000
next table: 1595
cur table: 1493
epoch: 1000
next table: 3186
cur table: 1595
epoch: 1000
next table: 2065
cur table: 1882
epoch: 1000
next table: 3926
cur table: 3186
epoch: 1000
next table: 1690
cur table: 3926
epoch: 1000
next table: 1431
cur table: 1690
epoch: 1000
next table: 1991
cur table: 2065
epoch: 1000
next table: 1455
cur table: 1431
epoch: 1000
next table: 1705
cur table: 1991
epoch: 1000
next table: 1471
cur table: 1455
epoch: 1000
next table: 1506
cur table: 1471
epoch: 1000
next table: 1746
cur table: 1705
epoch: 1000
next table: 1509
cur table: 1506
epoch: 1000
next table: 1502
cur table: 1509
epoch: 1000
next table: 1497
cur table: 1502
epoch: 1000
next table: 1866
cur table: 1746
epoch: 1000
next table: 1515
cur table: 1497
epoch: 1000
next table: 1514
cur table: 1515
epoch: 1000
next table: 1913
cur table: 1866
epoch: 1000
next table: 1540
cur table: 1514
epoch: 1000
next table: 1539
cur table: 1540
epoch: 1000
next table: 1856
cur table: 1913
epoch: 1000
next table: 1538
cur table: 1539
epoch: 1000
next table: 1510
cur table: 1538
epoch: 1000
next table: 1873
cur table: 1856
epoch: 1000
next table: 1504
cur table: 1510
epoch: 1000
next table: 1509
cur table: 1504
epoch: 1000
next table: 1860
cur table: 1873
epoch: 1000
next table: 1534
cur table: 1509
epoch: 1000
next table: 1514
cur table: 1534
epoch: 1000
next table: 1889
cur table: 1860
epoch: 1000
next table: 1505
cur table: 1514
epoch: 1000
next table: 1519
cur table: 1505
epoch: 1000
next table: 2498
cur table: 1519
epoch: 1000
next table: 2158
cur table: 1889
epoch: 1000
next table: 4378
cur table: 2498
epoch: 1000
next table: 1872
cur table: 4378
epoch: 1000
next table: 1882
cur table: 2158
epoch: 1000
next table: 1445
cur table: 1872
epoch: 1000
next table: 1450
cur table: 1445
epoch: 1000
next table: 1712
cur table: 1882
epoch: 1000
next table: 1477
cur table: 1450
epoch: 1000
next table: 1503
cur table: 1477
epoch: 1000
next table: 1747
cur table: 1712
epoch: 1000
next table: 1516
cur table: 1503
epoch: 1000
next table: 1506
cur table: 1516
epoch: 1000
next table: 1785
cur table: 1747
epoch: 1000
next table: 1501
cur table: 1506
epoch: 1000
next table: 1502
cur table: 1501
epoch: 1000
next table: 1824
cur table: 1785
epoch: 1000
next table: 1515
cur table: 1502
epoch: 1000
next table: 1542
cur table: 1515
epoch: 1000
next table: 1946
cur table: 1824
epoch: 1000
next table: 1551
cur table: 1542
epoch: 1000
next table: 1522
cur table: 1551
epoch: 1000
next table: 1828
cur table: 1946
epoch: 1000
next table: 1530
cur table: 1522
epoch: 1000
next table: 1493
cur table: 1530
epoch: 1000
next table: 1872
cur table: 1828
epoch: 1000
next table: 1521
cur table: 1493
epoch: 1000
next table: 1512
cur table: 1521
epoch: 1000
next table: 1865
cur table: 1872
epoch: 1000
next table: 1515
cur table: 1512
epoch: 1000
next table: 1490
cur table: 1515
epoch: 1000
next table: 1861
cur table: 1865
epoch: 1000
next table: 1507
cur table: 1490
epoch: 1000
next table: 1883
cur table: 1507
epoch: 1000
next table: 4279
cur table: 1883
Heartbeat CPU 0 instructions: 10000000 cycles: 3320797 heartbeat IPC: 3.01133 cumulative IPC: 3.01133 (Simulation time: 0 hr 9 min 10 sec) 
epoch: 1000
next table: 1977
cur table: 1861
epoch: 1000
next table: 2338
cur table: 4279
epoch: 1000
next table: 1493
cur table: 2338
epoch: 1000
next table: 1969
cur table: 1977
epoch: 1000
next table: 1432
cur table: 1493
epoch: 1000
next table: 1445
cur table: 1432
epoch: 1000
next table: 1684
cur table: 1969
epoch: 1000
next table: 1503
cur table: 1445
epoch: 1000
next table: 1525
cur table: 1503
epoch: 1000
next table: 1741
cur table: 1684
epoch: 1000
next table: 1513
cur table: 1525
epoch: 1000
next table: 1496
cur table: 1513
epoch: 1000
next table: 1847
cur table: 1741
epoch: 1000
next table: 1506
cur table: 1496
epoch: 1000
next table: 1512
cur table: 1506
epoch: 1000
next table: 1861
cur table: 1847
epoch: 1000
next table: 1542
cur table: 1512
epoch: 1000
next table: 1547
cur table: 1542
epoch: 1000
next table: 1865
cur table: 1861
epoch: 1000
next table: 1530
cur table: 1547
epoch: 1000
next table: 1533
cur table: 1530
epoch: 1000
next table: 1846
cur table: 1865
epoch: 1000
next table: 1503
cur table: 1533
epoch: 1000
next table: 1512
cur table: 1503
epoch: 1000
next table: 1872
cur table: 1846
epoch: 1000
next table: 1524
cur table: 1512
epoch: 1000
next table: 1510
cur table: 1524
epoch: 1000
next table: 1884
cur table: 1872
epoch: 1000
next table: 1504
cur table: 1510
epoch: 1000
next table: 1511
cur table: 1504
epoch: 1000
next table: 1894
cur table: 1511
epoch: 1000
next table: 2163
cur table: 1884
epoch: 1000
next table: 4545
cur table: 1894
epoch: 1000
next table: 2829
cur table: 4545
epoch: 1000
next table: 1859
cur table: 2163
epoch: 1000
next table: 1548
cur table: 2829
epoch: 1000
next table: 1436
cur table: 1548
epoch: 1000
next table: 1674
cur table: 1859
epoch: 1000
next table: 1459
cur table: 1436
epoch: 1000
next table: 1502
cur table: 1459
epoch: 1000
next table: 1725
cur table: 1674
epoch: 1000
next table: 1532
cur table: 1502
epoch: 1000
next table: 1514
cur table: 1532
epoch: 1000
next table: 1749
cur table: 1725
epoch: 1000
next table: 1490
cur table: 1514
epoch: 1000
next table: 1496
cur table: 1490
epoch: 1000
next table: 1802
cur table: 1749
epoch: 1000
next table: 1501
cur table: 1496
epoch: 1000
next table: 1555
cur table: 1501
epoch: 1000
next table: 1927
cur table: 1802
epoch: 1000
next table: 1558
cur table: 1555
epoch: 1000
next table: 1521
cur table: 1558
epoch: 1000
next table: 1829
cur table: 1927
epoch: 1000
next table: 1513
cur table: 1521
epoch: 1000
next table: 1504
cur table: 1513
epoch: 1000
next table: 1832
cur table: 1829
epoch: 1000
next table: 1532
cur table: 1504
epoch: 1000
next table: 1516
cur table: 1532
epoch: 1000
next table: 1873
cur table: 1832
epoch: 1000
next table: 1526
cur table: 1516
epoch: 1000
next table: 1500
cur table: 1526
epoch: 1000
next table: 1859
cur table: 1873
epoch: 1000
next table: 1489
cur table: 1500
epoch: 1000
next table: 1636
cur table: 1489
epoch: 1000
next table: 3251
cur table: 1636
epoch: 1000
next table: 2070
cur table: 1859
epoch: 1000
next table: 4167
cur table: 3251
epoch: 1000
next table: 1644
cur table: 4167
epoch: 1000
next table: 1830
cur table: 2070
epoch: 1000
next table: 1428
cur table: 1644
epoch: 1000
next table: 1696
cur table: 1830
epoch: 1000
next table: 1458
cur table: 1428
epoch: 1000
next table: 1462
cur table: 1458
epoch: 1000
next table: 1710
cur table: 1696
epoch: 1000
next table: 1526
cur table: 1462
epoch: 1000
next table: 1516
cur table: 1526
epoch: 1000
next table: 1744
cur table: 1710
epoch: 1000
next table: 1487
cur table: 1516
epoch: 1000
next table: 1480
cur table: 1487
epoch: 1000
next table: 1804
cur table: 1744
epoch: 1000
next table: 1496
cur table: 1480
epoch: 1000
next table: 1539
cur table: 1496
epoch: 1000
next table: 1882
cur table: 1804
epoch: 1000
next table: 1540
cur table: 1539
epoch: 1000
next table: 1512
cur table: 1540
epoch: 1000
next table: 1810
cur table: 1882
epoch: 1000
next table: 1535
cur table: 1512
epoch: 1000
next table: 1513
cur table: 1535
epoch: 1000
next table: 1502
cur table: 1513
epoch: 1000
next table: 1872
cur table: 1810
epoch: 1000
next table: 1518
cur table: 1502
epoch: 1000
next table: 1537
cur table: 1518
epoch: 1000
next table: 1863
cur table: 1872
epoch: 1000
next table: 1534
cur table: 1537
epoch: 1000
next table: 1484
cur table: 1534
epoch: 1000
next table: 1857
cur table: 1863
epoch: 1000
next table: 1514
cur table: 1484
epoch: 1000
next table: 2602
cur table: 1514
epoch: 1000
next table: 2104
cur table: 1857
epoch: 1000
next table: 4375
cur table: 2602
epoch: 1000
next table: 1840
cur table: 4375
epoch: 1000
next table: 2078
cur table: 2104
epoch: 1000
next table: 2210
cur table: 1840
epoch: 1000
next table: 1469
cur table: 2210
epoch: 1000
next table: 1685
cur table: 2078
epoch: 1000
next table: 1458
cur table: 1469
epoch: 1000
next table: 1464
cur table: 1458
epoch: 1000
next table: 1729
cur table: 1685
epoch: 1000
next table: 1505
cur table: 1464
epoch: 1000
next table: 1524
cur table: 1505
epoch: 1000
next table: 1698
cur table: 1729
epoch: 1000
next table: 1494
cur table: 1524
epoch: 1000
next table: 1494
cur table: 1494
epoch: 1000
next table: 1832
cur table: 1698
epoch: 1000
next table: 1495
cur table: 1494
epoch: 1000
next table: 1524
cur table: 1495
epoch: 1000
next table: 1856
cur table: 1832
epoch: 1000
next table: 1536
cur table: 1524
epoch: 1000
next table: 1541
cur table: 1536
epoch: 1000
next table: 1922
cur table: 1856
epoch: 1000
next table: 1524
cur table: 1541
epoch: 1000
next table: 1519
cur table: 1524
epoch: 1000
next table: 1858
cur table: 1922
epoch: 1000
next table: 1504
cur table: 1519
epoch: 1000
next table: 1528
cur table: 1504
epoch: 1000
next table: 1859
cur table: 1858
epoch: 1000
next table: 1519
cur table: 1528
epoch: 1000
next table: 1506
cur table: 1519
epoch: 1000
next table: 1864
cur table: 1859
epoch: 1000
next table: 1506
cur table: 1506
epoch: 1000
next table: 1492
cur table: 1506
epoch: 1000
next table: 1718
cur table: 1492
epoch: 1000
next table: 2238
cur table: 1864
epoch: 1000
next table: 3120
cur table: 1718
epoch: 1000
next table: 3943
cur table: 3120
epoch: 1000
next table: 1816
cur table: 2238
epoch: 1000
next table: 1644
cur table: 3943
epoch: 1000
next table: 1418
cur table: 1644
epoch: 1000
next table: 1669
cur table: 1816
epoch: 1000
next table: 1478
cur table: 1418
epoch: 1000
next table: 1487
cur table: 1478
epoch: 1000
next table: 1734
cur table: 1669
epoch: 1000
next table: 1513
cur table: 1487
epoch: 1000
next table: 1527
cur table: 1513
epoch: 1000
next table: 1701
cur table: 1734
epoch: 1000
next table: 1497
cur table: 1527
epoch: 1000
next table: 1490
cur table: 1497
epoch: 1000
next table: 1763
cur table: 1701
epoch: 1000
next table: 1509
cur table: 1490
epoch: 1000
next table: 1551
cur table: 1509
epoch: 1000
next table: 1861
cur table: 1763
epoch: 1000
next table: 1553
cur table: 1551
epoch: 1000
next table: 1545
cur table: 1553
epoch: 1000
next table: 1838
cur table: 1861
epoch: 1000
next table: 1516
cur table: 1545
epoch: 1000
next table: 1529
cur table: 1516
epoch: 1000
next table: 1833
cur table: 1838
epoch: 1000
next table: 1475
cur table: 1529
epoch: 1000
next table: 1523
cur table: 1475
epoch: 1000
next table: 1856
cur table: 1833
epoch: 1000
next table: 1534
cur table: 1523
epoch: 1000
next table: 1509
cur table: 1534
epoch: 1000
next table: 1867
cur table: 1856
epoch: 1000
next table: 1498
cur table: 1509
epoch: 1000
next table: 1607
cur table: 1498
epoch: 1000
next table: 2190
cur table: 1607
epoch: 1000
next table: 2229
cur table: 1867
epoch: 1000
next table: 5020
cur table: 2190
epoch: 1000
next table: 1719
cur table: 5020
epoch: 1000
next table: 1828
cur table: 2229
epoch: 1000
next table: 1424
cur table: 1719
epoch: 1000
next table: 1668
cur table: 1828
epoch: 1000
next table: 1459
cur table: 1424
epoch: 1000
next table: 1473
cur table: 1459
epoch: 1000
next table: 1697
cur table: 1668
epoch: 1000
next table: 1495
cur table: 1473
epoch: 1000
next table: 1522
cur table: 1495
epoch: 1000
next table: 1700
cur table: 1697
epoch: 1000
next table: 1509
cur table: 1522
epoch: 1000
next table: 1510
cur table: 1509
epoch: 1000
next table: 1797
cur table: 1700
epoch: 1000
next table: 1503
cur table: 1510
epoch: 1000
next table: 1546
cur table: 1503
epoch: 1000
next table: 1900
cur table: 1797
epoch: 1000
next table: 1541
cur table: 1546
epoch: 1000
next table: 1533
cur table: 1541
epoch: 1000
next table: 1822
cur table: 1900
epoch: 1000
next table: 1531
cur table: 1533
epoch: 1000
next table: 1502
cur table: 1531
epoch: 1000
next table: 1833
cur table: 1822
epoch: 1000
next table: 1514
cur table: 1502
epoch: 1000
next table: 1501
cur table: 1514
epoch: 1000
next table: 1865
cur table: 1833
epoch: 1000
next table: 1532
cur table: 1501
epoch: 1000
next table: 1505
cur table: 1532
epoch: 1000
next table: 1890
cur table: 1865
epoch: 1000
next table: 1501
cur table: 1505
epoch: 1000
next table: 1509
cur table: 1501
epoch: 1000
next table: 2286
cur table: 1509
epoch: 1000
next table: 2138
cur table: 1890
epoch: 1000
next table: 4430
cur table: 2286
epoch: 1000
next table: 2052
cur table: 4430
epoch: 1000
next table: 1834
cur table: 2138
epoch: 1000
next table: 1434
cur table: 2052
epoch: 1000
next table: 1426
cur table: 1434
epoch: 1000
next table: 1641
cur table: 1834
epoch: 1000
next table: 1464
cur table: 1426
epoch: 1000
next table: 1505
cur table: 1464
epoch: 1000
next table: 1731
cur table: 1641
epoch: 1000
next table: 1520
cur table: 1505
epoch: 1000
next table: 1520
cur table: 1520
epoch: 1000
next table: 1737
cur table: 1731
epoch: 1000
next table: 1493
cur table: 1520
epoch: 1000
next table: 1489
cur table: 1493
epoch: 1000
next table: 1789
cur table: 1737
epoch: 1000
next table: 1511
cur table: 1489
epoch: 1000
next table: 1525
cur table: 1511
epoch: 1000
next table: 1894
cur table: 1789
epoch: 1000
next table: 1557
cur table: 1525
epoch: 1000
next table: 1540
cur table: 1557
epoch: 1000
next table: 1835
cur table: 1894
epoch: 1000
next table: 1530
cur table: 1540
epoch: 1000
next table: 1511
cur table: 1530
epoch: 1000
next table: 1846
cur table: 1835
epoch: 1000
next table: 1520
cur table: 1511
epoch: 1000
next table: 1521
cur table: 1520
epoch: 1000
next table: 1875
cur table: 1846
epoch: 1000
next table: 1508
cur table: 1521
epoch: 1000
next table: 1500
cur table: 1508
epoch: 1000
next table: 1937
cur table: 1875
epoch: 1000
next table: 1507
cur table: 1500
epoch: 1000
next table: 1837
cur table: 1507
epoch: 1000
next table: 4236
cur table: 1837
epoch: 1000
next table: 2087
cur table: 1937
epoch: 1000
next table: 2874
cur table: 4236
epoch: 1000
next table: 1544
cur table: 2874
epoch: 1000
next table: 1921
cur table: 2087
epoch: 1000
next table: 1426
cur table: 1544
epoch: 1000
next table: 1461
cur table: 1426
epoch: 1000
next table: 1675
cur table: 1921
epoch: 1000
next table: 1522
cur table: 1461
epoch: 1000
next table: 1524
cur table: 1522
epoch: 1000
next table: 1729
cur table: 1675
epoch: 1000
next table: 1527
cur table: 1524
epoch: 1000
next table: 1760
cur table: 1729
epoch: 1000
next table: 1487
cur table: 1527
epoch: 1000
next table: 1505
cur table: 1487
epoch: 1000
next table: 1767
cur table: 1760
epoch: 1000
next table: 1490
cur table: 1505
epoch: 1000
next table: 1569
cur table: 1490
epoch: 1000
next table: 1546
cur table: 1569
epoch: 1000
next table: 1914
cur table: 1767
epoch: 1000
next table: 1546
cur table: 1546
epoch: 1000
next table: 1519
cur table: 1546
epoch: 1000
next table: 1835
cur table: 1914
epoch: 1000
next table: 1517
cur table: 1519
epoch: 1000
next table: 1504
cur table: 1517
epoch: 1000
next table: 1822
cur table: 1835
epoch: 1000
next table: 1522
cur table: 1504
epoch: 1000
next table: 1511
cur table: 1522
epoch: 1000
next table: 1881
cur table: 1822
epoch: 1000
next table: 1487
cur table: 1511
epoch: 1000
next table: 1519
cur table: 1487
epoch: 1000
next table: 1926
cur table: 1881
epoch: 1000
next table: 1693
cur table: 1519
epoch: 1000
next table: 3277
cur table: 1693
epoch: 1000
next table: 2015
cur table: 1926
epoch: 1000
next table: 3738
cur table: 3277
epoch: 1000
next table: 1728
cur table: 3738
epoch: 1000
next table: 1864
cur table: 2015
epoch: 1000
next table: 1405
cur table: 1728
epoch: 1000
next table: 1459
cur table: 1405
epoch: 1000
next table: 1689
cur table: 1864
epoch: 1000
next table: 1468
cur table: 1459
epoch: 1000
next table: 1498
cur table: 1468
epoch: 1000
next table: 1707
cur table: 1689
epoch: 1000
next table: 1520
cur table: 1498
epoch: 1000
next table: 1508
cur table: 1520
epoch: 1000
next table: 1724
cur table: 1707
epoch: 1000
next table: 1485
cur table: 1508
epoch: 1000
next table: 1507
cur table: 1485
epoch: 1000
next table: 1795
cur table: 1724
epoch: 1000
next table: 1523
cur table: 1507
epoch: 1000
next table: 1560
cur table: 1523
epoch: 1000
next table: 1944
cur table: 1795
epoch: 1000
next table: 1517
cur table: 1560
epoch: 1000
next table: 1538
cur table: 1517
epoch: 1000
next table: 1817
cur table: 1944
epoch: 1000
next table: 1500
cur table: 1538
epoch: 1000
next table: 1513
cur table: 1500
epoch: 1000
next table: 1842
cur table: 1817
epoch: 1000
next table: 1518
cur table: 1513
epoch: 1000
next table: 1532
cur table: 1518
epoch: 1000
next table: 1830
cur table: 1842
epoch: 1000
next table: 1504
cur table: 1532
epoch: 1000
next table: 1486
cur table: 1504
epoch: 1000
next table: 1886
cur table: 1830
epoch: 1000
next table: 1517
cur table: 1486
epoch: 1000
next table: 2152
cur table: 1517
epoch: 1000
next table: 4555
cur table: 2152
epoch: 1000
next table: 2029
cur table: 1886
epoch: 1000
next table: 2004
cur table: 4555
epoch: 1000
next table: 2177
cur table: 2004
epoch: 1000
next table: 2120
cur table: 2029
epoch: 1000
next table: 1601
cur table: 2177
epoch: 1000
next table: 1422
cur table: 1601
epoch: 1000
next table: 1660
cur table: 2120
epoch: 1000
next table: 1464
cur table: 1422
epoch: 1000
next table: 1479
cur table: 1464
epoch: 1000
next table: 1679
cur table: 1660
epoch: 1000
next table: 1504
cur table: 1479
epoch: 1000
next table: 1678
cur table: 1679
epoch: 1000
next table: 1513
cur table: 1504
epoch: 1000
next table: 1494
cur table: 1513
epoch: 1000
next table: 1784
cur table: 1678
epoch: 1000
next table: 1505
cur table: 1494
epoch: 1000
next table: 1481
cur table: 1505
epoch: 1000
next table: 1852
cur table: 1784
epoch: 1000
next table: 1534
cur table: 1481
epoch: 1000
next table: 1532
cur table: 1534
epoch: 1000
next table: 1532
cur table: 1532
epoch: 1000
next table: 1926
cur table: 1852
epoch: 1000
next table: 1522
cur table: 1532
epoch: 1000
next table: 1509
cur table: 1522
epoch: 1000
next table: 1828
cur table: 1926
epoch: 1000
next table: 1504
cur table: 1509
epoch: 1000
next table: 1503
cur table: 1504
epoch: 1000
next table: 1864
cur table: 1828
epoch: 1000
next table: 1522
cur table: 1503
epoch: 1000
next table: 1492
cur table: 1522
epoch: 1000
next table: 1914
cur table: 1864
epoch: 1000
next table: 1483
cur table: 1492
epoch: 1000
next table: 1541
cur table: 1483
epoch: 1000
next table: 2484
cur table: 1541
epoch: 1000
next table: 2222
cur table: 1914
epoch: 1000
next table: 4386
cur table: 2484
epoch: 1000
next table: 1717
cur table: 4386
epoch: 1000
next table: 2072
cur table: 2222
epoch: 1000
next table: 2201
cur table: 1717
epoch: 1000
next table: 1433
cur table: 2201
epoch: 1000
next table: 1657
cur table: 2072
epoch: 1000
next table: 1432
cur table: 1433
epoch: 1000
next table: 1477
cur table: 1432
epoch: 1000
next table: 1694
cur table: 1657
epoch: 1000
next table: 1498
cur table: 1477
epoch: 1000
next table: 1719
cur table: 1694
epoch: 1000
next table: 1521
cur table: 1498
epoch: 1000
next table: 1521
cur table: 1521
epoch: 1000
next table: 1734
cur table: 1719
epoch: 1000
next table: 1499
cur table: 1521
epoch: 1000
next table: 1493
cur table: 1499
epoch: 1000
next table: 1785
cur table: 1734
epoch: 1000
next table: 1502
cur table: 1493
epoch: 1000
next table: 1539
cur table: 1502
epoch: 1000
next table: 1983
cur table: 1785
epoch: 1000
next table: 1543
cur table: 1539
epoch: 1000
next table: 1533
cur table: 1543
epoch: 1000
next table: 1811
cur table: 1983
epoch: 1000
next table: 1525
cur table: 1533
epoch: 1000
next table: 1485
cur table: 1525
epoch: 1000
next table: 1866
cur table: 1811
epoch: 1000
next table: 1516
cur table: 1485
epoch: 1000
next table: 1531
cur table: 1516
epoch: 1000
next table: 1508
cur table: 1531
epoch: 1000
next table: 1877
cur table: 1866
epoch: 1000
next table: 1483
cur table: 1508
epoch: 1000
next table: 1497
cur table: 1483
epoch: 1000
next table: 1889
cur table: 1877
epoch: 1000
next table: 1716
cur table: 1497
epoch: 1000
next table: 3724
cur table: 1716
epoch: 1000
next table: 2007
cur table: 1889
epoch: 1000
next table: 3518
cur table: 3724
epoch: 1000
next table: 2000
cur table: 3518
epoch: 1000
next table: 1806
cur table: 2000
epoch: 1000
next table: 2161
cur table: 2007
epoch: 1000
next table: 1418
cur table: 1806
epoch: 1000
next table: 1643
cur table: 2161
epoch: 1000
next table: 1455
cur table: 1418
epoch: 1000
next table: 1479
cur table: 1455
epoch: 1000
next table: 1707
cur table: 1643
epoch: 1000
next table: 1518
cur table: 1479
epoch: 1000
next table: 1503
cur table: 1518
epoch: 1000
next table: 1713
cur table: 1707
epoch: 1000
next table: 1505
cur table: 1503
epoch: 1000
next table: 1490
cur table: 1505
epoch: 1000
next table: 1763
cur table: 1713
epoch: 1000
next table: 1500
cur table: 1490
epoch: 1000
next table: 1543
cur table: 1500
epoch: 1000
next table: 1879
cur table: 1763
epoch: 1000
next table: 1531
cur table: 1543
epoch: 1000
next table: 1523
cur table: 1531
epoch: 1000
next table: 1942
cur table: 1879
epoch: 1000
next table: 1536
cur table: 1523
epoch: 1000
next table: 1496
cur table: 1536
epoch: 1000
next table: 1856
cur table: 1942
epoch: 1000
next table: 1514
cur table: 1496
epoch: 1000
next table: 1504
cur table: 1514
epoch: 1000
next table: 1859
cur table: 1856
epoch: 1000
next table: 1529
cur table: 1504
epoch: 1000
next table: 1503
cur table: 1529
epoch: 1000
next table: 1914
cur table: 1859
epoch: 1000
next table: 1509
cur table: 1503
epoch: 1000
next table: 1508
cur table: 1509
epoch: 1000
next table: 2606
cur table: 1508
epoch: 1000
next table: 2165
cur table: 1914
epoch: 1000
next table: 4320
cur table: 2606
epoch: 1000
next table: 2163
cur table: 4320
epoch: 1000
next table: 2074
cur table: 2165
epoch: 1000
next table: 2214
cur table: 2163
epoch: 1000
next table: 1491
cur table: 2214
epoch: 1000
next table: 1679
cur table: 2074
epoch: 1000
next table: 1434
cur table: 1491
epoch: 1000
next table: 1463
cur table: 1434
epoch: 1000
next table: 1709
cur table: 1679
epoch: 1000
next table: 1502
cur table: 1463
epoch: 1000
next table: 1513
cur table: 1502
epoch: 1000
next table: 1709
cur table: 1709
epoch: 1000
next table: 1512
cur table: 1513
epoch: 1000
next table: 1487
cur table: 1512
epoch: 1000
next table: 1750
cur table: 1709
epoch: 1000
next table: 1488
cur table: 1487
epoch: 1000
next table: 1491
cur table: 1488
epoch: 1000
next table: 1796
cur table: 1750
epoch: 1000
next table: 1547
cur table: 1491
epoch: 1000
next table: 1523
cur table: 1547
epoch: 1000
next table: 1936
cur table: 1796
epoch: 1000
next table: 1508
cur table: 1523
epoch: 1000
next table: 1500
cur table: 1508
epoch: 1000
next table: 1802
cur table: 1936
epoch: 1000
next table: 1512
cur table: 1500
epoch: 1000
next table: 1509
cur table: 1512
epoch: 1000
next table: 1848
cur table: 1802
epoch: 1000
next table: 1519
cur table: 1509
epoch: 1000
next table: 1506
cur table: 1519
epoch: 1000
next table: 1864
cur table: 1848
epoch: 1000
next table: 1487
cur table: 1506
epoch: 1000
next table: 1496
cur table: 1487
epoch: 1000
next table: 1899
cur table: 1864
epoch: 1000
next table: 1638
cur table: 1496
epoch: 1000
next table: 2952
cur table: 1638
epoch: 1000
next table: 3841
cur table: 2952
epoch: 1000
next table: 2128
cur table: 1899
epoch: 1000
next table: 1708
cur table: 3841
epoch: 1000
next table: 2173
cur table: 1708
epoch: 1000
next table: 2052
cur table: 2128
epoch: 1000
next table: 1437
cur table: 2173
epoch: 1000
next table: 1461
cur table: 1437
epoch: 1000
next table: 1661
cur table: 2052
epoch: 1000
next table: 1473
cur table: 1461
epoch: 1000
next table: 1493
cur table: 1473
epoch: 1000
next table: 1724
cur table: 1661
epoch: 1000
next table: 1508
cur table: 1493
epoch: 1000
next table: 1764
cur table: 1724
epoch: 1000
next table: 1512
cur table: 1508
epoch: 1000
next table: 1502
cur table: 1512
epoch: 1000
next table: 1766
cur table: 1764
epoch: 1000
next table: 1487
cur table: 1502
epoch: 1000
next table: 1532
cur table: 1487
epoch: 1000
next table: 1538
cur table: 1532
epoch: 1000
next table: 1871
cur table: 1766
epoch: 1000
next table: 1531
cur table: 1538
epoch: 1000
next table: 1516
cur table: 1531
epoch: 1000
next table: 1869
cur table: 1871
epoch: 1000
next table: 1530
cur table: 1516
epoch: 1000
next table: 1502
cur table: 1530
epoch: 1000
next table: 1836
cur table: 1869
epoch: 1000
next table: 1510
cur table: 1502
epoch: 1000
next table: 1529
cur table: 1510
epoch: 1000
next table: 1855
cur table: 1836
epoch: 1000
next table: 1503
cur table: 1529
epoch: 1000
next table: 1502
cur table: 1503
epoch: 1000
next table: 1884
cur table: 1855
epoch: 1000
next table: 1490
cur table: 1502
epoch: 1000
next table: 1915
cur table: 1490
epoch: 1000
next table: 2142
cur table: 1884
epoch: 1000
next table: 4112
cur table: 1915
epoch: 1000
next table: 2594
cur table: 4112
epoch: 1000
next table: 2183
cur table: 2594
epoch: 1000
next table: 2107
cur table: 2142
epoch: 1000
next table: 1528
cur table: 2183
epoch: 1000
next table: 1632
cur table: 2107
epoch: 1000
next table: 1442
cur table: 1528
epoch: 1000
next table: 1465
cur table: 1442
epoch: 1000
next table: 1698
cur table: 1632
epoch: 1000
next table: 1495
cur table: 1465
epoch: 1000
next table: 1509
cur table: 1495
epoch: 1000
next table: 1733
cur table: 1698
epoch: 1000
next table: 1524
cur table: 1509
epoch: 1000
next table: 1488
cur table: 1524
epoch: 1000
next table: 1794
cur table: 1733
epoch: 1000
next table: 1498
cur table: 1488
epoch: 1000
next table: 1503
cur table: 1498
epoch: 1000
next table: 1820
cur table: 1794
epoch: 1000
next table: 1545
cur table: 1503
epoch: 1000
next table: 1526
cur table: 1545
epoch: 1000
next table: 1932
cur table: 1820
epoch: 1000
next table: 1535
cur table: 1526
epoch: 1000
next table: 1504
cur table: 1535
epoch: 1000
next table: 1847
cur table: 1932
epoch: 1000
next table: 1514
cur table: 1504
epoch: 1000
next table: 1512
cur table: 1514
epoch: 1000
next table: 1865
cur table: 1847
epoch: 1000
next table: 1524
cur table: 1512
epoch: 1000
next table: 1520
cur table: 1524
epoch: 1000
next table: 1883
cur table: 1865
epoch: 1000
next table: 1490
cur table: 1520
epoch: 1000
next table: 1486
cur table: 1490
epoch: 1000
next table: 1723
cur table: 1486
epoch: 1000
next table: 2241
cur table: 1883
epoch: 1000
next table: 3281
cur table: 1723
epoch: 1000
next table: 3906
cur table: 3281
epoch: 1000
next table: 1960
cur table: 2241
epoch: 1000
next table: 1704
cur table: 3906
epoch: 1000
next table: 2244
cur table: 1704
epoch: 1000
next table: 1781
cur table: 1960
epoch: 1000
next table: 1438
cur table: 2244
epoch: 1000
next table: 1436
cur table: 1438
epoch: 1000
next table: 1702
cur table: 1781
epoch: 1000
next table: 1474
cur table: 1436
epoch: 1000
next table: 1495
cur table: 1474
epoch: 1000
next table: 1713
cur table: 1702
epoch: 1000
next table: 1502
cur table: 1495
epoch: 1000
next table: 1503
cur table: 1502
epoch: 1000
next table: 1771
cur table: 1713
epoch: 1000
next table: 1505
cur table: 1503
epoch: 1000
next table: 1488
cur table: 1505
epoch: 1000
next table: 1764
cur table: 1771
epoch: 1000
next table: 1527
cur table: 1488
epoch: 1000
next table: 1531
cur table: 1527
epoch: 1000
next table: 1914
cur table: 1764
epoch: 1000
next table: 1536
cur table: 1531
epoch: 1000
next table: 1534
cur table: 1536
epoch: 1000
next table: 1859
cur table: 1914
epoch: 1000
next table: 1522
cur table: 1534
epoch: 1000
next table: 1501
cur table: 1522
epoch: 1000
next table: 1857
cur table: 1859
epoch: 1000
next table: 1497
cur table: 1501
epoch: 1000
next table: 1530
cur table: 1497
epoch: 1000
next table: 1867
cur table: 1857
epoch: 1000
next table: 1505
cur table: 1530
epoch: 1000
next table: 1503
cur table: 1505
epoch: 1000
next table: 1912
cur table: 1867
epoch: 1000
next table: 1505
cur table: 1503
epoch: 1000
next table: 1850
cur table: 1505
epoch: 1000
next table: 3744
cur table: 1850
epoch: 1000
next table: 2045
cur table: 1912
epoch: 1000
next table: 3468
cur table: 3744
epoch: 1000
next table: 2001
cur table: 3468
epoch: 1000
next table: 2176
cur table: 2045
epoch: 1000
next table: 1797
cur table: 2001
epoch: 1000
next table: 1428
cur table: 1797
epoch: 1000
next table: 1652
cur table: 2176
epoch: 1000
next table: 1471
cur table: 1428
epoch: 1000
next table: 1487
cur table: 1471
epoch: 1000
next table: 1746
cur table: 1652
epoch: 1000
next table: 1513
cur table: 1487
epoch: 1000
next table: 1513
cur table: 1513
epoch: 1000
next table: 1739
cur table: 1746
epoch: 1000
next table: 1501
cur table: 1513
epoch: 1000
next table: 1498
cur table: 1501
epoch: 1000
next table: 1760
cur table: 1739
epoch: 1000
next table: 1510
cur table: 1498
epoch: 1000
next table: 1522
cur table: 1510
epoch: 1000
next table: 1834
cur table: 1760
epoch: 1000
next table: 1544
cur table: 1522
epoch: 1000
next table: 1528
cur table: 1544
epoch: 1000
next table: 1882
cur table: 1834
epoch: 1000
next table: 1514
cur table: 1528
epoch: 1000
next table: 1500
cur table: 1514
epoch: 1000
next table: 1826
cur table: 1882
epoch: 1000
next table: 1501
cur table: 1500
epoch: 1000
next table: 1492
cur table: 1501
epoch: 1000
next table: 1829
cur table: 1826
epoch: 1000
next table: 1531
cur table: 1492
epoch: 1000
next table: 1505
cur table: 1531
epoch: 1000
next table: 1892
cur table: 1829
epoch: 1000
next table: 1490
cur table: 1505
epoch: 1000
next table: 1514
cur table: 1490
epoch: 1000
next table: 2990
cur table: 1514
epoch: 1000
next table: 2260
cur table: 1892
epoch: 1000
next table: 3954
cur table: 2990
epoch: 1000
next table: 2032
cur table: 3954
epoch: 1000
next table: 2060
cur table: 2260
epoch: 1000
next table: 2192
cur table: 2032
epoch: 1000
next table: 1514
cur table: 2192
epoch: 1000
next table: 1676
cur table: 2060
epoch: 1000
next table: 1434
cur table: 1514
epoch: 1000
next table: 1466
cur table: 1434
epoch: 1000
next table: 1668
cur table: 1676
epoch: 1000
next table: 1517
cur table: 1466
epoch: 1000
next table: 1715
cur table: 1668
epoch: 1000
next table: 1496
cur table: 1517
epoch: 1000
next table: 1529
cur table: 1496
epoch: 1000
next table: 1726
cur table: 1715
epoch: 1000
next table: 1490
cur table: 1529
epoch: 1000
next table: 1498
cur table: 1490
epoch: 1000
next table: 1767
cur table: 1726
epoch: 1000
next table: 1503
cur table: 1498
epoch: 1000
next table: 1549
cur table: 1503
epoch: 1000
next table: 1881
cur table: 1767
epoch: 1000
next table: 1532
cur table: 1549
epoch: 1000
next table: 1524
cur table: 1532
epoch: 1000
next table: 1899
cur table: 1881
epoch: 1000
next table: 1509
cur table: 1524
epoch: 1000
next table: 1502
cur table: 1509
epoch: 1000
next table: 1812
cur table: 1899
epoch: 1000
next table: 1511
cur table: 1502
epoch: 1000
next table: 1518
cur table: 1511
epoch: 1000
next table: 1898
cur table: 1812
epoch: 1000
next table: 1519
cur table: 1518
epoch: 1000
next table: 1490
cur table: 1519
epoch: 1000
next table: 1882
cur table: 1898
epoch: 1000
next table: 1503
cur table: 1490
epoch: 1000
next table: 1675
cur table: 1503
epoch: 1000
next table: 2572
cur table: 1675
epoch: 1000
next table: 2067
cur table: 1882
epoch: 1000
next table: 4521
cur table: 2572
epoch: 1000
next table: 1781
cur table: 4521
epoch: 1000
next table: 2174
cur table: 2067
epoch: 1000
next table: 2088
cur table: 1781
epoch: 1000
next table: 1428
cur table: 2088
epoch: 1000
next table: 1660
cur table: 2174
epoch: 1000
next table: 1464
cur table: 1428
epoch: 1000
next table: 1482
cur table: 1464
epoch: 1000
next table: 1730
cur table: 1660
epoch: 1000
next table: 1513
cur table: 1482
epoch: 1000
next table: 1533
cur table: 1513
epoch: 1000
next table: 1729
cur table: 1730
epoch: 1000
next table: 1497
cur table: 1533
epoch: 1000
next table: 1488
cur table: 1497
epoch: 1000
next table: 1735
cur table: 1729
epoch: 1000
next table: 1526
cur table: 1488
epoch: 1000
next table: 1517
cur table: 1526
epoch: 1000
next table: 1820
cur table: 1735
epoch: 1000
next table: 1538
cur table: 1517
epoch: 1000
next table: 1522
cur table: 1538
epoch: 1000
next table: 1895
cur table: 1820
epoch: 1000
next table: 1510
cur table: 1522
epoch: 1000
next table: 1502
cur table: 1510
epoch: 1000
next table: 1832
cur table: 1895
epoch: 1000
next table: 1507
cur table: 1502
epoch: 1000
next table: 1494
cur table: 1507
epoch: 1000
next table: 1842
cur table: 1832
epoch: 1000
next table: 1520
cur table: 1494
epoch: 1000
next table: 1507
cur table: 1520
epoch: 1000
next table: 1924
cur table: 1842
epoch: 1000
next table: 1487
cur table: 1507
epoch: 1000
next table: 1497
cur table: 1487
epoch: 1000
next table: 1920
cur table: 1497
epoch: 1000
next table: 2254
cur table: 1924
epoch: 1000
next table: 4114
cur table: 1920
epoch: 1000
next table: 2579
cur table: 4114
epoch: 1000
next table: 2153
cur table: 2254
epoch: 1000
next table: 2153
cur table: 2579
epoch: 1000
next table: 1606
cur table: 2153
epoch: 1000
next table: 1607
cur table: 2153
epoch: 1000
next table: 1415
cur table: 1606
epoch: 1000
next table: 1450
cur table: 1415
epoch: 1000
next table: 1678
cur table: 1607
epoch: 1000
next table: 1479
cur table: 1450
epoch: 1000
next table: 1514
cur table: 1479
epoch: 1000
next table: 1721
cur table: 1678
epoch: 1000
next table: 1505
cur table: 1514
epoch: 1000
next table: 1503
cur table: 1505
epoch: 1000
next table: 1753
cur table: 1721
epoch: 1000
next table: 1504
cur table: 1503
epoch: 1000
next table: 1507
cur table: 1504
epoch: 1000
next table: 1771
cur table: 1753
epoch: 1000
next table: 1547
cur table: 1507
epoch: 1000
next table: 1553
cur table: 1547
epoch: 1000
next table: 1879
cur table: 1771
epoch: 1000
next table: 1535
cur table: 1553
epoch: 1000
next table: 1510
cur table: 1535
epoch: 1000
next table: 1847
cur table: 1879
epoch: 1000
next table: 1518
cur table: 1510
epoch: 1000
next table: 1497
cur table: 1518
epoch: 1000
next table: 1854
cur table: 1847
epoch: 1000
next table: 1514
cur table: 1497
Heartbeat CPU 0 instructions: 20000000 cycles: 6646622 heartbeat IPC: 3.00677 cumulative IPC: 3.00905 (Simulation time: 0 hr 16 min 58 sec) 
epoch: 1000
next table: 1526
cur table: 1514
epoch: 1000
next table: 1857
cur table: 1854
epoch: 1000
next table: 1497
cur table: 1526
epoch: 1000
next table: 1495
cur table: 1497
epoch: 1000
next table: 1871
cur table: 1857
epoch: 1000
next table: 1559
cur table: 1495
epoch: 1000
next table: 2765
cur table: 1559
epoch: 1000
next table: 2089
cur table: 1871
epoch: 1000
next table: 4235
cur table: 2765
epoch: 1000
next table: 1724
cur table: 4235
epoch: 1000
next table: 2187
cur table: 1724
epoch: 1000
next table: 2139
cur table: 2089
epoch: 1000
next table: 1428
cur table: 2187
epoch: 1000
next table: 1668
cur table: 2139
epoch: 1000
next table: 1442
cur table: 1428
epoch: 1000
next table: 1468
cur table: 1442
epoch: 1000
next table: 1719
cur table: 1668
epoch: 1000
next table: 1502
cur table: 1468
epoch: 1000
next table: 1519
cur table: 1502
epoch: 1000
next table: 1717
cur table: 1719
epoch: 1000
next table: 1514
cur table: 1519
epoch: 1000
next table: 1493
cur table: 1514
epoch: 1000
next table: 1769
cur table: 1717
epoch: 1000
next table: 1509
cur table: 1493
epoch: 1000
next table: 1520
cur table: 1509
epoch: 1000
next table: 1827
cur table: 1769
epoch: 1000
next table: 1548
cur table: 1520
epoch: 1000
next table: 1530
cur table: 1548
epoch: 1000
next table: 1892
cur table: 1827
epoch: 1000
next table: 1528
cur table: 1530
epoch: 1000
next table: 1529
cur table: 1528
epoch: 1000
next table: 1840
cur table: 1892
epoch: 1000
next table: 1507
cur table: 1529
epoch: 1000
next table: 1515
cur table: 1507
epoch: 1000
next table: 1847
cur table: 1840
epoch: 1000
next table: 1513
cur table: 1515
epoch: 1000
next table: 1510
cur table: 1513
epoch: 1000
next table: 1905
cur table: 1847
epoch: 1000
next table: 1496
cur table: 1510
epoch: 1000
next table: 1484
cur table: 1496
epoch: 1000
next table: 1728
cur table: 1484
epoch: 1000
next table: 2271
cur table: 1905
epoch: 1000
next table: 3567
cur table: 1728
epoch: 1000
next table: 3634
cur table: 3567
epoch: 1000
next table: 2117
cur table: 2271
epoch: 1000
next table: 1968
cur table: 3634
epoch: 1000
next table: 1852
cur table: 1968
epoch: 1000
next table: 1598
cur table: 2117
epoch: 1000
next table: 1419
cur table: 1852
epoch: 1000
next table: 1462
cur table: 1419
epoch: 1000
next table: 1676
cur table: 1598
epoch: 1000
next table: 1471
cur table: 1462
epoch: 1000
next table: 1498
cur table: 1471
epoch: 1000
next table: 1726
cur table: 1676
epoch: 1000
next table: 1522
cur table: 1498
epoch: 1000
next table: 1497
cur table: 1522
epoch: 1000
next table: 1715
cur table: 1726
epoch: 1000
next table: 1472
cur table: 1497
epoch: 1000
next table: 1510
cur table: 1472
epoch: 1000
next table: 1779
cur table: 1715
epoch: 1000
next table: 1535
cur table: 1510
epoch: 1000
next table: 1532
cur table: 1535
epoch: 1000
next table: 1909
cur table: 1779
epoch: 1000
next table: 1517
cur table: 1532
epoch: 1000
next table: 1526
cur table: 1517
epoch: 1000
next table: 1835
cur table: 1909
epoch: 1000
next table: 1507
cur table: 1526
epoch: 1000
next table: 1504
cur table: 1507
epoch: 1000
next table: 1859
cur table: 1835
epoch: 1000
next table: 1501
cur table: 1504
epoch: 1000
next table: 1536
cur table: 1501
epoch: 1000
next table: 1872
cur table: 1859
epoch: 1000
next table: 1502
cur table: 1536
epoch: 1000
next table: 1502
cur table: 1502
epoch: 1000
next table: 1857
cur table: 1872
epoch: 1000
next table: 1501
cur table: 1502
epoch: 1000
next table: 2022
cur table: 1501
epoch: 1000
next table: 2092
cur table: 1857
epoch: 1000
next table: 4859
cur table: 2022
epoch: 1000
next table: 2302
cur table: 4859
epoch: 1000
next table: 2204
cur table: 2302
epoch: 1000
next table: 2141
cur table: 2092
epoch: 1000
next table: 1472
cur table: 2204
epoch: 1000
next table: 1432
cur table: 1472
epoch: 1000
next table: 1651
cur table: 2141
epoch: 1000
next table: 1456
cur table: 1432
epoch: 1000
next table: 1730
cur table: 1651
epoch: 1000
next table: 1502
cur table: 1456
epoch: 1000
next table: 1520
cur table: 1502
epoch: 1000
next table: 1697
cur table: 1730
epoch: 1000
next table: 1507
cur table: 1520
epoch: 1000
next table: 1518
cur table: 1507
epoch: 1000
next table: 1762
cur table: 1697
epoch: 1000
next table: 1490
cur table: 1518
epoch: 1000
next table: 1493
cur table: 1490
epoch: 1000
next table: 1810
cur table: 1762
epoch: 1000
next table: 1542
cur table: 1493
epoch: 1000
next table: 1530
cur table: 1542
epoch: 1000
next table: 1870
cur table: 1810
epoch: 1000
next table: 1515
cur table: 1530
epoch: 1000
next table: 1515
cur table: 1515
epoch: 1000
next table: 1838
cur table: 1870
epoch: 1000
next table: 1518
cur table: 1515
epoch: 1000
next table: 1517
cur table: 1518
epoch: 1000
next table: 1846
cur table: 1838
epoch: 1000
next table: 1521
cur table: 1517
epoch: 1000
next table: 1521
cur table: 1521
epoch: 1000
next table: 1882
cur table: 1846
epoch: 1000
next table: 1486
cur table: 1521
epoch: 1000
next table: 1510
cur table: 1486
epoch: 1000
next table: 1715
cur table: 1510
epoch: 1000
next table: 2259
cur table: 1882
epoch: 1000
next table: 2868
cur table: 1715
epoch: 1000
next table: 4493
cur table: 2868
epoch: 1000
next table: 1793
cur table: 2259
epoch: 1000
next table: 1639
cur table: 4493
epoch: 1000
next table: 1419
cur table: 1639
epoch: 1000
next table: 1635
cur table: 1793
epoch: 1000
next table: 1456
cur table: 1419
epoch: 1000
next table: 1487
cur table: 1456
epoch: 1000
next table: 1728
cur table: 1635
epoch: 1000
next table: 1490
cur table: 1487
epoch: 1000
next table: 1703
cur table: 1728
epoch: 1000
next table: 1533
cur table: 1490
epoch: 1000
next table: 1510
cur table: 1533
epoch: 1000
next table: 1724
cur table: 1703
epoch: 1000
next table: 1488
cur table: 1510
epoch: 1000
next table: 1523
cur table: 1488
epoch: 1000
next table: 1785
cur table: 1724
epoch: 1000
next table: 1551
cur table: 1523
epoch: 1000
next table: 1546
cur table: 1551
epoch: 1000
next table: 1837
cur table: 1785
epoch: 1000
next table: 1520
cur table: 1546
epoch: 1000
next table: 1528
cur table: 1520
epoch: 1000
next table: 1834
cur table: 1837
epoch: 1000
next table: 1515
cur table: 1528
epoch: 1000
next table: 1502
cur table: 1515
epoch: 1000
next table: 1820
cur table: 1834
epoch: 1000
next table: 1503
cur table: 1502
epoch: 1000
next table: 1515
cur table: 1503
epoch: 1000
next table: 1881
cur table: 1820
epoch: 1000
next table: 1512
cur table: 1515
epoch: 1000
next table: 1504
cur table: 1512
epoch: 1000
next table: 1898
cur table: 1881
epoch: 1000
next table: 1524
cur table: 1504
epoch: 1000
next table: 2979
cur table: 1524
epoch: 1000
next table: 4134
cur table: 2979
epoch: 1000
next table: 2182
cur table: 1898
epoch: 1000
next table: 1835
cur table: 4134
epoch: 1000
next table: 1435
cur table: 1835
epoch: 1000
next table: 1657
cur table: 2182
epoch: 1000
next table: 1439
cur table: 1435
epoch: 1000
next table: 1469
cur table: 1439
epoch: 1000
next table: 1704
cur table: 1657
epoch: 1000
next table: 1515
cur table: 1469
epoch: 1000
next table: 1526
cur table: 1515
epoch: 1000
next table: 1726
cur table: 1704
epoch: 1000
next table: 1503
cur table: 1526
epoch: 1000
next table: 1744
cur table: 1726
epoch: 1000
next table: 1493
cur table: 1503
epoch: 1000
next table: 1492
cur table: 1493
epoch: 1000
next table: 1777
cur table: 1744
epoch: 1000
next table: 1524
cur table: 1492
epoch: 1000
next table: 1528
cur table: 1524
epoch: 1000
next table: 1834
cur table: 1777
epoch: 1000
next table: 1551
cur table: 1528
epoch: 1000
next table: 1519
cur table: 1551
epoch: 1000
next table: 1832
cur table: 1834
epoch: 1000
next table: 1528
cur table: 1519
epoch: 1000
next table: 1501
cur table: 1528
epoch: 1000
next table: 1829
cur table: 1832
epoch: 1000
next table: 1506
cur table: 1501
epoch: 1000
next table: 1520
cur table: 1506
epoch: 1000
next table: 1865
cur table: 1829
epoch: 1000
next table: 1510
cur table: 1520
epoch: 1000
next table: 1489
cur table: 1510
epoch: 1000
next table: 1488
cur table: 1489
epoch: 1000
next table: 1891
cur table: 1865
epoch: 1000
next table: 1866
cur table: 1488
epoch: 1000
next table: 4265
cur table: 1866
epoch: 1000
next table: 2216
cur table: 1891
epoch: 1000
next table: 2354
cur table: 4265
epoch: 1000
next table: 2148
cur table: 2354
epoch: 1000
next table: 1561
cur table: 2148
epoch: 1000
next table: 1982
cur table: 2216
epoch: 1000
next table: 1419
cur table: 1561
epoch: 1000
next table: 1656
cur table: 1982
epoch: 1000
next table: 1441
cur table: 1419
epoch: 1000
next table: 1505
cur table: 1441
epoch: 1000
next table: 1713
cur table: 1656
epoch: 1000
next table: 1524
cur table: 1505
epoch: 1000
next table: 1511
cur table: 1524
epoch: 1000
next table: 1714
cur table: 1713
epoch: 1000
next table: 1479
cur table: 1511
epoch: 1000
next table: 1510
cur table: 1479
epoch: 1000
next table: 1780
cur table: 1714
epoch: 1000
next table: 1510
cur table: 1510
epoch: 1000
next table: 1539
cur table: 1510
epoch: 1000
next table: 1842
cur table: 1780
epoch: 1000
next table: 1538
cur table: 1539
epoch: 1000
next table: 1542
cur table: 1538
epoch: 1000
next table: 1855
cur table: 1842
epoch: 1000
next table: 1508
cur table: 1542
epoch: 1000
next table: 1496
cur table: 1508
epoch: 1000
next table: 1836
cur table: 1855
epoch: 1000
next table: 1502
cur table: 1496
epoch: 1000
next table: 1503
cur table: 1502
epoch: 1000
next table: 1843
cur table: 1836
epoch: 1000
next table: 1535
cur table: 1503
epoch: 1000
next table: 1493
cur table: 1535
epoch: 1000
next table: 1888
cur table: 1843
epoch: 1000
next table: 1498
cur table: 1493
epoch: 1000
next table: 1629
cur table: 1498
epoch: 1000
next table: 2729
cur table: 1629
epoch: 1000
next table: 2127
cur table: 1888
epoch: 1000
next table: 4276
cur table: 2729
epoch: 1000
next table: 1693
cur table: 4276
epoch: 1000
next table: 1844
cur table: 2127
epoch: 1000
next table: 1427
cur table: 1693
epoch: 1000
next table: 1455
cur table: 1427
epoch: 1000
next table: 1657
cur table: 1844
epoch: 1000
next table: 1478
cur table: 1455
epoch: 1000
next table: 1695
cur table: 1657
epoch: 1000
next table: 1524
cur table: 1478
epoch: 1000
next table: 1527
cur table: 1524
epoch: 1000
next table: 1704
cur table: 1695
epoch: 1000
next table: 1487
cur table: 1527
epoch: 1000
next table: 1482
cur table: 1487
epoch: 1000
next table: 1745
cur table: 1704
epoch: 1000
next table: 1496
cur table: 1482
epoch: 1000
next table: 1553
cur table: 1496
epoch: 1000
next table: 1815
cur table: 1745
epoch: 1000
next table: 1551
cur table: 1553
epoch: 1000
next table: 1533
cur table: 1551
epoch: 1000
next table: 1855
cur table: 1815
epoch: 1000
next table: 1534
cur table: 1533
epoch: 1000
next table: 1507
cur table: 1534
epoch: 1000
next table: 1781
cur table: 1855
epoch: 1000
next table: 1494
cur table: 1507
epoch: 1000
next table: 1506
cur table: 1494
epoch: 1000
next table: 1843
cur table: 1781
epoch: 1000
next table: 1530
cur table: 1506
epoch: 1000
next table: 1500
cur table: 1530
epoch: 1000
next table: 1904
cur table: 1843
epoch: 1000
next table: 1514
cur table: 1500
epoch: 1000
next table: 1519
cur table: 1514
epoch: 1000
next table: 2323
cur table: 1519
epoch: 1000
next table: 2138
cur table: 1904
epoch: 1000
next table: 4659
cur table: 2323
epoch: 1000
next table: 1959
cur table: 4659
epoch: 1000
next table: 1805
cur table: 2138
epoch: 1000
next table: 1442
cur table: 1959
epoch: 1000
next table: 1433
cur table: 1442
epoch: 1000
next table: 1628
cur table: 1805
epoch: 1000
next table: 1474
cur table: 1433
epoch: 1000
next table: 1693
cur table: 1628
epoch: 1000
next table: 1524
cur table: 1474
epoch: 1000
next table: 1537
cur table: 1524
epoch: 1000
next table: 1698
cur table: 1693
epoch: 1000
next table: 1497
cur table: 1537
epoch: 1000
next table: 1479
cur table: 1497
epoch: 1000
next table: 1751
cur table: 1698
epoch: 1000
next table: 1489
cur table: 1479
epoch: 1000
next table: 1523
cur table: 1489
epoch: 1000
next table: 1781
cur table: 1751
epoch: 1000
next table: 1539
cur table: 1523
epoch: 1000
next table: 1540
cur table: 1539
epoch: 1000
next table: 1815
cur table: 1781
epoch: 1000
next table: 1535
cur table: 1540
epoch: 1000
next table: 1529
cur table: 1535
epoch: 1000
next table: 1834
cur table: 1815
epoch: 1000
next table: 1514
cur table: 1529
epoch: 1000
next table: 1495
cur table: 1514
epoch: 1000
next table: 1827
cur table: 1834
epoch: 1000
next table: 1516
cur table: 1495
epoch: 1000
next table: 1520
cur table: 1516
epoch: 1000
next table: 1878
cur table: 1827
epoch: 1000
next table: 1497
cur table: 1520
epoch: 1000
next table: 1493
cur table: 1497
epoch: 1000
next table: 1877
cur table: 1493
epoch: 1000
next table: 2241
cur table: 1878
epoch: 1000
next table: 4457
cur table: 1877
epoch: 1000
next table: 2465
cur table: 4457
epoch: 1000
next table: 1826
cur table: 2241
epoch: 1000
next table: 1514
cur table: 2465
epoch: 1000
next table: 1624
cur table: 1826
epoch: 1000
next table: 1435
cur table: 1514
epoch: 1000
next table: 1462
cur table: 1435
epoch: 1000
next table: 1700
cur table: 1624
epoch: 1000
next table: 1515
cur table: 1462
epoch: 1000
next table: 1514
cur table: 1515
epoch: 1000
next table: 1716
cur table: 1700
epoch: 1000
next table: 1520
cur table: 1514
epoch: 1000
next table: 1502
cur table: 1520
epoch: 1000
next table: 1758
cur table: 1716
epoch: 1000
next table: 1509
cur table: 1502
epoch: 1000
next table: 1523
cur table: 1509
epoch: 1000
next table: 1792
cur table: 1758
epoch: 1000
next table: 1552
cur table: 1523
epoch: 1000
next table: 1556
cur table: 1552
epoch: 1000
next table: 1828
cur table: 1792
epoch: 1000
next table: 1537
cur table: 1556
epoch: 1000
next table: 1515
cur table: 1537
epoch: 1000
next table: 1827
cur table: 1828
epoch: 1000
next table: 1485
cur table: 1515
epoch: 1000
next table: 1521
cur table: 1485
epoch: 1000
next table: 1811
cur table: 1827
epoch: 1000
next table: 1537
cur table: 1521
epoch: 1000
next table: 1502
cur table: 1537
epoch: 1000
next table: 1874
cur table: 1811
epoch: 1000
next table: 1500
cur table: 1502
epoch: 1000
next table: 1503
cur table: 1500
epoch: 1000
next table: 1808
cur table: 1503
epoch: 1000
next table: 2200
cur table: 1874
epoch: 1000
next table: 3516
cur table: 1808
epoch: 1000
next table: 3217
cur table: 3516
epoch: 1000
next table: 1798
cur table: 2200
epoch: 1000
next table: 1584
cur table: 3217
epoch: 1000
next table: 1637
cur table: 1798
epoch: 1000
next table: 1413
cur table: 1584
epoch: 1000
next table: 1461
cur table: 1413
epoch: 1000
next table: 1673
cur table: 1637
epoch: 1000
next table: 1507
cur table: 1461
epoch: 1000
next table: 1511
cur table: 1507
epoch: 1000
next table: 1727
cur table: 1673
epoch: 1000
next table: 1531
cur table: 1511
epoch: 1000
next table: 1491
cur table: 1531
epoch: 1000
next table: 1733
cur table: 1727
epoch: 1000
next table: 1511
cur table: 1491
epoch: 1000
next table: 1510
cur table: 1511
epoch: 1000
next table: 1788
cur table: 1733
epoch: 1000
next table: 1539
cur table: 1510
epoch: 1000
next table: 1554
cur table: 1539
epoch: 1000
next table: 1849
cur table: 1788
epoch: 1000
next table: 1550
cur table: 1554
epoch: 1000
next table: 1515
cur table: 1550
epoch: 1000
next table: 1813
cur table: 1849
epoch: 1000
next table: 1511
cur table: 1515
epoch: 1000
next table: 1513
cur table: 1511
epoch: 1000
next table: 1846
cur table: 1813
epoch: 1000
next table: 1522
cur table: 1513
epoch: 1000
next table: 1511
cur table: 1522
epoch: 1000
next table: 1858
cur table: 1846
epoch: 1000
next table: 1496
cur table: 1511
epoch: 1000
next table: 1494
cur table: 1496
epoch: 1000
next table: 1889
cur table: 1858
epoch: 1000
next table: 1597
cur table: 1494
epoch: 1000
next table: 3047
cur table: 1597
epoch: 1000
next table: 1915
cur table: 1889
epoch: 1000
next table: 4088
cur table: 3047
epoch: 1000
next table: 1704
cur table: 4088
epoch: 1000
next table: 2137
cur table: 1704
epoch: 1000
next table: 2176
cur table: 1915
epoch: 1000
next table: 1419
cur table: 2137
epoch: 1000
next table: 1640
cur table: 2176
epoch: 1000
next table: 1463
cur table: 1419
epoch: 1000
next table: 1477
cur table: 1463
epoch: 1000
next table: 1687
cur table: 1640
epoch: 1000
next table: 1510
cur table: 1477
epoch: 1000
next table: 1530
cur table: 1510
epoch: 1000
next table: 1754
cur table: 1687
epoch: 1000
next table: 1513
cur table: 1530
epoch: 1000
next table: 1490
cur table: 1513
epoch: 1000
next table: 1742
cur table: 1754
epoch: 1000
next table: 1519
cur table: 1490
epoch: 1000
next table: 1517
cur table: 1519
epoch: 1000
next table: 1862
cur table: 1742
epoch: 1000
next table: 1517
cur table: 1517
epoch: 1000
next table: 1534
cur table: 1517
epoch: 1000
next table: 1877
cur table: 1862
epoch: 1000
next table: 1517
cur table: 1534
epoch: 1000
next table: 1499
cur table: 1517
epoch: 1000
next table: 1800
cur table: 1877
epoch: 1000
next table: 1514
cur table: 1499
epoch: 1000
next table: 1502
cur table: 1514
epoch: 1000
next table: 1842
cur table: 1800
epoch: 1000
next table: 1524
cur table: 1502
epoch: 1000
next table: 1513
cur table: 1524
epoch: 1000
next table: 1888
cur table: 1842
epoch: 1000
next table: 1493
cur table: 1513
epoch: 1000
next table: 1496
cur table: 1493
epoch: 1000
next table: 1991
cur table: 1496
epoch: 1000
next table: 2164
cur table: 1888
epoch: 1000
next table: 4488
cur table: 1991
epoch: 1000
next table: 2159
cur table: 4488
epoch: 1000
next table: 2073
cur table: 2164
epoch: 1000
next table: 2193
cur table: 2159
epoch: 1000
next table: 1500
cur table: 2193
epoch: 1000
next table: 1604
cur table: 2073
epoch: 1000
next table: 1450
cur table: 1500
epoch: 1000
next table: 1463
cur table: 1450
epoch: 1000
next table: 1680
cur table: 1604
epoch: 1000
next table: 1505
cur table: 1463
epoch: 1000
next table: 1730
cur table: 1680
epoch: 1000
next table: 1515
cur table: 1505
epoch: 1000
next table: 1508
cur table: 1515
epoch: 1000
next table: 1706
cur table: 1730
epoch: 1000
next table: 1497
cur table: 1508
epoch: 1000
next table: 1505
cur table: 1497
epoch: 1000
next table: 1814
cur table: 1706
epoch: 1000
next table: 1502
cur table: 1505
epoch: 1000
next table: 1545
cur table: 1502
epoch: 1000
next table: 1881
cur table: 1814
epoch: 1000
next table: 1534
cur table: 1545
epoch: 1000
next table: 1536
cur table: 1534
epoch: 1000
next table: 1831
cur table: 1881
epoch: 1000
next table: 1496
cur table: 1536
epoch: 1000
next table: 1494
cur table: 1496
epoch: 1000
next table: 1832
cur table: 1831
epoch: 1000
next table: 1493
cur table: 1494
epoch: 1000
next table: 1505
cur table: 1493
epoch: 1000
next table: 1847
cur table: 1832
epoch: 1000
next table: 1513
cur table: 1505
epoch: 1000
next table: 1490
cur table: 1513
epoch: 1000
next table: 1858
cur table: 1847
epoch: 1000
next table: 1498
cur table: 1490
epoch: 1000
next table: 1665
cur table: 1498
epoch: 1000
next table: 2677
cur table: 1665
epoch: 1000
next table: 2017
cur table: 1858
epoch: 1000
next table: 4522
cur table: 2677
epoch: 1000
next table: 1720
cur table: 4522
epoch: 1000
next table: 2119
cur table: 2017
epoch: 1000
next table: 2236
cur table: 1720
epoch: 1000
next table: 1418
cur table: 2236
epoch: 1000
next table: 1663
cur table: 2119
epoch: 1000
next table: 1451
cur table: 1418
epoch: 1000
next table: 1486
cur table: 1451
epoch: 1000
next table: 1690
cur table: 1663
epoch: 1000
next table: 1517
cur table: 1486
epoch: 1000
next table: 1515
cur table: 1517
epoch: 1000
next table: 1715
cur table: 1690
epoch: 1000
next table: 1514
cur table: 1515
epoch: 1000
next table: 1726
cur table: 1715
epoch: 1000
next table: 1505
cur table: 1514
epoch: 1000
next table: 1498
cur table: 1505
epoch: 1000
next table: 1523
cur table: 1498
epoch: 1000
next table: 1815
cur table: 1726
epoch: 1000
next table: 1530
cur table: 1523
epoch: 1000
next table: 1532
cur table: 1530
epoch: 1000
next table: 1850
cur table: 1815
epoch: 1000
next table: 1521
cur table: 1532
epoch: 1000
next table: 1827
cur table: 1850
epoch: 1000
next table: 1508
cur table: 1521
epoch: 1000
next table: 1526
cur table: 1508
epoch: 1000
next table: 1854
cur table: 1827
epoch: 1000
next table: 1500
cur table: 1526
epoch: 1000
next table: 1514
cur table: 1500
epoch: 1000
next table: 1518
cur table: 1514
epoch: 1000
[...]
next table: 1534
cur table: 1558
epoch: 1000
next table: 1528
cur table: 1534
epoch: 1000
next table: 1737
cur table: 1716
epoch: 1000
next table: 1555
cur table: 1528
epoch: 1000
next table: 1567
cur table: 1555
epoch: 1000
next table: 1759
cur table: 1737
epoch: 1000
next table: 1582
cur table: 1567
epoch: 1000
next table: 1577
cur table: 1582
epoch: 1000
next table: 1669
cur table: 1759
epoch: 1000
next table: 1557
cur table: 1577
epoch: 1000
next table: 1565
cur table: 1557
epoch: 1000
next table: 1735
cur table: 1669
epoch: 1000
next table: 1564
cur table: 1565
epoch: 1000
next table: 1540
cur table: 1564
epoch: 1000
next table: 1752
cur table: 1735
epoch: 1000
next table: 1552
cur table: 1540
epoch: 1000
next table: 1555
cur table: 1552
epoch: 1000
next table: 1798
cur table: 1752
epoch: 1000
next table: 1527
cur table: 1555
epoch: 1000
next table: 2279
cur table: 1527
epoch: 1000
next table: 2037
cur table: 1798
epoch: 1000
next table: 4866
cur table: 2279
epoch: 1000
next table: 3822
cur table: 4866
epoch: 1000
next table: 1925
cur table: 2037
epoch: 1000
next table: 1682
cur table: 3822
epoch: 1000
next table: 1463
cur table: 1682
epoch: 1000
next table: 1654
cur table: 1925
epoch: 1000
next table: 1493
cur table: 1463
epoch: 1000
next table: 1530
cur table: 1493
epoch: 1000
next table: 1670
cur table: 1654
epoch: 1000
next table: 1550
cur table: 1530
epoch: 1000
next table: 1566
cur table: 1550
epoch: 1000
next table: 1742
cur table: 1670
epoch: 1000
next table: 1535
cur table: 1566
epoch: 1000
next table: 1528
cur table: 1535
epoch: 1000
next table: 1727
cur table: 1742
epoch: 1000
next table: 1520
cur table: 1528
epoch: 1000
next table: 1742
cur table: 1727
epoch: 1000
next table: 1567
cur table: 1520
epoch: 1000
next table: 1584
cur table: 1567
epoch: 1000
next table: 1706
cur table: 1742
epoch: 1000
next table: 1602
cur table: 1584
epoch: 1000
next table: 1543
cur table: 1602
epoch: 1000
next table: 1712
cur table: 1706
epoch: 1000
next table: 1576
cur table: 1543
epoch: 1000
next table: 1577
cur table: 1576
epoch: 1000
next table: 1723
cur table: 1712
epoch: 1000
next table: 1579
cur table: 1577
epoch: 1000
next table: 1538
cur table: 1579
epoch: 1000
next table: 1752
cur table: 1723
epoch: 1000
next table: 1546
cur table: 1538
epoch: 1000
next table: 1515
cur table: 1546
epoch: 1000
next table: 1767
cur table: 1752
epoch: 1000
next table: 2316
cur table: 1515
Heartbeat CPU 0 instructions: 100000000 cycles: 202053555 heartbeat IPC: 0.270058 cumulative IPC: 0.2696 (Simulation time: 1 hr 14 min 18 sec) 
Finished CPU 0 instructions: 50000000 cycles: 185460226 cumulative IPC: 0.2696 (Simulation time: 1 hr 14 min 18 sec) 

ChampSim completed all CPUs

Region of Interest Statistics

CPU 0 cumulative IPC: 0.2696 instructions: 50000000 cycles: 185460226
ITLB TOTAL     ACCESS:    9262546  HIT:    9262546  MISS:          0  HIT %:        100  MISS %:          0   MPKI: 0
ITLB LOAD TRANSLATION ACCESS:    9262546  HIT:    9262546  MISS:          0  HIT %:        100  MISS %:          0   MPKI: 0
ITLB PREFETCH  REQUESTED:          0  ISSUED:          0  USEFUL:          0  USELESS:          0
ITLB USEFUL LOAD PREFETCHES:          0 PREFETCH ISSUED TO LOWER LEVEL:          0  ACCURACY: -nan
ITLB TIMELY PREFETCHES:          0 LATE PREFETCHES: 0 DROPPED PREFETCHES: 0
ITLB PREFETCHES SAME FILL-ORIGIN LEVEL: 0 DIFFERENT FILL-ORIGIN LEVEL: 0
ITLB AVERAGE MISS LATENCY: -nan cycles
ITLB RQ	ACCESS:    9691036	FORWARD:          0	MERGED:     428491	TO_CACHE:    9262545

Revised Interactions: positive negative neutral
ITLB_interactions 0 0 0 -nan -nan -nan
DTLB TOTAL     ACCESS:   15566395  HIT:   14709150  MISS:     857245  HIT %:     94.493  MISS %:    5.50702   MPKI: 17.1449
DTLB LOAD TRANSLATION ACCESS:   15566395  HIT:   14709150  MISS:     857245  HIT %:     94.493  MISS %:    5.50702   MPKI: 17.1449
DTLB PREFETCH  REQUESTED:          0  ISSUED:          0  USEFUL:          0  USELESS:          0
DTLB USEFUL LOAD PREFETCHES:          0 PREFETCH ISSUED TO LOWER LEVEL:          0  ACCURACY: -nan
DTLB TIMELY PREFETCHES:          0 LATE PREFETCHES: 0 DROPPED PREFETCHES: 0
DTLB PREFETCHES SAME FILL-ORIGIN LEVEL: 0 DIFFERENT FILL-ORIGIN LEVEL: 0
DTLB AVERAGE MISS LATENCY: 10.7961 cycles
DTLB RQ	ACCESS:   18987417	FORWARD:          0	MERGED:    3319342	TO_CACHE:   15668075

Revised Interactions: positive negative neutral
DTLB_interactions 0 0 0 -nan -nan -nan
STLB TOTAL     ACCESS:    4000793  HIT:    3987505  MISS:      13288  HIT %:    99.6679  MISS %:   0.332134   MPKI: 0.26576
STLB LOAD TRANSLATION ACCESS:     857245  HIT:     843957  MISS:      13288  HIT %:    98.4499  MISS %:    1.55008   MPKI: 0.26576
STLB TRANSLATION FROM L1D PREFETCHER ACCESS:    3143548  HIT:    3143548  MISS:          0  HIT %:        100  MISS %:          0   MPKI: 0
STLB PREFETCH  REQUESTED:          0  ISSUED:          0  USEFUL:          0  USELESS:          0
STLB USEFUL LOAD PREFETCHES:          0 PREFETCH ISSUED TO LOWER LEVEL:          0  ACCURACY: -nan
STLB TIMELY PREFETCHES:          0 LATE PREFETCHES: 0 DROPPED PREFETCHES: 0
STLB PREFETCHES SAME FILL-ORIGIN LEVEL: 0 DIFFERENT FILL-ORIGIN LEVEL: 0
STLB AVERAGE MISS LATENCY: 102.285 cycles
STLB RQ	ACCESS:    4563541	FORWARD:          0	MERGED:     562748	TO_CACHE:    4000793

Revised Interactions: positive negative neutral
STLB_interactions 0 0 0 -nan -nan -nan
STLB Hit, L1D data hit: 0
STLB Hit, L2C data hit: 0
STLB Hit, LLC data hit: 0
STLB Hit, LLC data miss: 0
STLB STLB hints to L2: 0
L1D TOTAL     ACCESS:   22219701  HIT:   18798653  MISS:    3421048  HIT %:    84.6035  MISS %:    15.3965   MPKI: 68.421
L1D LOAD      ACCESS:   13105291  HIT:   11772755  MISS:    1332536  HIT %:    89.8321  MISS %:    10.1679   MPKI: 26.6507
L1D RFO       ACCESS:    5468483  HIT:    5277767  MISS:     190716  HIT %:    96.5125  MISS %:    3.48755   MPKI: 3.81432
L1D PREFETCH  ACCESS:    3645927  HIT:    1748131  MISS:    1897796  HIT %:    47.9475  MISS %:    52.0525   MPKI: 37.9559
L1D PREFETCH  REQUESTED:    7416846  ISSUED:    7416700  USEFUL:     484926  USELESS:    1412899
L1D USEFUL LOAD PREFETCHES:     484926 PREFETCH ISSUED TO LOWER LEVEL:    1898176  ACCURACY: 25.5469
L1D TIMELY PREFETCHES:     484926 LATE PREFETCHES: 94692 DROPPED PREFETCHES: 0
L1D PREFETCHES SAME FILL-ORIGIN LEVEL: 1898176 DIFFERENT FILL-ORIGIN LEVEL: 0
L1D AVERAGE MISS LATENCY: 12230.7 cycles
L1D RQ	ACCESS:   16816349	FORWARD:          0	MERGED:    3075232	TO_CACHE:   13206382
L1D WQ	ACCESS:    5808430	FORWARD:     538843	MERGED:      27395	TO_CACHE:    5781035
L1D PQ	ACCESS:    3710404	FORWARD:          0	MERGED:          0	TO_CACHE:    3706296

Revised Interactions: positive negative neutral
L1D_interactions 0 0 0 -nan -nan -nan
L1D UNIQUE REGIONS ACCESSED: 0
L1D REGIONS CONFLICTS: 0
L1D Cross Page Prefetch Requests: 0
L1D Same Page Prefetch Requests: 7399843
L1D ROI Sum of L1D PQ occupancy: 53124907
L1D PREFETCHES PUSHED FROM L2C: 0
L1I TOTAL     ACCESS:    9691037  HIT:    9691037  MISS:          0  HIT %:        100  MISS %:          0   MPKI: 0
L1I LOAD      ACCESS:    9691037  HIT:    9691037  MISS:          0  HIT %:        100  MISS %:          0   MPKI: 0
L1I PREFETCH  REQUESTED:          0  ISSUED:          0  USEFUL:          0  USELESS:          0
L1I USEFUL LOAD PREFETCHES:          0 PREFETCH ISSUED TO LOWER LEVEL:          0  ACCURACY: -nan
L1I TIMELY PREFETCHES:          0 LATE PREFETCHES: 0 DROPPED PREFETCHES: 0
L1I PREFETCHES SAME FILL-ORIGIN LEVEL: 0 DIFFERENT FILL-ORIGIN LEVEL: 0
L1I AVERAGE MISS LATENCY: -nan cycles
L1I RQ	ACCESS:   15126500	FORWARD:          0	MERGED:    5435464	TO_CACHE:    9691036

Revised Interactions: positive negative neutral
L1I_interactions 0 0 0 -nan -nan -nan
BTB TOTAL     ACCESS:   11847080  HIT:   11259969  MISS:     587111  HIT %:    95.0443  MISS %:    4.95574   MPKI: 11.7422
BTB BRANCH_DIRECT_JUMP	ACCESS:    1317761  HIT:    1317725  MISS:         36
BTB BRANCH_INDIRECT	ACCESS:          0  HIT:          0  MISS:          0
BTB BRANCH_CONDITIONAL	ACCESS:    7830652  HIT:    7830577  MISS:         75
BTB BRANCH_DIRECT_CALL	ACCESS:    1274783  HIT:    1274765  MISS:         18
BTB BRANCH_INDIRECT_CALL	ACCESS:      74550  HIT:      74542  MISS:          8
BTB BRANCH_RETURN	ACCESS:    1349334  HIT:     762360  MISS:     586974
BTB BRANCH_OTHER ACCESS:          0  HIT:          0  MISS:          0

L2C TOTAL     ACCESS:    4132377  HIT:    2093620  MISS:    2038757  HIT %:    50.6638  MISS %:    49.3362   MPKI: 40.7751
L2C LOAD      ACCESS:    1332532  HIT:     553704  MISS:     778828  HIT %:    41.5528  MISS %:    58.4472   MPKI: 15.5766
L2C DATA LOAD MPKI: 15.5766
L2C INSTRUCTION LOAD MPKI: 0
L2C RFO       ACCESS:     190333  HIT:     159729  MISS:      30604  HIT %:    83.9208  MISS %:    16.0792   MPKI: 0.61208
L2C PREFETCH  ACCESS:    2307261  HIT:    1095334  MISS:    1211927  HIT %:    47.4733  MISS %:    52.5267   MPKI: 24.2385
L2C DATA PREFETCH MPKI: 24.2385
L2C INSTRUCTION PREFETCH MPKI: 0
L2C WRITEBACK ACCESS:     288810  HIT:     277152  MISS:      11658  HIT %:    95.9634  MISS %:    4.03656   MPKI: 0.23316
L2C LOAD TRANSLATION ACCESS:      13441  HIT:       7701  MISS:       5740  HIT %:    57.2948  MISS %:    42.7052   MPKI: 0.1148
L2C PREFETCH  REQUESTED:     862777  ISSUED:     862777  USEFUL:      92062  USELESS:    1119692
L2C USEFUL LOAD PREFETCHES:      92062 PREFETCH ISSUED TO LOWER LEVEL:    1219172  ACCURACY: 7.55119
L2C TIMELY PREFETCHES:      92062 LATE PREFETCHES: 7245 DROPPED PREFETCHES: 0
L2C PREFETCHES SAME FILL-ORIGIN LEVEL: 323592 DIFFERENT FILL-ORIGIN LEVEL: 0
L2C AVERAGE MISS LATENCY: 132.517 cycles
L2C RQ	ACCESS:    1536313	FORWARD:          0	MERGED:          0	TO_CACHE:    1536306
L2C WQ	ACCESS:     288810	FORWARD:         10	MERGED:          0	TO_CACHE:     288810
L2C PQ	ACCESS:    2760953	FORWARD:          0	MERGED:     181357	TO_CACHE:    2579593

Revised Interactions: positive negative neutral
L2C_interactions 60439 1182073 417651 3.64055 71.2022 25.1572
L2C Instructions Evicting Data 0
L2C Translations Evicting Data 5727
L2C Data Evicting Data 2015650
L2C Instructions Evicting Instructions 0
L2C Translations Evicting Instructions 0
L2C Data Evicting Instructions 0
L2C Instructions Evicting Translations 0
L2C Translations Evicting Translations 13
L2C Data Evicting Translations 5709
L2C Dense regions hint from L2: 0
PSCL5 TOTAL     ACCESS:      13288  HIT:      13288  MISS:          0  HIT %:        100  MISS %:          0   MPKI: 0
PSCL5 LOAD TRANSLATION ACCESS:      13288  HIT:      13288  MISS:          0  HIT %:        100  MISS %:          0   MPKI: 0
PSCL5 PREFETCH  REQUESTED:          0  ISSUED:          0  USEFUL:          0  USELESS:          0
PSCL5 USEFUL LOAD PREFETCHES:          0 PREFETCH ISSUED TO LOWER LEVEL:          0  ACCURACY: -nan
PSCL5 TIMELY PREFETCHES:          0 LATE PREFETCHES: 0 DROPPED PREFETCHES: 0
PSCL5 PREFETCHES SAME FILL-ORIGIN LEVEL: 0 DIFFERENT FILL-ORIGIN LEVEL: 0

Revised Interactions: positive negative neutral
PSCL5_interactions 0 0 0 -nan -nan -nan
PSCL4 TOTAL     ACCESS:      13288  HIT:      13288  MISS:          0  HIT %:        100  MISS %:          0   MPKI: 0
PSCL4 LOAD TRANSLATION ACCESS:      13288  HIT:      13288  MISS:          0  HIT %:        100  MISS %:          0   MPKI: 0
PSCL4 PREFETCH  REQUESTED:          0  ISSUED:          0  USEFUL:          0  USELESS:          0
PSCL4 USEFUL LOAD PREFETCHES:          0 PREFETCH ISSUED TO LOWER LEVEL:          0  ACCURACY: -nan
PSCL4 TIMELY PREFETCHES:          0 LATE PREFETCHES: 0 DROPPED PREFETCHES: 0
PSCL4 PREFETCHES SAME FILL-ORIGIN LEVEL: 0 DIFFERENT FILL-ORIGIN LEVEL: 0

Revised Interactions: positive negative neutral
PSCL4_interactions 0 0 0 -nan -nan -nan
PSCL3 TOTAL     ACCESS:      13288  HIT:      13288  MISS:          0  HIT %:        100  MISS %:          0   MPKI: 0
PSCL3 LOAD TRANSLATION ACCESS:      13288  HIT:      13288  MISS:          0  HIT %:        100  MISS %:          0   MPKI: 0
PSCL3 PREFETCH  REQUESTED:          0  ISSUED:          0  USEFUL:          0  USELESS:          0
PSCL3 USEFUL LOAD PREFETCHES:          0 PREFETCH ISSUED TO LOWER LEVEL:          0  ACCURACY: -nan
PSCL3 TIMELY PREFETCHES:          0 LATE PREFETCHES: 0 DROPPED PREFETCHES: 0
PSCL3 PREFETCHES SAME FILL-ORIGIN LEVEL: 0 DIFFERENT FILL-ORIGIN LEVEL: 0

Revised Interactions: positive negative neutral
PSCL3_interactions 0 0 0 -nan -nan -nan
PSCL2 TOTAL     ACCESS:      13288  HIT:      13071  MISS:        217  HIT %:    98.3669  MISS %:    1.63305   MPKI: 0.00434
PSCL2 LOAD TRANSLATION ACCESS:      13288  HIT:      13071  MISS:        217  HIT %:    98.3669  MISS %:    1.63305   MPKI: 0.00434
PSCL2 PREFETCH  REQUESTED:          0  ISSUED:          0  USEFUL:          0  USELESS:          0
PSCL2 USEFUL LOAD PREFETCHES:          0 PREFETCH ISSUED TO LOWER LEVEL:          0  ACCURACY: -nan
PSCL2 TIMELY PREFETCHES:          0 LATE PREFETCHES: 0 DROPPED PREFETCHES: 0
PSCL2 PREFETCHES SAME FILL-ORIGIN LEVEL: 0 DIFFERENT FILL-ORIGIN LEVEL: 0

Revised Interactions: positive negative neutral
PSCL2_interactions 0 0 0 -nan -nan -nan
LLC TOTAL     ACCESS:    2118069  HIT:    1050681  MISS:    1067388  HIT %:    49.6056  MISS %:    50.3944   MPKI: 21.3478
LLC LOAD      ACCESS:     771583  HIT:     654913  MISS:     116670  HIT %:    84.8791  MISS %:    15.1209   MPKI: 2.3334
LLC RFO       ACCESS:      30601  HIT:      29979  MISS:        622  HIT %:    97.9674  MISS %:    2.03261   MPKI: 0.01244
LLC PREFETCH  ACCESS:    1219172  HIT:     273905  MISS:     945267  HIT %:    22.4665  MISS %:    77.5335   MPKI: 18.9053
LLC WRITEBACK ACCESS:      90973  HIT:      87737  MISS:       3236  HIT %:    96.4429  MISS %:     3.5571   MPKI: 0.06472
LLC LOAD TRANSLATION ACCESS:       5740  HIT:       4147  MISS:       1593  HIT %:    72.2474  MISS %:    27.7526   MPKI: 0.03186
LLC PREFETCH  REQUESTED:          0  ISSUED:          0  USEFUL:      10067  USELESS:     934721
LLC USEFUL LOAD PREFETCHES:      10067 PREFETCH ISSUED TO LOWER LEVEL:     945267  ACCURACY: 1.06499
LLC TIMELY PREFETCHES:      10067 LATE PREFETCHES: 0 DROPPED PREFETCHES: 0
LLC PREFETCHES SAME FILL-ORIGIN LEVEL: 0 DIFFERENT FILL-ORIGIN LEVEL: 0
LLC AVERAGE MISS LATENCY: 195.957 cycles
LLC RQ	ACCESS:     807927	FORWARD:          0	MERGED:          0	TO_CACHE:     807924
LLC WQ	ACCESS:      90973	FORWARD:          3	MERGED:          0	TO_CACHE:      90973
LLC PQ	ACCESS:    1219172	FORWARD:          0	MERGED:          0	TO_CACHE:    1219172

Revised Interactions: positive negative neutral
LLC_interactions 5886 940733 94352 0.565434 90.3707 9.06385
LLC Dense regions hint to LLC: 0

RAW hits: 725935
Loads Generated: 17542285
Loads sent to L1D: 16816349
Stores Generated: 5808400
Stores sent to L1D: 5808430
Major fault: 0 Minor fault: 15240
Allocated PAGES: 15240

stream: 
stream:times selected: 10314175
stream:pref_filled: 2555527
stream:pref_useful: 198865
stream:pref_late: 7244
stream:misses: 573848
stream:misses_by_poll: 0

CS: 
CS:times selected: 1413772
CS:pref_filled: 916317
CS:pref_useful: 793712
CS:pref_late: 143117
CS:misses: 196795
CS:misses_by_poll: 1792

CPLX: 
CPLX:times selected: 8830051
CPLX:pref_filled: 350035
CPLX:pref_useful: 37470
CPLX:pref_late: 982
CPLX:misses: 2100062
CPLX:misses_by_poll: 461

NL_L1: 
NL:times selected: 66811
NL:pref_filled: 20871
NL:pref_useful: 1869
NL:pref_late: 48
NL:misses: 20637
NL:misses_by_poll: 2

total selections: 20624809
total_filled: 1897796
total_useful: 484926
total_late: 151395
total_polluted: 2255
total_misses_after_warmup: 1433627
conflicts: 88047
Degree Incremented Times: 105685
Degree Decremented Times: 480467

L1 IP Table Write Accesses: 12991532
L1 IP Table Read Accesses: 12903485
L1 RST Write Accesses: 5140010
L1 RST Read Accesses: 10280020
L1 CSPT Write Accesses: 5140010
L1 CSPT Read Accesses: 9581284
L1 RR Filter Tag Write Accesses: 3710550
L1 RR Filter Tag Read Accesses: 201330027
L1 IP Table Tag Write Accesses: 13206382
L1 IP Table Tag Read Accesses: 13206382
L1 RST Tag Write Accesses: 0
L1 RST Tag Read Accesses: 45221907
L1 RR Filter Write Accesses: 0
L1 RR Filter Read Accesses: 7458337
test: 4741863
L2 IP Table Read Accesses: 6115484
L2 IP Table Write Accesses: 4786358
L2 IP Table Tag Read Accesses: 3059698
L2 IP Table Tag Write Accesses: 3059698

DRAM Statistics
 CHANNEL 0
 RQ ROW_BUFFER_HIT:     166494  ROW_BUFFER_MISS:     897632
 DBUS_CONGESTED:        283
 WQ ROW_BUFFER_HIT:       1288  ROW_BUFFER_MISS:       6112  FULL:          0

 AVG_CONGESTED_CYCLE: 4
 All warmup complete: 2
Channel 0 Bank busy for read cycles: 0
Channel 0 Bank busy for write cycles: 0
Channel 0
Rank 0
0banks busy for read cycles: 132631062
0banks busy for write cycles: 3471
1banks busy for read cycles: 16299462
1banks busy for write cycles: 1009951
2banks busy for read cycles: 11125524
2banks busy for write cycles: 396361
3banks busy for read cycles: 7845176
3banks busy for write cycles: 167499
4banks busy for read cycles: 6197330
4banks busy for write cycles: 81721
5banks busy for read cycles: 4468184
5banks busy for write cycles: 43950
6banks busy for read cycles: 2879552
6banks busy for write cycles: 26581
7banks busy for read cycles: 1624918
7banks busy for write cycles: 14314
8banks busy for read cycles: 638127
8banks busy for write cycles: 7044

CPU 0 Branch Prediction Accuracy: 88.8318% MPKI: 27.7783 Average ROB Occupancy at Mispredict: 12.3045
Branch types
NOT_BRANCH: 37563289 75.1266%
BRANCH_DIRECT_JUMP: 1317761 2.63552%
BRANCH_INDIRECT: 0 0%
BRANCH_CONDITIONAL: 8419917 16.8398%
BRANCH_DIRECT_CALL: 1274783 2.54957%
BRANCH_INDIRECT_CALL: 74550 0.1491%
BRANCH_RETURN: 1349334 2.69867%
BRANCH_OTHER: 0 0%

@sumon_overall_L1D    484926     94692     94692   1412899   1897796   7416700   7416846
@Sumon_Early_by_class_L1D    101267    359880     22851        24
@Sumon_Late_by_class_L1D      2992     78160       739        24

@Sumon_Early_by_cycle_L1D     78705     97808    107547     38429      6884     12991     26496     32234     25542     33365     15963      8962
@Sumon_Late_by_cycle_L1D      8878      5181     10668     13168     43691       329
@Sumon_Early_stream_L1D      6854      3488      2014      1207       954      4777      6471     11301     18257     26461     12267      7216
@Sumon_Early_CS_L1D     70965     92890    102960     34852      4678      7026     19236     19464      4496      1845       813       655
@Sumon_Early_CPLX_L1D       846      1393      2541      2349      1215      1029       716      1364      2611      4893      2831      1063
@Sumon_Late_stream_L1D       900       448       930       140       570         4
@Sumon_Late_CS_L1D      7923      4676      9639     12736     42863       323
@Sumon_Late_CPLX_L1D        36        56        98       290       257         2
@sumon_overall_L2C     92062      7245         0   1119692   1211927    862777    862777
@Sumon_Early_by_class_L2C     24871     62505      4442         0
@Sumon_Late_by_class_L2C         0      7013         0         0

@Sumon_Early_by_cycle_L2C      2233      2560      1881       646       135        40         4        77       480      2933      4450     76623
@Sumon_Late_by_cycle_L2C       222       277       840      2006      3804        96
@Sumon_Early_stream_L2C         0         0         0         0         0         0         0        66       438      2632      3916     17819
@Sumon_Early_CS_L2C      2207      2554      1880       645       135        40         4         5         9        72       205     54749
@Sumon_Early_CPLX_L2C         0         0         0         0         0         0         0         5        30       208       301      3898
@Sumon_Late_stream_L2C         0         0         0         0         0         0
@Sumon_Late_CS_L2C         0       277       840      2005      3795        96
@Sumon_Late_CPLX_L2C         0         0         0         0         0         0
DRAM PAGES: 1048576
Allocated PAGES: 15240
