
*** ChampSim Multicore Out-of-Order Simulator ***

Warmup Instructions: 50000000
Simulation Instructions: 50000000
Number of CPUs: 1
LLC sets: 2048
LLC ways: 16
Off-chip DRAM Size: 4096 MB Channels: 1 Width: 64-bit Data Rate: 6400 MT/s
CPU 0 runs ../../biswa/SPEC2017Traces/619.lbm_s-3766B.champsimtrace.xz
.xz
CPU 0 Bimodal branch predictor
BTB has LRU replacement policy
ITLB has LRU replacement policy
DTLB has LRU replacement policy
STLB has LRU replacement policy
L1I has LRU replacement policy
IP Table Entries: 256
L1D has LRU replacement policy
IP_Table L2 entries: 256
Initialize DRRIP state for L2C
Initialize SRRIP state
epoch: 1000
next table: 2485
cur table: 11760
epoch: 1000
next table: 2431
cur table: 2485
epoch: 1000
next table: 2430
cur table: 2431
epoch: 1000
next table: 2406
cur table: 2430
epoch: 1000
next table: 2405
cur table: 2406
epoch: 1000
next table: 2415
cur table: 2405
epoch: 1000
next table: 2413
cur table: 2415
epoch: 1000
next table: 2415
cur table: 2413
epoch: 1000
next table: 2426
cur table: 2415
epoch: 1000
next table: 2419
cur table: 2426
epoch: 1000
next table: 2427
cur table: 2419
epoch: 1000
next table: 2416
cur table: 2427
epoch: 1000
next table: 2383
cur table: 2416
epoch: 1000
next table: 2418
cur table: 2383
epoch: 1000
next table: 2407
cur table: 2418
epoch: 1000
next table: 2423
cur table: 2407
epoch: 1000
next table: 2419
cur table: 2423
epoch: 1000
next table: 2418
cur table: 2419
epoch: 1000
next table: 2427
cur table: 2418
epoch: 1000
next table: 2432
cur table: 2427
epoch: 1000
next table: 2429
cur table: 2432
epoch: 1000
next table: 2406
cur table: 2429
epoch: 1000
next table: 2405
cur table: 2406
epoch: 1000
next table: 2406
cur table: 2405
epoch: 1000
next table: 2427
cur table: 2406
epoch: 1000
next table: 2004
cur table: 26569
epoch: 1000
next table: 2415
cur table: 2427
epoch: 1000
next table: 1825
cur table: 2004
epoch: 1000
next table: 2433
cur table: 2415
epoch: 1000
next table: 1799
cur table: 1825
epoch: 1000
next table: 2405
cur table: 2433
epoch: 1000
next table: 1758
cur table: 1799
epoch: 1000
next table: 2431
cur table: 2405
epoch: 1000
next table: 1758
cur table: 1758
epoch: 1000
next table: 2437
cur table: 2431
epoch: 1000
next table: 1770
cur table: 1758
epoch: 1000
next table: 2390
cur table: 2437
epoch: 1000
next table: 1769
cur table: 1770
epoch: 1000
next table: 2408
cur table: 2390
epoch: 1000
next table: 1754
cur table: 1769
epoch: 1000
next table: 2406
cur table: 2408
epoch: 1000
next table: 1764
cur table: 1754
epoch: 1000
next table: 2412
cur table: 2406
epoch: 1000
next table: 1772
cur table: 1764
epoch: 1000
next table: 2412
cur table: 2412
epoch: 1000
next table: 1750
cur table: 1772
epoch: 1000
next table: 2428
cur table: 2412
epoch: 1000
next table: 1767
cur table: 1750
epoch: 1000
next table: 2392
cur table: 2428
epoch: 1000
next table: 1765
cur table: 1767
epoch: 1000
next table: 2408
cur table: 2392
epoch: 1000
next table: 1788
cur table: 1765
epoch: 1000
next table: 2335
cur table: 2408
epoch: 1000
next table: 1783
cur table: 1788
epoch: 1000
next table: 2382
cur table: 2335
epoch: 1000
next table: 1795
cur table: 1783
epoch: 1000
next table: 2374
cur table: 2382
epoch: 1000
next table: 1764
cur table: 1795
epoch: 1000
next table: 2423
cur table: 2374
epoch: 1000
next table: 1772
cur table: 1764
epoch: 1000
next table: 2424
cur table: 2423
epoch: 1000
next table: 1763
cur table: 1772
epoch: 1000
next table: 2396
cur table: 2424
epoch: 1000
next table: 1758
cur table: 1763
epoch: 1000
next table: 2407
cur table: 2396
epoch: 1000
next table: 1760
cur table: 1758
epoch: 1000
next table: 2395
cur table: 2407
epoch: 1000
next table: 1774
cur table: 1760
epoch: 1000
next table: 2389
cur table: 2395
epoch: 1000
next table: 1796
cur table: 1774
epoch: 1000
next table: 2378
cur table: 2389
epoch: 1000
next table: 1794
cur table: 1796
epoch: 1000
next table: 2359
cur table: 2378
epoch: 1000
next table: 1806
cur table: 1794
epoch: 1000
next table: 2327
cur table: 2359
epoch: 1000
next table: 1778
cur table: 1806
epoch: 1000
next table: 2405
cur table: 2327
epoch: 1000
next table: 1779
cur table: 1778
epoch: 1000
next table: 2406
cur table: 2405
epoch: 1000
next table: 1776
cur table: 1779
epoch: 1000
next table: 2408
cur table: 2406
epoch: 1000
next table: 1769
cur table: 1776
epoch: 1000
next table: 2405
cur table: 2408
epoch: 1000
next table: 1765
cur table: 1769
epoch: 1000
next table: 2388
cur table: 2405
epoch: 1000
next table: 1760
cur table: 1765
epoch: 1000
next table: 2403
cur table: 2388
epoch: 1000
next table: 2405
cur table: 2403
epoch: 1000
next table: 1764
cur table: 1760
epoch: 1000
next table: 2393
cur table: 2405
epoch: 1000
next table: 1774
cur table: 1764
epoch: 1000
next table: 2409
cur table: 2393
epoch: 1000
next table: 1772
cur table: 1774
epoch: 1000
next table: 2421
cur table: 2409
epoch: 1000
next table: 1759
cur table: 1772
epoch: 1000
next table: 2427
cur table: 2421
epoch: 1000
next table: 1774
cur table: 1759
epoch: 1000
next table: 2382
cur table: 2427
epoch: 1000
next table: 1777
cur table: 1774
epoch: 1000
next table: 2394
cur table: 2382
epoch: 1000
next table: 1770
cur table: 1777
epoch: 1000
next table: 2415
cur table: 2394
epoch: 1000
next table: 1753
cur table: 1770
epoch: 1000
next table: 2422
cur table: 2415
epoch: 1000
next table: 1751
cur table: 1753
epoch: 1000
next table: 2405
cur table: 2422
epoch: 1000
next table: 1755
cur table: 1751
epoch: 1000
next table: 2424
cur table: 2405
epoch: 1000
next table: 1771
cur table: 1755
epoch: 1000
next table: 2412
cur table: 2424
epoch: 1000
next table: 1771
cur table: 1771
epoch: 1000
next table: 2377
cur table: 2412
epoch: 1000
next table: 1791
cur table: 1771
epoch: 1000
next table: 2371
cur table: 2377
epoch: 1000
next table: 1771
cur table: 1791
epoch: 1000
next table: 2401
cur table: 2371
epoch: 1000
next table: 1769
cur table: 1771
epoch: 1000
next table: 2400
cur table: 2401
epoch: 1000
next table: 1781
cur table: 1769
epoch: 1000
next table: 2394
cur table: 2400
epoch: 1000
next table: 1784
cur table: 1781
epoch: 1000
next table: 2369
cur table: 2394
epoch: 1000
next table: 1789
cur table: 1784
epoch: 1000
next table: 2353
cur table: 2369
epoch: 1000
next table: 1779
cur table: 1789
epoch: 1000
next table: 2387
cur table: 2353
epoch: 1000
next table: 1776
cur table: 1779
epoch: 1000
next table: 2348
cur table: 2387
epoch: 1000
next table: 1814
cur table: 1776
epoch: 1000
next table: 2314
cur table: 2348
epoch: 1000
next table: 1814
cur table: 1814
epoch: 1000
next table: 2354
cur table: 2314
epoch: 1000
next table: 1809
cur table: 1814
epoch: 1000
next table: 2381
cur table: 2354
epoch: 1000
next table: 1782
cur table: 1809
epoch: 1000
next table: 2400
cur table: 2381
epoch: 1000
next table: 1763
cur table: 1782
epoch: 1000
next table: 2415
cur table: 2400
epoch: 1000
next table: 1769
cur table: 1763
epoch: 1000
next table: 2378
cur table: 2415
epoch: 1000
next table: 1769
cur table: 1769
epoch: 1000
next table: 2384
cur table: 2378
epoch: 1000
next table: 1773
cur table: 1769
epoch: 1000
next table: 2403
cur table: 2384
epoch: 1000
next table: 1774
cur table: 1773
epoch: 1000
next table: 2365
cur table: 2403
epoch: 1000
next table: 1789
cur table: 1774
epoch: 1000
next table: 2407
cur table: 2365
epoch: 1000
next table: 1788
cur table: 1789
epoch: 1000
next table: 2382
cur table: 2407
epoch: 1000
next table: 1771
cur table: 1788
epoch: 1000
next table: 2392
cur table: 2382
epoch: 1000
next table: 1765
cur table: 1771
epoch: 1000
next table: 2416
cur table: 2392
epoch: 1000
next table: 1753
cur table: 1765
epoch: 1000
next table: 2409
cur table: 2416
epoch: 1000
next table: 1757
cur table: 1753
epoch: 1000
next table: 2430
cur table: 2409
epoch: 1000
next table: 1752
cur table: 1757
epoch: 1000
next table: 2385
cur table: 2430
epoch: 1000
next table: 1773
cur table: 1752
epoch: 1000
next table: 2428
cur table: 2385
epoch: 1000
next table: 1773
cur table: 1773
epoch: 1000
next table: 2384
cur table: 2428
epoch: 1000
next table: 1767
cur table: 1773
epoch: 1000
next table: 2405
cur table: 2384
epoch: 1000
next table: 1768
cur table: 1767
epoch: 1000
next table: 2419
cur table: 2405
epoch: 1000
next table: 1752
cur table: 1768
epoch: 1000
next table: 2421
cur table: 2419
epoch: 1000
next table: 1765
cur table: 1752
epoch: 1000
next table: 2417
cur table: 2421
epoch: 1000
next table: 1757
cur table: 1765
epoch: 1000
next table: 2422
cur table: 2417
epoch: 1000
next table: 1756
cur table: 1757
epoch: 1000
next table: 2409
cur table: 2422
epoch: 1000
next table: 1758
cur table: 1756
epoch: 1000
next table: 2426
cur table: 2409
epoch: 1000
next table: 1756
cur table: 1758
epoch: 1000
next table: 2435
cur table: 2426
epoch: 1000
next table: 1763
cur table: 1756
epoch: 1000
next table: 2394
cur table: 2435
epoch: 1000
next table: 1767
cur table: 1763
epoch: 1000
next table: 2396
cur table: 2394
epoch: 1000
next table: 1756
cur table: 1767
epoch: 1000
next table: 2418
cur table: 2396
epoch: 1000
next table: 1757
cur table: 1756
epoch: 1000
next table: 2416
cur table: 2418
epoch: 1000
next table: 1762
cur table: 1757
epoch: 1000
next table: 2422
cur table: 2416
epoch: 1000
next table: 1770
cur table: 1762
epoch: 1000
next table: 2423
cur table: 2422
epoch: 1000
next table: 1752
cur table: 1770
epoch: 1000
next table: 2420
cur table: 2423
epoch: 1000
next table: 1751
cur table: 1752
epoch: 1000
next table: 2431
cur table: 2420
epoch: 1000
next table: 1753
cur table: 1751
epoch: 1000
next table: 2436
cur table: 2431
epoch: 1000
next table: 1758
cur table: 1753
epoch: 1000
next table: 2411
cur table: 2436
epoch: 1000
next table: 1775
cur table: 1758
epoch: 1000
next table: 2361
cur table: 2411
epoch: 1000
next table: 1765
cur table: 1775
epoch: 1000
next table: 2416
cur table: 2361
epoch: 1000
next table: 1767
cur table: 1765
epoch: 1000
next table: 2406
cur table: 2416
epoch: 1000
next table: 1761
cur table: 1767
epoch: 1000
next table: 2410
cur table: 2406
epoch: 1000
next table: 1772
cur table: 1761
epoch: 1000
next table: 2417
cur table: 2410
epoch: 1000
next table: 1783
cur table: 1772
epoch: 1000
next table: 2408
cur table: 2417
epoch: 1000
next table: 1771
cur table: 1783
epoch: 1000
next table: 2375
cur table: 2408
epoch: 1000
next table: 1773
cur table: 1771
epoch: 1000
next table: 2365
cur table: 2375
epoch: 1000
next table: 1773
cur table: 1773
epoch: 1000
next table: 2395
cur table: 2365
epoch: 1000
next table: 1771
cur table: 1773
epoch: 1000
next table: 2389
cur table: 2395
epoch: 1000
next table: 1771
cur table: 1771
epoch: 1000
next table: 2416
cur table: 2389
epoch: 1000
next table: 1766
cur table: 1771
epoch: 1000
next table: 2427
cur table: 2416
epoch: 1000
next table: 1765
cur table: 1766
epoch: 1000
next table: 2400
cur table: 2427
epoch: 1000
next table: 1764
cur table: 1765
epoch: 1000
next table: 2405
cur table: 2400
epoch: 1000
next table: 1769
cur table: 1764
epoch: 1000
next table: 2406
cur table: 2405
epoch: 1000
next table: 1755
cur table: 1769
epoch: 1000
next table: 2410
cur table: 2406
epoch: 1000
next table: 1753
cur table: 1755
epoch: 1000
next table: 2428
cur table: 2410
epoch: 1000
next table: 1754
cur table: 1753
epoch: 1000
next table: 2423
cur table: 2428
epoch: 1000
next table: 1757
cur table: 1754
epoch: 1000
next table: 2417
cur table: 2423
epoch: 1000
next table: 1759
cur table: 1757
epoch: 1000
next table: 2425
cur table: 2417
epoch: 1000
next table: 1756
cur table: 1759
epoch: 1000
next table: 2441
cur table: 2425
epoch: 1000
next table: 1761
cur table: 1756
epoch: 1000
next table: 2401
cur table: 2441
epoch: 1000
next table: 1765
cur table: 1761
epoch: 1000
next table: 2409
cur table: 2401
epoch: 1000
next table: 1767
cur table: 1765
epoch: 1000
next table: 2397
cur table: 2409
epoch: 1000
next table: 1761
cur table: 1767
epoch: 1000
next table: 2423
cur table: 2397
epoch: 1000
next table: 1750
cur table: 1761
epoch: 1000
next table: 2417
cur table: 2423
epoch: 1000
next table: 1754
cur table: 1750
epoch: 1000
next table: 2421
cur table: 2417
epoch: 1000
next table: 1750
cur table: 1754
epoch: 1000
next table: 2422
cur table: 2421
epoch: 1000
next table: 1761
cur table: 1750
epoch: 1000
next table: 2424
cur table: 2422
epoch: 1000
next table: 1749
cur table: 1761
epoch: 1000
next table: 2434
cur table: 2424
epoch: 1000
next table: 1764
cur table: 1749
epoch: 1000
next table: 2424
cur table: 2434
epoch: 1000
next table: 1761
cur table: 1764
epoch: 1000
next table: 2408
cur table: 2424
epoch: 1000
next table: 1753
cur table: 1761
epoch: 1000
next table: 2409
cur table: 2408
epoch: 1000
next table: 1767
cur table: 1753
epoch: 1000
next table: 2407
cur table: 2409
epoch: 1000
next table: 1760
cur table: 1767
epoch: 1000
next table: 2422
cur table: 2407
epoch: 1000
next table: 1752
cur table: 1760
epoch: 1000
next table: 2422
cur table: 2422
epoch: 1000
next table: 1752
cur table: 1752
epoch: 1000
next table: 2423
cur table: 2422
epoch: 1000
next table: 1756
cur table: 1752
epoch: 1000
next table: 2428
cur table: 2423
epoch: 1000
next table: 1754
cur table: 1756
epoch: 1000
next table: 2423
cur table: 2428
epoch: 1000
next table: 1759
cur table: 1754
epoch: 1000
next table: 2427
cur table: 2423
epoch: 1000
next table: 1755
cur table: 1759
epoch: 1000
next table: 2427
cur table: 2427
epoch: 1000
next table: 1757
cur table: 1755
epoch: 1000
next table: 2407
cur table: 2427
epoch: 1000
next table: 1767
cur table: 1757
epoch: 1000
next table: 2394
cur table: 2407
epoch: 1000
next table: 1786
cur table: 1767
epoch: 1000
next table: 2399
cur table: 2394
epoch: 1000
next table: 1768
cur table: 1786
epoch: 1000
next table: 2397
cur table: 2399
epoch: 1000
next table: 1764
cur table: 1768
epoch: 1000
next table: 2402
cur table: 2397
epoch: 1000
next table: 1776
cur table: 1764
epoch: 1000
next table: 2403
cur table: 2402
epoch: 1000
next table: 1773
cur table: 1776
epoch: 1000
next table: 2390
cur table: 2403
epoch: 1000
next table: 1776
cur table: 1773
epoch: 1000
next table: 2365
cur table: 2390
epoch: 1000
next table: 1798
cur table: 1776
epoch: 1000
next table: 2363
cur table: 2365
epoch: 1000
next table: 2381
cur table: 2363
epoch: 1000
next table: 1808
cur table: 1798
epoch: 1000
next table: 2361
cur table: 2381
epoch: 1000
next table: 1798
cur table: 1808
epoch: 1000
next table: 2368
cur table: 2361
epoch: 1000
next table: 1783
cur table: 1798
epoch: 1000
next table: 2399
cur table: 2368
epoch: 1000
next table: 1778
cur table: 1783
epoch: 1000
next table: 2399
cur table: 2399
epoch: 1000
next table: 1758
cur table: 1778
epoch: 1000
next table: 2381
cur table: 2399
epoch: 1000
next table: 1789
cur table: 1758
epoch: 1000
next table: 2384
cur table: 2381
epoch: 1000
next table: 1780
cur table: 1789
epoch: 1000
next table: 2326
cur table: 2384
epoch: 1000
next table: 1790
cur table: 1780
epoch: 1000
next table: 2325
cur table: 2326
epoch: 1000
next table: 1821
cur table: 1790
epoch: 1000
next table: 2352
cur table: 2325
epoch: 1000
next table: 1820
cur table: 1821
epoch: 1000
next table: 2338
cur table: 2352
epoch: 1000
next table: 1787
cur table: 1820
epoch: 1000
next table: 2409
cur table: 2338
epoch: 1000
next table: 1757
cur table: 1787
epoch: 1000
next table: 2415
cur table: 2409
epoch: 1000
next table: 1758
cur table: 1757
epoch: 1000
next table: 2421
cur table: 2415
epoch: 1000
next table: 1766
cur table: 1758
epoch: 1000
next table: 2396
cur table: 2421
epoch: 1000
next table: 1764
cur table: 1766
epoch: 1000
next table: 2399
cur table: 2396
epoch: 1000
next table: 1780
cur table: 1764
epoch: 1000
next table: 2396
cur table: 2399
epoch: 1000
next table: 1771
cur table: 1780
epoch: 1000
next table: 2353
cur table: 2396
epoch: 1000
next table: 1812
cur table: 1771
epoch: 1000
next table: 2356
cur table: 2353
epoch: 1000
next table: 1799
cur table: 1812
epoch: 1000
next table: 2400
cur table: 2356
epoch: 1000
next table: 1784
cur table: 1799
epoch: 1000
next table: 2371
cur table: 2400
epoch: 1000
next table: 1776
cur table: 1784
epoch: 1000
next table: 2379
cur table: 2371
epoch: 1000
next table: 1775
cur table: 1776
epoch: 1000
next table: 2400
cur table: 2379
epoch: 1000
next table: 1761
cur table: 1775
epoch: 1000
next table: 2403
cur table: 2400
epoch: 1000
next table: 1777
cur table: 1761
epoch: 1000
next table: 2391
cur table: 2403
epoch: 1000
next table: 1789
cur table: 1777
epoch: 1000
next table: 2369
cur table: 2391
epoch: 1000
next table: 1790
cur table: 1789
epoch: 1000
next table: 2349
cur table: 2369
epoch: 1000
next table: 1793
cur table: 1790
epoch: 1000
next table: 2376
cur table: 2349
epoch: 1000
next table: 1791
cur table: 1793
epoch: 1000
next table: 2379
cur table: 2376
epoch: 1000
next table: 1791
cur table: 1791
epoch: 1000
next table: 2422
cur table: 2379
epoch: 1000
next table: 1769
cur table: 1791
epoch: 1000
next table: 2370
cur table: 2422
epoch: 1000
next table: 1768
cur table: 1769
epoch: 1000
next table: 2385
cur table: 2370
epoch: 1000
next table: 1771
cur table: 1768
epoch: 1000
next table: 2392
cur table: 2385
epoch: 1000
next table: 1771
cur table: 1771
epoch: 1000
next table: 2412
cur table: 2392
epoch: 1000
next table: 1756
cur table: 1771
epoch: 1000
next table: 2416
cur table: 2412
epoch: 1000
next table: 1763
cur table: 1756
epoch: 1000
next table: 2424
cur table: 2416
epoch: 1000
next table: 1771
cur table: 1763
epoch: 1000
next table: 2420
cur table: 2424
epoch: 1000
next table: 1769
cur table: 1771
epoch: 1000
next table: 2387
cur table: 2420
epoch: 1000
next table: 1777
cur table: 1769
epoch: 1000
next table: 2387
cur table: 2387
epoch: 1000
next table: 1752
cur table: 1777
epoch: 1000
next table: 2412
cur table: 2387
epoch: 1000
next table: 1751
cur table: 1752
epoch: 1000
next table: 2430
cur table: 2412
epoch: 1000
next table: 1752
cur table: 1751
epoch: 1000
next table: 2422
cur table: 2430
epoch: 1000
next table: 1760
cur table: 1752
epoch: 1000
next table: 2421
cur table: 2422
epoch: 1000
next table: 1766
cur table: 1760
epoch: 1000
next table: 2403
cur table: 2421
epoch: 1000
next table: 1796
cur table: 1766
epoch: 1000
next table: 2363
cur table: 2403
epoch: 1000
next table: 1780
cur table: 1796
epoch: 1000
next table: 2372
cur table: 2363
Heartbeat CPU 0 instructions: 10000000 cycles: 2732979 heartbeat IPC: 3.65901 cumulative IPC: 3.65901 (Simulation time: 0 hr 6 min 39 sec) 
epoch: 1000
next table: 1788
cur table: 1780
epoch: 1000
next table: 2394
cur table: 2372
epoch: 1000
next table: 1772
cur table: 1788
epoch: 1000
next table: 2402
cur table: 2394
epoch: 1000
next table: 1756
cur table: 1772
epoch: 1000
next table: 2423
cur table: 2402
epoch: 1000
next table: 1755
cur table: 1756
epoch: 1000
next table: 2421
cur table: 2423
epoch: 1000
next table: 1752
cur table: 1755
epoch: 1000
next table: 2443
cur table: 2421
epoch: 1000
next table: 1756
cur table: 1752
epoch: 1000
next table: 2403
cur table: 2443
epoch: 1000
next table: 1768
cur table: 1756
epoch: 1000
next table: 2388
cur table: 2403
epoch: 1000
next table: 1773
cur table: 1768
epoch: 1000
next table: 2392
cur table: 2388
epoch: 1000
next table: 1784
cur table: 1773
epoch: 1000
next table: 2394
cur table: 2392
epoch: 1000
next table: 2363
cur table: 2394
epoch: 1000
next table: 1790
cur table: 1784
epoch: 1000
next table: 2420
cur table: 2363
epoch: 1000
next table: 1777
cur table: 1790
epoch: 1000
next table: 2404
cur table: 2420
epoch: 1000
next table: 1753
cur table: 1777
epoch: 1000
next table: 2377
cur table: 2404
epoch: 1000
next table: 1769
cur table: 1753
epoch: 1000
next table: 2389
cur table: 2377
epoch: 1000
next table: 1773
cur table: 1769
epoch: 1000
next table: 2428
cur table: 2389
epoch: 1000
next table: 1763
cur table: 1773
epoch: 1000
next table: 2391
cur table: 2428
epoch: 1000
next table: 1769
cur table: 1763
epoch: 1000
next table: 2417
cur table: 2391
epoch: 1000
next table: 1775
cur table: 1769
epoch: 1000
next table: 2441
cur table: 2417
epoch: 1000
next table: 1753
cur table: 1775
epoch: 1000
next table: 2403
cur table: 2441
epoch: 1000
next table: 1756
cur table: 1753
epoch: 1000
next table: 2395
cur table: 2403
epoch: 1000
next table: 1769
cur table: 1756
epoch: 1000
next table: 2394
cur table: 2395
epoch: 1000
next table: 1776
cur table: 1769
epoch: 1000
next table: 2409
cur table: 2394
epoch: 1000
next table: 1761
cur table: 1776
epoch: 1000
next table: 2416
cur table: 2409
epoch: 1000
next table: 1753
cur table: 1761
epoch: 1000
next table: 2416
cur table: 2416
epoch: 1000
next table: 1756
cur table: 1753
epoch: 1000
next table: 2424
cur table: 2416
epoch: 1000
next table: 1770
cur table: 1756
epoch: 1000
next table: 2426
cur table: 2424
epoch: 1000
next table: 1748
cur table: 1770
epoch: 1000
next table: 2404
cur table: 2426
epoch: 1000
next table: 1762
cur table: 1748
epoch: 1000
next table: 2399
cur table: 2404
epoch: 1000
next table: 1768
cur table: 1762
epoch: 1000
next table: 2395
cur table: 2399
epoch: 1000
next table: 1769
cur table: 1768
epoch: 1000
next table: 2391
cur table: 2395
epoch: 1000
next table: 1783
cur table: 1769
epoch: 1000
next table: 2383
cur table: 2391
epoch: 1000
next table: 1777
cur table: 1783
epoch: 1000
next table: 2407
cur table: 2383
epoch: 1000
next table: 1772
cur table: 1777
epoch: 1000
next table: 2420
cur table: 2407
epoch: 1000
next table: 1759
cur table: 1772
epoch: 1000
next table: 2399
cur table: 2420
epoch: 1000
next table: 1753
cur table: 1759
epoch: 1000
next table: 2403
cur table: 2399
epoch: 1000
next table: 1759
cur table: 1753
epoch: 1000
next table: 2416
cur table: 2403
epoch: 1000
next table: 1760
cur table: 1759
epoch: 1000
next table: 2416
cur table: 2416
epoch: 1000
next table: 1760
cur table: 1760
epoch: 1000
next table: 2419
cur table: 2416
epoch: 1000
next table: 1771
cur table: 1760
epoch: 1000
next table: 2406
cur table: 2419
epoch: 1000
next table: 1771
cur table: 1771
epoch: 1000
next table: 2420
cur table: 2406
epoch: 1000
next table: 1776
cur table: 1771
epoch: 1000
next table: 2420
cur table: 2420
epoch: 1000
next table: 1757
cur table: 1776
epoch: 1000
next table: 2405
cur table: 2420
epoch: 1000
next table: 1754
cur table: 1757
epoch: 1000
next table: 2410
cur table: 2405
epoch: 1000
next table: 1750
cur table: 1754
epoch: 1000
next table: 2405
cur table: 2410
epoch: 1000
next table: 1761
cur table: 1750
epoch: 1000
next table: 2428
cur table: 2405
epoch: 1000
next table: 1758
cur table: 1761
epoch: 1000
next table: 2421
cur table: 2428
epoch: 1000
next table: 1764
cur table: 1758
epoch: 1000
next table: 2420
cur table: 2421
epoch: 1000
next table: 1756
cur table: 1764
epoch: 1000
next table: 2429
cur table: 2420
epoch: 1000
next table: 1759
cur table: 1756
epoch: 1000
next table: 2418
cur table: 2429
epoch: 1000
next table: 1764
cur table: 1759
epoch: 1000
next table: 2442
cur table: 2418
epoch: 1000
next table: 1762
cur table: 1764
epoch: 1000
next table: 2408
cur table: 2442
epoch: 1000
next table: 1752
cur table: 1762
epoch: 1000
next table: 2406
cur table: 2408
epoch: 1000
next table: 1751
cur table: 1752
epoch: 1000
next table: 2409
cur table: 2406
epoch: 1000
next table: 1752
cur table: 1751
epoch: 1000
next table: 2413
cur table: 2409
epoch: 1000
next table: 1757
cur table: 1752
epoch: 1000
next table: 2429
cur table: 2413
epoch: 1000
next table: 1759
cur table: 1757
epoch: 1000
next table: 2423
cur table: 2429
epoch: 1000
next table: 1760
cur table: 1759
epoch: 1000
next table: 2422
cur table: 2423
epoch: 1000
next table: 1760
cur table: 1760
epoch: 1000
next table: 2418
cur table: 2422
epoch: 1000
next table: 1761
cur table: 1760
epoch: 1000
next table: 2435
cur table: 2418
epoch: 1000
next table: 1764
cur table: 1761
epoch: 1000
next table: 2434
cur table: 2435
epoch: 1000
next table: 1763
cur table: 1764
epoch: 1000
next table: 2414
cur table: 2434
epoch: 1000
next table: 1753
cur table: 1763
epoch: 1000
next table: 2407
cur table: 2414
epoch: 1000
next table: 1750
cur table: 1753
epoch: 1000
next table: 2412
cur table: 2407
epoch: 1000
next table: 1757
cur table: 1750
epoch: 1000
next table: 2415
cur table: 2412
epoch: 1000
next table: 1754
cur table: 1757
epoch: 1000
next table: 2421
cur table: 2415
epoch: 1000
next table: 1763
cur table: 1754
epoch: 1000
next table: 2418
cur table: 2421
epoch: 1000
next table: 1757
cur table: 1763
epoch: 1000
next table: 2426
cur table: 2418
epoch: 1000
next table: 1757
cur table: 1757
epoch: 1000
next table: 2425
cur table: 2426
epoch: 1000
next table: 1764
cur table: 1757
epoch: 1000
next table: 2434
cur table: 2425
epoch: 1000
next table: 1764
cur table: 1764
epoch: 1000
next table: 2416
cur table: 2434
epoch: 1000
next table: 1758
cur table: 1764
epoch: 1000
next table: 2409
cur table: 2416
epoch: 1000
next table: 1751
cur table: 1758
epoch: 1000
next table: 2406
cur table: 2409
epoch: 1000
next table: 1751
cur table: 1751
epoch: 1000
next table: 2425
cur table: 2406
epoch: 1000
next table: 1752
cur table: 1751
epoch: 1000
next table: 2409
cur table: 2425
epoch: 1000
next table: 1760
cur table: 1752
epoch: 1000
next table: 2420
cur table: 2409
epoch: 1000
next table: 1758
cur table: 1760
epoch: 1000
next table: 2427
cur table: 2420
epoch: 1000
next table: 1761
cur table: 1758
epoch: 1000
next table: 2428
cur table: 2427
epoch: 1000
next table: 1758
cur table: 1761
epoch: 1000
next table: 2418
cur table: 2428
epoch: 1000
next table: 1758
cur table: 1758
epoch: 1000
next table: 2435
cur table: 2418
epoch: 1000
next table: 1772
cur table: 1758
epoch: 1000
next table: 2416
cur table: 2435
epoch: 1000
next table: 1750
cur table: 1772
epoch: 1000
next table: 2411
cur table: 2416
epoch: 1000
next table: 1753
cur table: 1750
epoch: 1000
next table: 2407
cur table: 2411
epoch: 1000
next table: 1751
cur table: 1753
epoch: 1000
next table: 2421
cur table: 2407
epoch: 1000
next table: 1755
cur table: 1751
epoch: 1000
next table: 2412
cur table: 2421
epoch: 1000
next table: 1759
cur table: 1755
epoch: 1000
next table: 2427
cur table: 2412
epoch: 1000
next table: 1755
cur table: 1759
epoch: 1000
next table: 2418
cur table: 2427
epoch: 1000
next table: 1761
cur table: 1755
epoch: 1000
next table: 2423
cur table: 2418
epoch: 1000
next table: 1768
cur table: 1761
epoch: 1000
next table: 2409
cur table: 2423
epoch: 1000
next table: 1780
cur table: 1768
epoch: 1000
next table: 2377
cur table: 2409
epoch: 1000
next table: 1788
cur table: 1780
epoch: 1000
next table: 2355
cur table: 2377
epoch: 1000
next table: 1782
cur table: 1788
epoch: 1000
next table: 2414
cur table: 2355
epoch: 1000
next table: 1757
cur table: 1782
epoch: 1000
next table: 2406
cur table: 2414
epoch: 1000
next table: 1762
cur table: 1757
epoch: 1000
next table: 2422
cur table: 2406
epoch: 1000
next table: 1760
cur table: 1762
epoch: 1000
next table: 2412
cur table: 2422
epoch: 1000
next table: 1781
cur table: 1760
epoch: 1000
next table: 2364
cur table: 2412
epoch: 1000
next table: 1792
cur table: 1781
epoch: 1000
next table: 2357
cur table: 2364
epoch: 1000
next table: 1786
cur table: 1792
epoch: 1000
next table: 2343
cur table: 2357
epoch: 1000
next table: 1821
cur table: 1786
epoch: 1000
next table: 2406
cur table: 2343
epoch: 1000
next table: 1777
cur table: 1821
epoch: 1000
next table: 2414
cur table: 2406
epoch: 1000
next table: 1765
cur table: 1777
epoch: 1000
next table: 2398
cur table: 2414
epoch: 1000
next table: 1752
cur table: 1765
epoch: 1000
next table: 2411
cur table: 2398
epoch: 1000
next table: 1753
cur table: 1752
epoch: 1000
next table: 2411
cur table: 2411
epoch: 1000
next table: 1753
cur table: 1753
epoch: 1000
next table: 2431
cur table: 2411
epoch: 1000
next table: 1758
cur table: 1753
epoch: 1000
next table: 2402
cur table: 2431
epoch: 1000
next table: 1775
cur table: 1758
epoch: 1000
next table: 2387
cur table: 2402
epoch: 1000
next table: 1793
cur table: 1775
epoch: 1000
next table: 2411
cur table: 2387
epoch: 1000
next table: 1792
cur table: 1793
epoch: 1000
next table: 2357
cur table: 2411
epoch: 1000
next table: 1770
cur table: 1792
epoch: 1000
next table: 2395
cur table: 2357
epoch: 1000
next table: 1769
cur table: 1770
epoch: 1000
next table: 2417
cur table: 2395
epoch: 1000
next table: 1759
cur table: 1769
epoch: 1000
next table: 2416
cur table: 2417
epoch: 1000
next table: 1753
cur table: 1759
epoch: 1000
next table: 2415
cur table: 2416
epoch: 1000
next table: 1762
cur table: 1753
epoch: 1000
next table: 2403
cur table: 2415
epoch: 1000
next table: 1771
cur table: 1762
epoch: 1000
next table: 2411
cur table: 2403
epoch: 1000
next table: 1773
cur table: 1771
epoch: 1000
next table: 2408
cur table: 2411
epoch: 1000
next table: 1755
cur table: 1773
epoch: 1000
next table: 2412
cur table: 2408
epoch: 1000
next table: 1762
cur table: 1755
epoch: 1000
next table: 2408
cur table: 2412
epoch: 1000
next table: 1760
cur table: 1762
epoch: 1000
next table: 2423
cur table: 2408
epoch: 1000
next table: 1763
cur table: 1760
epoch: 1000
next table: 2410
cur table: 2423
epoch: 1000
next table: 1767
cur table: 1763
epoch: 1000
next table: 2427
cur table: 2410
epoch: 1000
next table: 1752
cur table: 1767
epoch: 1000
next table: 2426
cur table: 2427
epoch: 1000
next table: 1751
cur table: 1752
epoch: 1000
next table: 2423
cur table: 2426
epoch: 1000
next table: 1752
cur table: 1751
epoch: 1000
next table: 2445
cur table: 2423
epoch: 1000
next table: 1756
cur table: 1752
epoch: 1000
next table: 2406
cur table: 2445
epoch: 1000
next table: 1760
cur table: 1756
epoch: 1000
next table: 2412
cur table: 2406
epoch: 1000
next table: 1769
cur table: 1760
epoch: 1000
next table: 2377
cur table: 2412
epoch: 1000
next table: 1758
cur table: 1769
epoch: 1000
next table: 2420
cur table: 2377
epoch: 1000
next table: 1767
cur table: 1758
epoch: 1000
next table: 2424
cur table: 2420
epoch: 1000
next table: 1765
cur table: 1767
epoch: 1000
next table: 2423
cur table: 2424
epoch: 1000
next table: 1772
cur table: 1765
epoch: 1000
next table: 2402
cur table: 2423
epoch: 1000
next table: 1751
cur table: 1772
epoch: 1000
next table: 2436
cur table: 2402
epoch: 1000
next table: 1752
cur table: 1751
epoch: 1000
next table: 2436
cur table: 2436
epoch: 1000
next table: 1755
cur table: 1752
epoch: 1000
next table: 2411
cur table: 2436
epoch: 1000
next table: 1754
cur table: 1755
epoch: 1000
next table: 2407
cur table: 2411
epoch: 1000
next table: 1758
cur table: 1754
epoch: 1000
next table: 2412
cur table: 2407
epoch: 1000
next table: 1764
cur table: 1758
epoch: 1000
next table: 2415
cur table: 2412
epoch: 1000
next table: 1752
cur table: 1764
epoch: 1000
next table: 2419
cur table: 2415
epoch: 1000
next table: 1765
cur table: 1752
epoch: 1000
next table: 2426
cur table: 2419
epoch: 1000
next table: 1759
cur table: 1765
epoch: 1000
next table: 2415
cur table: 2426
epoch: 1000
next table: 1764
cur table: 1759
epoch: 1000
next table: 2431
cur table: 2415
epoch: 1000
next table: 1760
cur table: 1764
epoch: 1000
next table: 2421
cur table: 2431
epoch: 1000
next table: 1768
cur table: 1760
epoch: 1000
next table: 2357
cur table: 2421
epoch: 1000
next table: 1762
cur table: 1768
epoch: 1000
next table: 2390
cur table: 2357
epoch: 1000
next table: 1777
cur table: 1762
epoch: 1000
next table: 2412
cur table: 2390
epoch: 1000
next table: 1764
cur table: 1777
epoch: 1000
next table: 2380
cur table: 2412
epoch: 1000
next table: 1808
cur table: 1764
epoch: 1000
next table: 2380
cur table: 2380
epoch: 1000
next table: 1794
cur table: 1808
epoch: 1000
next table: 2375
cur table: 2380
epoch: 1000
next table: 1771
cur table: 1794
epoch: 1000
next table: 2396
cur table: 2375
epoch: 1000
next table: 1763
cur table: 1771
epoch: 1000
next table: 2409
cur table: 2396
epoch: 1000
next table: 1756
cur table: 1763
epoch: 1000
next table: 2422
cur table: 2409
epoch: 1000
next table: 1766
cur table: 1756
epoch: 1000
next table: 2405
cur table: 2422
epoch: 1000
next table: 1787
cur table: 1766
epoch: 1000
next table: 2373
cur table: 2405
epoch: 1000
next table: 1789
cur table: 1787
epoch: 1000
next table: 2371
cur table: 2373
epoch: 1000
next table: 1784
cur table: 1789
epoch: 1000
next table: 2354
cur table: 2371
epoch: 1000
next table: 1796
cur table: 1784
epoch: 1000
next table: 2380
cur table: 2354
epoch: 1000
next table: 1775
cur table: 1796
epoch: 1000
next table: 2394
cur table: 2380
epoch: 1000
next table: 2423
cur table: 2394
epoch: 1000
next table: 1771
cur table: 1775
epoch: 1000
next table: 2432
cur table: 2423
epoch: 1000
next table: 1765
cur table: 1771
epoch: 1000
next table: 2396
cur table: 2432
epoch: 1000
next table: 1758
cur table: 1765
epoch: 1000
next table: 2388
cur table: 2396
epoch: 1000
next table: 1763
cur table: 1758
epoch: 1000
next table: 2408
cur table: 2388
epoch: 1000
next table: 1753
cur table: 1763
epoch: 1000
next table: 2420
cur table: 2408
epoch: 1000
next table: 1765
cur table: 1753
epoch: 1000
next table: 2415
cur table: 2420
epoch: 1000
next table: 1757
cur table: 1765
epoch: 1000
next table: 2418
cur table: 2415
epoch: 1000
next table: 1760
cur table: 1757
epoch: 1000
next table: 2427
cur table: 2418
epoch: 1000
next table: 1768
cur table: 1760
epoch: 1000
next table: 2402
cur table: 2427
epoch: 1000
next table: 1770
cur table: 1768
epoch: 1000
next table: 2373
cur table: 2402
epoch: 1000
next table: 1789
cur table: 1770
epoch: 1000
next table: 2367
cur table: 2373
epoch: 1000
next table: 1783
cur table: 1789
epoch: 1000
next table: 2449
cur table: 2367
epoch: 1000
next table: 1755
cur table: 1783
epoch: 1000
next table: 2385
cur table: 2449
epoch: 1000
next table: 1756
cur table: 1755
epoch: 1000
next table: 2422
cur table: 2385
epoch: 1000
next table: 1759
cur table: 1756
epoch: 1000
next table: 2422
cur table: 2422
epoch: 1000
next table: 1757
cur table: 1759
epoch: 1000
next table: 2436
cur table: 2422
epoch: 1000
next table: 1768
cur table: 1757
epoch: 1000
next table: 2409
cur table: 2436
epoch: 1000
next table: 1753
cur table: 1768
epoch: 1000
next table: 2407
cur table: 2409
epoch: 1000
next table: 1757
cur table: 1753
epoch: 1000
next table: 2410
cur table: 2407
epoch: 1000
next table: 1762
cur table: 1757
epoch: 1000
next table: 2426
cur table: 2410
epoch: 1000
next table: 1764
cur table: 1762
epoch: 1000
next table: 2411
cur table: 2426
epoch: 1000
next table: 1758
cur table: 1764
epoch: 1000
next table: 2423
cur table: 2411
epoch: 1000
next table: 1751
cur table: 1758
epoch: 1000
next table: 2419
cur table: 2423
epoch: 1000
next table: 1755
cur table: 1751
epoch: 1000
next table: 2430
cur table: 2419
epoch: 1000
next table: 1756
cur table: 1755
epoch: 1000
next table: 2427
cur table: 2430
epoch: 1000
next table: 1755
cur table: 1756
epoch: 1000
next table: 2435
cur table: 2427
epoch: 1000
next table: 1767
cur table: 1755
epoch: 1000
next table: 2409
cur table: 2435
epoch: 1000
next table: 1754
cur table: 1767
epoch: 1000
next table: 2412
cur table: 2409
epoch: 1000
next table: 1756
cur table: 1754
epoch: 1000
next table: 2402
cur table: 2412
epoch: 1000
next table: 1759
cur table: 1756
epoch: 1000
next table: 2401
cur table: 2402
epoch: 1000
next table: 1777
cur table: 1759
epoch: 1000
next table: 2382
cur table: 2401
epoch: 1000
next table: 1813
cur table: 1777
epoch: 1000
next table: 2385
cur table: 2382
epoch: 1000
next table: 1794
cur table: 1813
epoch: 1000
next table: 2328
cur table: 2385
epoch: 1000
next table: 1792
cur table: 1794
epoch: 1000
next table: 2392
cur table: 2328
epoch: 1000
next table: 1782
cur table: 1792
epoch: 1000
next table: 2310
cur table: 2392
epoch: 1000
next table: 1834
cur table: 1782
epoch: 1000
next table: 2334
cur table: 2310
epoch: 1000
next table: 1799
cur table: 1834
epoch: 1000
next table: 2351
cur table: 2334
epoch: 1000
next table: 1801
cur table: 1799
epoch: 1000
next table: 2341
cur table: 2351
epoch: 1000
next table: 1823
cur table: 1801
epoch: 1000
next table: 2348
cur table: 2341
epoch: 1000
next table: 1855
cur table: 1823
epoch: 1000
next table: 2274
cur table: 2348
epoch: 1000
next table: 1896
cur table: 1855
epoch: 1000
next table: 2329
cur table: 2274
epoch: 1000
next table: 1835
cur table: 1896
epoch: 1000
next table: 2301
cur table: 2329
epoch: 1000
next table: 1842
cur table: 1835
epoch: 1000
next table: 2359
cur table: 2301
epoch: 1000
next table: 2356
cur table: 2359
epoch: 1000
next table: 1845
cur table: 1842
epoch: 1000
next table: 2293
cur table: 2356
epoch: 1000
next table: 1893
cur table: 1845
epoch: 1000
next table: 2309
cur table: 2293
epoch: 1000
next table: 1867
cur table: 1893
epoch: 1000
next table: 2364
cur table: 2309
epoch: 1000
next table: 1879
cur table: 1867
epoch: 1000
next table: 2278
cur table: 2364
epoch: 1000
next table: 1867
cur table: 1879
epoch: 1000
next table: 2338
cur table: 2278
epoch: 1000
next table: 1928
cur table: 1867
epoch: 1000
next table: 2334
cur table: 2338
epoch: 1000
next table: 1907
cur table: 1928
epoch: 1000
next table: 2318
cur table: 2334
epoch: 1000
next table: 2338
cur table: 2318
epoch: 1000
next table: 1945
cur table: 1907
epoch: 1000
next table: 2330
cur table: 2338
epoch: 1000
next table: 1950
cur table: 1945
epoch: 1000
next table: 2312
cur table: 2330
epoch: 1000
next table: 1944
cur table: 1950
epoch: 1000
next table: 2353
cur table: 2312
epoch: 1000
next table: 1988
cur table: 1944
epoch: 1000
next table: 2261
cur table: 2353
epoch: 1000
next table: 2337
cur table: 2261
epoch: 1000
next table: 1913
cur table: 1988
epoch: 1000
next table: 2338
cur table: 2337
epoch: 1000
next table: 1962
cur table: 1913
epoch: 1000
next table: 2284
cur table: 2338
epoch: 1000
next table: 1914
cur table: 1962
epoch: 1000
next table: 2365
cur table: 2284
epoch: 1000
next table: 1961
cur table: 1914
epoch: 1000
next table: 2299
cur table: 2365
epoch: 1000
next table: 1951
cur table: 1961
epoch: 1000
next table: 2338
cur table: 2299
epoch: 1000
next table: 2347
cur table: 2338
epoch: 1000
next table: 1956
cur table: 1951
epoch: 1000
next table: 2334
cur table: 2347
epoch: 1000
next table: 1915
cur table: 1956
epoch: 1000
next table: 2311
cur table: 2334
epoch: 1000
next table: 1914
cur table: 1915
Heartbeat CPU 0 instructions: 20000002 cycles: 5468851 heartbeat IPC: 3.65514 cumulative IPC: 3.65708 (Simulation time: 0 hr 12 min 52 sec) 
epoch: 1000
next table: 2360
cur table: 2311
epoch: 1000
next table: 1894
cur table: 1914
epoch: 1000
next table: 2309
cur table: 2360
epoch: 1000
next table: 1886
cur table: 1894
epoch: 1000
next table: 2320
cur table: 2309
epoch: 1000
next table: 2274
cur table: 2320
epoch: 1000
next table: 1957
cur table: 1886
epoch: 1000
next table: 2267
cur table: 2274
epoch: 1000
next table: 1888
cur table: 1957
epoch: 1000
next table: 2315
cur table: 2267
epoch: 1000
next table: 1859
cur table: 1888
epoch: 1000
next table: 2285
cur table: 2315
epoch: 1000
next table: 1830
cur table: 1859
epoch: 1000
next table: 2323
cur table: 2285
epoch: 1000
next table: 1828
cur table: 1830
epoch: 1000
next table: 2302
cur table: 2323
epoch: 1000
next table: 1810
cur table: 1828
epoch: 1000
next table: 2318
cur table: 2302
epoch: 1000
next table: 1851
cur table: 1810
epoch: 1000
next table: 2298
cur table: 2318
epoch: 1000
next table: 1836
cur table: 1851
epoch: 1000
next table: 2331
cur table: 2298
epoch: 1000
next table: 1854
cur table: 1836
epoch: 1000
next table: 2333
cur table: 2331
epoch: 1000
next table: 1827
cur table: 1854
epoch: 1000
next table: 2334
cur table: 2333
epoch: 1000
next table: 1833
cur table: 1827
epoch: 1000
next table: 2329
cur table: 2334
epoch: 1000
next table: 2332
cur table: 2329
epoch: 1000
next table: 1837
cur table: 1833
epoch: 1000
next table: 2279
cur table: 2332
epoch: 1000
next table: 1872
cur table: 1837
epoch: 1000
next table: 2304
cur table: 2279
epoch: 1000
next table: 1830
cur table: 1872
epoch: 1000
next table: 2299
cur table: 2304
epoch: 1000
next table: 1826
cur table: 1830
epoch: 1000
next table: 2274
cur table: 2299
epoch: 1000
next table: 1826
cur table: 1826
epoch: 1000
next table: 2337
cur table: 2274
epoch: 1000
next table: 1816
cur table: 1826
epoch: 1000
next table: 2288
cur table: 2337
epoch: 1000
next table: 1834
cur table: 1816
epoch: 1000
next table: 2323
cur table: 2288
epoch: 1000
next table: 1832
cur table: 1834
epoch: 1000
next table: 2337
cur table: 2323
epoch: 1000
next table: 1788
cur table: 1832
epoch: 1000
next table: 2309
cur table: 2337
epoch: 1000
next table: 1821
cur table: 1788
epoch: 1000
next table: 2331
cur table: 2309
epoch: 1000
next table: 1815
cur table: 1821
epoch: 1000
next table: 2334
cur table: 2331
epoch: 1000
next table: 1780
cur table: 1815
epoch: 1000
next table: 2396
cur table: 2334
epoch: 1000
next table: 1792
cur table: 1780
epoch: 1000
next table: 2408
cur table: 2396
epoch: 1000
next table: 1777
cur table: 1792
epoch: 1000
next table: 2370
cur table: 2408
epoch: 1000
next table: 1813
cur table: 1777
epoch: 1000
next table: 2381
cur table: 2370
epoch: 1000
next table: 1800
cur table: 1813
epoch: 1000
next table: 2346
cur table: 2381
epoch: 1000
next table: 1816
cur table: 1800
epoch: 1000
next table: 2358
cur table: 2346
epoch: 1000
next table: 2303
cur table: 2358
epoch: 1000
next table: 1859
cur table: 1816
epoch: 1000
next table: 2308
cur table: 2303
epoch: 1000
next table: 1803
cur table: 1859
epoch: 1000
next table: 2301
cur table: 2308
epoch: 1000
next table: 1840
cur table: 1803
epoch: 1000
next table: 2236
cur table: 2301
epoch: 1000
next table: 1892
cur table: 1840
epoch: 1000
next table: 2317
cur table: 2236
epoch: 1000
next table: 1834
cur table: 1892
epoch: 1000
next table: 2316
cur table: 2317
epoch: 1000
next table: 1845
cur table: 1834
epoch: 1000
next table: 2290
cur table: 2316
epoch: 1000
next table: 1852
cur table: 1845
epoch: 1000
next table: 2304
cur table: 2290
epoch: 1000
next table: 1873
cur table: 1852
epoch: 1000
next table: 2281
cur table: 2304
epoch: 1000
next table: 1847
cur table: 1873
epoch: 1000
next table: 2339
cur table: 2281
epoch: 1000
next table: 1815
cur table: 1847
epoch: 1000
next table: 2275
cur table: 2339
epoch: 1000
next table: 1840
cur table: 1815
epoch: 1000
next table: 2342
cur table: 2275
epoch: 1000
next table: 1825
cur table: 1840
epoch: 1000
next table: 2361
cur table: 2342
epoch: 1000
next table: 1781
cur table: 1825
epoch: 1000
next table: 2394
cur table: 2361
epoch: 1000
next table: 2340
cur table: 2394
epoch: 1000
next table: 1796
cur table: 1781
epoch: 1000
next table: 2395
cur table: 2340
epoch: 1000
next table: 1798
cur table: 1796
epoch: 1000
next table: 2393
cur table: 2395
epoch: 1000
next table: 1817
cur table: 1798
epoch: 1000
next table: 2353
cur table: 2393
epoch: 1000
next table: 1845
cur table: 1817
epoch: 1000
next table: 2271
cur table: 2353
epoch: 1000
next table: 1852
cur table: 1845
epoch: 1000
next table: 2329
cur table: 2271
epoch: 1000
next table: 1833
cur table: 1852
epoch: 1000
next table: 2280
cur table: 2329
epoch: 1000
next table: 1836
cur table: 1833
epoch: 1000
next table: 2343
cur table: 2280
epoch: 1000
next table: 1829
cur table: 1836
epoch: 1000
next table: 2396
cur table: 2343
epoch: 1000
next table: 1806
cur table: 1829
epoch: 1000
next table: 2301
cur table: 2396
epoch: 1000
next table: 1838
cur table: 1806
epoch: 1000
next table: 2318
cur table: 2301
epoch: 1000
next table: 1816
cur table: 1838
epoch: 1000
next table: 2350
cur table: 2318
epoch: 1000
next table: 1817
cur table: 1816
epoch: 1000
next table: 2267
cur table: 2350
epoch: 1000
next table: 1824
cur table: 1817
epoch: 1000
next table: 2336
cur table: 2267
epoch: 1000
next table: 1848
cur table: 1824
epoch: 1000
next table: 2249
cur table: 2336
epoch: 1000
next table: 1822
cur table: 1848
epoch: 1000
next table: 2335
cur table: 2249
epoch: 1000
next table: 2321
cur table: 2335
epoch: 1000
next table: 1848
cur table: 1822
epoch: 1000
next table: 2303
cur table: 2321
epoch: 1000
next table: 1846
cur table: 1848
epoch: 1000
next table: 2330
cur table: 2303
epoch: 1000
next table: 1840
cur table: 1846
epoch: 1000
next table: 2267
cur table: 2330
epoch: 1000
next table: 1823
cur table: 1840
epoch: 1000
next table: 2323
cur table: 2267
epoch: 1000
next table: 1810
cur table: 1823
epoch: 1000
next table: 2389
cur table: 2323
epoch: 1000
next table: 1781
cur table: 1810
epoch: 1000
next table: 2343
cur table: 2389
epoch: 1000
next table: 1833
cur table: 1781
epoch: 1000
next table: 2309
cur table: 2343
epoch: 1000
next table: 1825
cur table: 1833
epoch: 1000
next table: 2353
cur table: 2309
epoch: 1000
next table: 1845
cur table: 1825
epoch: 1000
next table: 2272
cur table: 2353
epoch: 1000
next table: 1845
cur table: 1845
epoch: 1000
next table: 2331
cur table: 2272
epoch: 1000
next table: 1853
cur table: 1845
epoch: 1000
next table: 2216
cur table: 2331
epoch: 1000
next table: 1886
cur table: 1853
epoch: 1000
next table: 2287
cur table: 2216
epoch: 1000
next table: 2265
cur table: 2287
epoch: 1000
next table: 1852
cur table: 1886
epoch: 1000
next table: 2308
cur table: 2265
epoch: 1000
next table: 1871
cur table: 1852
epoch: 1000
next table: 2267
cur table: 2308
epoch: 1000
next table: 1856
cur table: 1871
epoch: 1000
next table: 2301
cur table: 2267
epoch: 1000
next table: 1880
cur table: 1856
epoch: 1000
next table: 2274
cur table: 2301
epoch: 1000
next table: 1837
cur table: 1880
epoch: 1000
next table: 2343
cur table: 2274
epoch: 1000
next table: 1859
cur table: 1837
epoch: 1000
next table: 2242
cur table: 2343
epoch: 1000
next table: 1899
cur table: 1859
epoch: 1000
next table: 2254
cur table: 2242
epoch: 1000
next table: 1879
cur table: 1899
epoch: 1000
next table: 2240
cur table: 2254
epoch: 1000
next table: 1874
cur table: 1879
epoch: 1000
next table: 2286
cur table: 2240
epoch: 1000
next table: 1844
cur table: 1874
epoch: 1000
next table: 2266
cur table: 2286
epoch: 1000
next table: 2331
cur table: 2266
epoch: 1000
next table: 1821
cur table: 1844
epoch: 1000
next table: 2316
cur table: 2331
epoch: 1000
next table: 1838
cur table: 1821
epoch: 1000
next table: 2299
cur table: 2316
epoch: 1000
next table: 1835
cur table: 1838
epoch: 1000
next table: 2317
cur table: 2299
epoch: 1000
next table: 1816
cur table: 1835
epoch: 1000
next table: 2261
cur table: 2317
epoch: 1000
next table: 1863
cur table: 1816
epoch: 1000
next table: 2313
cur table: 2261
epoch: 1000
next table: 1814
cur table: 1863
epoch: 1000
next table: 2295
cur table: 2313
epoch: 1000
next table: 1851
cur table: 1814
epoch: 1000
next table: 2297
cur table: 2295
epoch: 1000
next table: 1837
cur table: 1851
epoch: 1000
next table: 2359
cur table: 2297
epoch: 1000
next table: 1825
cur table: 1837
epoch: 1000
next table: 2265
cur table: 2359
epoch: 1000
next table: 1856
cur table: 1825
epoch: 1000
next table: 2341
cur table: 2265
epoch: 1000
next table: 1822
cur table: 1856
epoch: 1000
next table: 2318
cur table: 2341
epoch: 1000
next table: 1788
cur table: 1822
epoch: 1000
next table: 2359
cur table: 2318
epoch: 1000
next table: 1779
cur table: 1788
epoch: 1000
next table: 2388
cur table: 2359
epoch: 1000
next table: 1793
cur table: 1779
epoch: 1000
next table: 2391
cur table: 2388
epoch: 1000
next table: 1842
cur table: 1793
epoch: 1000
next table: 2277
cur table: 2391
epoch: 1000
next table: 2312
cur table: 2277
epoch: 1000
next table: 1849
cur table: 1842
epoch: 1000
next table: 2244
cur table: 2312
epoch: 1000
next table: 1872
cur table: 1849
epoch: 1000
next table: 2321
cur table: 2244
epoch: 1000
next table: 1846
cur table: 1872
epoch: 1000
next table: 2284
cur table: 2321
epoch: 1000
next table: 1869
cur table: 1846
epoch: 1000
next table: 2301
cur table: 2284
epoch: 1000
next table: 1854
cur table: 1869
epoch: 1000
next table: 2295
cur table: 2301
epoch: 1000
next table: 1828
cur table: 1854
epoch: 1000
next table: 2308
cur table: 2295
epoch: 1000
next table: 1831
cur table: 1828
epoch: 1000
next table: 2318
cur table: 2308
epoch: 1000
next table: 1834
cur table: 1831
epoch: 1000
next table: 2300
cur table: 2318
epoch: 1000
next table: 1833
cur table: 1834
epoch: 1000
next table: 2315
cur table: 2300
epoch: 1000
next table: 1823
cur table: 1833
epoch: 1000
next table: 2364
cur table: 2315
epoch: 1000
next table: 1833
cur table: 1823
epoch: 1000
next table: 2299
cur table: 2364
epoch: 1000
next table: 1827
cur table: 1833
epoch: 1000
next table: 2320
cur table: 2299
epoch: 1000
next table: 2268
cur table: 2320
epoch: 1000
next table: 1864
cur table: 1827
epoch: 1000
next table: 2287
cur table: 2268
epoch: 1000
next table: 1839
cur table: 1864
epoch: 1000
next table: 2303
cur table: 2287
epoch: 1000
next table: 1826
cur table: 1839
epoch: 1000
next table: 2298
cur table: 2303
epoch: 1000
next table: 1833
cur table: 1826
epoch: 1000
next table: 2326
cur table: 2298
epoch: 1000
next table: 1845
cur table: 1833
epoch: 1000
next table: 2306
cur table: 2326
epoch: 1000
next table: 1823
cur table: 1845
epoch: 1000
next table: 2282
cur table: 2306
epoch: 1000
next table: 1851
cur table: 1823
epoch: 1000
next table: 2285
cur table: 2282
epoch: 1000
next table: 1857
cur table: 1851
epoch: 1000
next table: 2253
cur table: 2285
epoch: 1000
next table: 1830
cur table: 1857
epoch: 1000
next table: 2288
cur table: 2253
epoch: 1000
next table: 1856
cur table: 1830
epoch: 1000
next table: 2297
cur table: 2288
epoch: 1000
next table: 1852
cur table: 1856
epoch: 1000
next table: 2275
cur table: 2297
epoch: 1000
next table: 1837
cur table: 1852
epoch: 1000
next table: 2283
cur table: 2275
epoch: 1000
next table: 2294
cur table: 2283
epoch: 1000
next table: 1867
cur table: 1837
epoch: 1000
next table: 2306
cur table: 2294
epoch: 1000
next table: 1838
cur table: 1867
epoch: 1000
next table: 2348
cur table: 2306
epoch: 1000
next table: 1817
cur table: 1838
epoch: 1000
next table: 2278
cur table: 2348
epoch: 1000
next table: 1823
cur table: 1817
epoch: 1000
next table: 2316
cur table: 2278
epoch: 1000
next table: 1834
cur table: 1823
epoch: 1000
next table: 2324
cur table: 2316
epoch: 1000
next table: 1828
cur table: 1834
epoch: 1000
next table: 2303
cur table: 2324
epoch: 1000
next table: 1849
cur table: 1828
epoch: 1000
next table: 2343
cur table: 2303
epoch: 1000
next table: 1843
cur table: 1849
epoch: 1000
next table: 2264
cur table: 2343
epoch: 1000
next table: 1809
cur table: 1843
epoch: 1000
next table: 2326
cur table: 2264
epoch: 1000
next table: 1834
cur table: 1809
epoch: 1000
next table: 2295
cur table: 2326
epoch: 1000
next table: 1842
cur table: 1834
epoch: 1000
next table: 2310
cur table: 2295
epoch: 1000
next table: 1840
cur table: 1842
epoch: 1000
next table: 2313
cur table: 2310
epoch: 1000
next table: 1849
cur table: 1840
epoch: 1000
next table: 2248
cur table: 2313
epoch: 1000
next table: 2311
cur table: 2248
epoch: 1000
next table: 1852
cur table: 1849
epoch: 1000
next table: 2301
cur table: 2311
epoch: 1000
next table: 1843
cur table: 1852
epoch: 1000
next table: 2328
cur table: 2301
epoch: 1000
next table: 1855
cur table: 1843
epoch: 1000
next table: 2317
cur table: 2328
epoch: 1000
next table: 1850
cur table: 1855
epoch: 1000
next table: 2283
cur table: 2317
epoch: 1000
next table: 1867
cur table: 1850
epoch: 1000
next table: 2238
cur table: 2283
epoch: 1000
next table: 1844
cur table: 1867
epoch: 1000
next table: 2324
cur table: 2238
epoch: 1000
next table: 1815
cur table: 1844
epoch: 1000
next table: 2369
cur table: 2324
epoch: 1000
next table: 1815
cur table: 1815
epoch: 1000
next table: 2387
cur table: 2369
epoch: 1000
next table: 1800
cur table: 1815
epoch: 1000
next table: 2368
cur table: 2387
epoch: 1000
next table: 1784
cur table: 1800
epoch: 1000
next table: 2360
cur table: 2368
epoch: 1000
next table: 1805
cur table: 1784
epoch: 1000
next table: 2380
cur table: 2360
epoch: 1000
next table: 1836
cur table: 1805
epoch: 1000
next table: 2304
cur table: 2380
epoch: 1000
next table: 1831
cur table: 1836
epoch: 1000
next table: 2315
cur table: 2304
epoch: 1000
next table: 2310
cur table: 2315
epoch: 1000
next table: 1862
cur table: 1831
epoch: 1000
next table: 2283
cur table: 2310
epoch: 1000
next table: 1853
cur table: 1862
epoch: 1000
next table: 2312
cur table: 2283
epoch: 1000
next table: 1845
cur table: 1853
epoch: 1000
next table: 2260
cur table: 2312
epoch: 1000
next table: 1847
cur table: 1845
epoch: 1000
next table: 2296
cur table: 2260
epoch: 1000
next table: 1861
cur table: 1847
epoch: 1000
next table: 2250
cur table: 2296
epoch: 1000
next table: 1857
cur table: 1861
epoch: 1000
next table: 2307
cur table: 2250
epoch: 1000
next table: 1845
cur table: 1857
epoch: 1000
next table: 2294
cur table: 2307
epoch: 1000
next table: 1845
cur table: 1845
epoch: 1000
next table: 2295
cur table: 2294
epoch: 1000
next table: 1850
cur table: 1845
epoch: 1000
next table: 2322
cur table: 2295
epoch: 1000
next table: 1845
cur table: 1850
epoch: 1000
next table: 2278
cur table: 2322
epoch: 1000
next table: 1809
cur table: 1845
epoch: 1000
next table: 2344
cur table: 2278
epoch: 1000
next table: 1766
cur table: 1809
epoch: 1000
next table: 2412
cur table: 2344
epoch: 1000
next table: 1806
cur table: 1766
epoch: 1000
next table: 2335
cur table: 2412
epoch: 1000
next table: 2320
cur table: 2335
epoch: 1000
next table: 1841
cur table: 1806
epoch: 1000
next table: 2325
cur table: 2320
epoch: 1000
next table: 1828
cur table: 1841
epoch: 1000
next table: 2371
cur table: 2325
epoch: 1000
next table: 1778
cur table: 1828
epoch: 1000
next table: 2341
cur table: 2371
epoch: 1000
next table: 1833
cur table: 1778
epoch: 1000
next table: 2349
cur table: 2341
epoch: 1000
next table: 1834
cur table: 1833
epoch: 1000
next table: 2283
cur table: 2349
epoch: 1000
next table: 1825
cur table: 1834
epoch: 1000
next table: 2278
cur table: 2283
epoch: 1000
next table: 1876
cur table: 1825
epoch: 1000
next table: 2244
cur table: 2278
epoch: 1000
next table: 1854
cur table: 1876
epoch: 1000
next table: 2300
cur table: 2244
epoch: 1000
next table: 1881
cur table: 1854
epoch: 1000
next table: 2210
cur table: 2300
epoch: 1000
next table: 1846
cur table: 1881
epoch: 1000
next table: 2328
cur table: 2210
epoch: 1000
next table: 1847
cur table: 1846
epoch: 1000
next table: 2293
cur table: 2328
epoch: 1000
next table: 1842
cur table: 1847
epoch: 1000
next table: 2313
cur table: 2293
epoch: 1000
next table: 1815
cur table: 1842
epoch: 1000
next table: 2331
cur table: 2313
epoch: 1000
next table: 2308
cur table: 2331
epoch: 1000
next table: 1834
cur table: 1815
epoch: 1000
next table: 2334
cur table: 2308
epoch: 1000
next table: 1816
cur table: 1834
epoch: 1000
next table: 2299
cur table: 2334
epoch: 1000
next table: 1851
cur table: 1816
epoch: 1000
next table: 2259
cur table: 2299
epoch: 1000
next table: 1849
cur table: 1851
epoch: 1000
next table: 2299
cur table: 2259
epoch: 1000
next table: 1839
cur table: 1849
epoch: 1000
next table: 2335
cur table: 2299
epoch: 1000
next table: 1846
cur table: 1839
epoch: 1000
next table: 2311
cur table: 2335
epoch: 1000
next table: 1812
cur table: 1846
epoch: 1000
next table: 2327
cur table: 2311
epoch: 1000
next table: 1817
cur table: 1812
epoch: 1000
next table: 2325
cur table: 2327
epoch: 1000
next table: 1811
cur table: 1817
epoch: 1000
next table: 2367
cur table: 2325
epoch: 1000
next table: 1820
cur table: 1811
epoch: 1000
next table: 2281
cur table: 2367
epoch: 1000
next table: 1810
cur table: 1820
epoch: 1000
next table: 2361
cur table: 2281
epoch: 1000
next table: 1836
cur table: 1810
epoch: 1000
next table: 2306
cur table: 2361
epoch: 1000
next table: 1851
cur table: 1836
epoch: 1000
next table: 2296
cur table: 2306
epoch: 1000
next table: 1819
cur table: 1851
epoch: 1000
next table: 2345
cur table: 2296
epoch: 1000
next table: 2373
cur table: 2345
epoch: 1000
next table: 1795
cur table: 1819
epoch: 1000
next table: 2278
cur table: 2373
epoch: 1000
next table: 1833
cur table: 1795
epoch: 1000
next table: 2302
cur table: 2278
epoch: 1000
next table: 1836
cur table: 1833
epoch: 1000
next table: 2300
cur table: 2302
epoch: 1000
next table: 1836
cur table: 1836
epoch: 1000
next table: 2305
cur table: 2300
epoch: 1000
next table: 1841
cur table: 1836
epoch: 1000
next table: 2301
cur table: 2305
epoch: 1000
next table: 1832
cur table: 1841
epoch: 1000
next table: 2301
cur table: 2301
epoch: 1000
next table: 1844
cur table: 1832
epoch: 1000
next table: 2343
cur table: 2301
epoch: 1000
next table: 1818
cur table: 1844
epoch: 1000
next table: 2312
cur table: 2343
epoch: 1000
next table: 1791
cur table: 1818
epoch: 1000
next table: 2372
cur table: 2312
epoch: 1000
next table: 1776
cur table: 1791
epoch: 1000
next table: 2401
cur table: 2372
epoch: 1000
next table: 1799
cur table: 1776
epoch: 1000
next table: 2394
cur table: 2401
epoch: 1000
next table: 1774
cur table: 1799
epoch: 1000
next table: 2390
cur table: 2394
epoch: 1000
next table: 1799
cur table: 1774
epoch: 1000
next table: 2321
cur table: 2390
epoch: 1000
next table: 1847
cur table: 1799
epoch: 1000
next table: 2316
cur table: 2321
epoch: 1000
next table: 1885
cur table: 1847
epoch: 1000
next table: 2249
cur table: 2316
epoch: 1000
next table: 1843
cur table: 1885
epoch: 1000
next table: 2326
cur table: 2249
epoch: 1000
next table: 2308
cur table: 2326
epoch: 1000
next table: 1851
cur table: 1843
epoch: 1000
next table: 2335
cur table: 2308
epoch: 1000
next table: 1827
cur table: 1851
epoch: 1000
next table: 2334
cur table: 2335
epoch: 1000
next table: 1833
cur table: 1827
epoch: 1000
next table: 2285
cur table: 2334
epoch: 1000
next table: 1820
cur table: 1833
epoch: 1000
next table: 2330
cur table: 2285
epoch: 1000
next table: 1830
cur table: 1820
epoch: 1000
next table: 2356
cur table: 2330
epoch: 1000
next table: 1819
cur table: 1830
epoch: 1000
next table: 2308
cur table: 2356
epoch: 1000
next table: 1844
cur table: 1819
epoch: 1000
next table: 2318
cur table: 2308
epoch: 1000
next table: 1824
cur table: 1844
epoch: 1000
next table: 2372
cur table: 2318
epoch: 1000
next table: 1828
cur table: 1824
epoch: 1000
next table: 2293
cur table: 2372
epoch: 1000
next table: 1833
cur table: 1828
epoch: 1000
next table: 2349
cur table: 2293
epoch: 1000
next table: 1828
cur table: 1833
epoch: 1000
next table: 2347
cur table: 2349
epoch: 1000
next table: 1826
cur table: 1828
epoch: 1000
next table: 2309
cur table: 2347
epoch: 1000
next table: 1823
cur table: 1826
epoch: 1000
next table: 2334
cur table: 2309
epoch: 1000
next table: 1778
cur table: 1823
epoch: 1000
next table: 2411
cur table: 2334
Heartbeat CPU 0 instructions: 30000000 cycles: 8201884 heartbeat IPC: 3.65894 cumulative IPC: 3.6577 (Simulation time: 0 hr 18 min 19 sec) 
epoch: 1000
next table: 1773
cur table: 1778
epoch: 1000
next table: 2356
cur table: 2411
epoch: 1000
next table: 2347
cur table: 2356
epoch: 1000
next table: 1801
cur table: 1773
epoch: 1000
next table: 2326
cur table: 2347
epoch: 1000
next table: 1857
cur table: 1801
epoch: 1000
next table: 2231
cur table: 2326
epoch: 1000
next table: 1840
cur table: 1857
epoch: 1000
next table: 2320
cur table: 2231
epoch: 1000
next table: 1841
cur table: 1840
epoch: 1000
next table: 2335
cur table: 2320
epoch: 1000
next table: 1792
cur table: 1841
epoch: 1000
next table: 2305
cur table: 2335
epoch: 1000
next table: 1847
cur table: 1792
epoch: 1000
next table: 2295
cur table: 2305
epoch: 1000
next table: 1857
cur table: 1847
epoch: 1000
next table: 2278
cur table: 2295
epoch: 1000
next table: 1846
cur table: 1857
epoch: 1000
next table: 2315
cur table: 2278
epoch: 1000
next table: 1869
cur table: 1846
epoch: 1000
next table: 2242
cur table: 2315
epoch: 1000
next table: 1862
cur table: 1869
epoch: 1000
next table: 2321
cur table: 2242
epoch: 1000
next table: 1853
cur table: 1862
epoch: 1000
next table: 2258
cur table: 2321
epoch: 1000
next table: 1876
cur table: 1853
epoch: 1000
next table: 2294
cur table: 2258
epoch: 1000
next table: 2237
cur table: 2294
epoch: 1000
next table: 1865
cur table: 1876
epoch: 1000
next table: 2335
cur table: 2237
epoch: 1000
next table: 1833
cur table: 1865
epoch: 1000
next table: 2275
cur table: 2335
epoch: 1000
next table: 1842
cur table: 1833
epoch: 1000
next table: 2297
cur table: 2275
epoch: 1000
next table: 1848
cur table: 1842
epoch: 1000
next table: 2329
cur table: 2297
epoch: 1000
next table: 1828
cur table: 1848
epoch: 1000
next table: 2275
cur table: 2329
epoch: 1000
next table: 1866
cur table: 1828
epoch: 1000
next table: 2306
cur table: 2275
epoch: 1000
next table: 1841
cur table: 1866
epoch: 1000
next table: 2272
cur table: 2306
epoch: 1000
next table: 1857
cur table: 1841
epoch: 1000
next table: 2343
cur table: 2272
epoch: 1000
next table: 1824
cur table: 1857
epoch: 1000
next table: 2291
cur table: 2343
epoch: 1000
next table: 1845
cur table: 1824
epoch: 1000
next table: 2320
cur table: 2291
epoch: 1000
next table: 1826
cur table: 1845
epoch: 1000
next table: 2309
cur table: 2320
epoch: 1000
next table: 2280
cur table: 2309
epoch: 1000
next table: 1842
cur table: 1826
epoch: 1000
next table: 2352
cur table: 2280
epoch: 1000
next table: 1813
cur table: 1842
epoch: 1000
next table: 2315
cur table: 2352
epoch: 1000
next table: 1831
cur table: 1813
epoch: 1000
next table: 2361
cur table: 2315
epoch: 1000
next table: 1795
cur table: 1831
epoch: 1000
next table: 2392
cur table: 2361
epoch: 1000
next table: 1789
cur table: 1795
epoch: 1000
next table: 2378
cur table: 2392
epoch: 1000
next table: 1799
cur table: 1789
epoch: 1000
next table: 2323
cur table: 2378
epoch: 1000
next table: 1791
cur table: 1799
epoch: 1000
next table: 2366
cur table: 2323
epoch: 1000
next table: 1779
cur table: 1791
epoch: 1000
next table: 2365
cur table: 2366
epoch: 1000
next table: 1793
cur table: 1779
epoch: 1000
next table: 2405
cur table: 2365
epoch: 1000
next table: 1770
cur table: 1793
epoch: 1000
next table: 2372
cur table: 2405
epoch: 1000
next table: 1782
cur table: 1770
epoch: 1000
next table: 2361
cur table: 2372
epoch: 1000
next table: 1797
cur table: 1782
epoch: 1000
next table: 2368
cur table: 2361
epoch: 1000
next table: 1801
cur table: 1797
epoch: 1000
next table: 2393
cur table: 2368
epoch: 1000
next table: 1781
cur table: 1801
epoch: 1000
next table: 2249
cur table: 2393
epoch: 1000
next table: 1866
cur table: 1781
epoch: 1000
next table: 2285
cur table: 2249
epoch: 1000
next table: 1857
cur table: 1866
epoch: 1000
next table: 2275
cur table: 2285
epoch: 1000
next table: 1827
cur table: 1857
epoch: 1000
next table: 2317
cur table: 2275
epoch: 1000
next table: 1848
cur table: 1827
epoch: 1000
next table: 2281
cur table: 2317
epoch: 1000
next table: 1878
cur table: 1848
epoch: 1000
next table: 2263
cur table: 2281
epoch: 1000
next table: 2296
cur table: 2263
epoch: 1000
next table: 1849
cur table: 1878
epoch: 1000
next table: 2333
cur table: 2296
epoch: 1000
next table: 1802
cur table: 1849
epoch: 1000
next table: 2320
cur table: 2333
epoch: 1000
next table: 1846
cur table: 1802
epoch: 1000
next table: 2283
cur table: 2320
epoch: 1000
next table: 1830
cur table: 1846
epoch: 1000
next table: 2319
cur table: 2283
epoch: 1000
next table: 1860
cur table: 1830
epoch: 1000
next table: 2279
cur table: 2319
epoch: 1000
next table: 1855
cur table: 1860
epoch: 1000
next table: 2260
cur table: 2279
epoch: 1000
next table: 1876
cur table: 1855
epoch: 1000
next table: 2259
cur table: 2260
epoch: 1000
next table: 1836
cur table: 1876
epoch: 1000
next table: 2320
cur table: 2259
epoch: 1000
next table: 1828
cur table: 1836
epoch: 1000
next table: 2262
cur table: 2320
epoch: 1000
next table: 1822
cur table: 1828
epoch: 1000
next table: 2333
cur table: 2262
epoch: 1000
next table: 1809
cur table: 1822
epoch: 1000
next table: 2362
cur table: 2333
epoch: 1000
next table: 1826
cur table: 1809
epoch: 1000
next table: 2273
cur table: 2362
epoch: 1000
next table: 1869
cur table: 1826
epoch: 1000
next table: 2286
cur table: 2273
epoch: 1000
next table: 2265
cur table: 2286
epoch: 1000
next table: 1844
cur table: 1869
epoch: 1000
next table: 2270
cur table: 2265
epoch: 1000
next table: 1863
cur table: 1844
epoch: 1000
next table: 2260
cur table: 2270
epoch: 1000
next table: 1838
cur table: 1863
epoch: 1000
next table: 2361
cur table: 2260
epoch: 1000
next table: 1799
cur table: 1838
epoch: 1000
next table: 2377
cur table: 2361
epoch: 1000
next table: 1825
cur table: 1799
epoch: 1000
next table: 2250
cur table: 2377
epoch: 1000
next table: 1853
cur table: 1825
epoch: 1000
next table: 2335
cur table: 2250
epoch: 1000
next table: 1834
cur table: 1853
epoch: 1000
next table: 2297
cur table: 2335
epoch: 1000
next table: 1837
cur table: 1834
epoch: 1000
next table: 2317
cur table: 2297
epoch: 1000
next table: 1811
cur table: 1837
epoch: 1000
next table: 2322
cur table: 2317
epoch: 1000
next table: 1848
cur table: 1811
epoch: 1000
next table: 2293
cur table: 2322
epoch: 1000
next table: 1825
cur table: 1848
epoch: 1000
next table: 2320
cur table: 2293
epoch: 1000
next table: 1883
cur table: 1825
epoch: 1000
next table: 2261
cur table: 2320
epoch: 1000
next table: 1828
cur table: 1883
epoch: 1000
next table: 2339
cur table: 2261
epoch: 1000
next table: 2313
cur table: 2339
epoch: 1000
next table: 1842
cur table: 1828
epoch: 1000
next table: 2318
cur table: 2313
epoch: 1000
next table: 1829
cur table: 1842
epoch: 1000
next table: 2348
cur table: 2318
epoch: 1000
next table: 1826
cur table: 1829
epoch: 1000
next table: 2299
cur table: 2348
epoch: 1000
next table: 1808
cur table: 1826
epoch: 1000
next table: 2329
cur table: 2299
epoch: 1000
next table: 1826
cur table: 1808
epoch: 1000
next table: 2339
cur table: 2329
epoch: 1000
next table: 1818
cur table: 1826
epoch: 1000
next table: 2317
cur table: 2339
epoch: 1000
next table: 1832
cur table: 1818
epoch: 1000
next table: 2311
cur table: 2317
epoch: 1000
next table: 1834
cur table: 1832
epoch: 1000
next table: 2369
cur table: 2311
epoch: 1000
next table: 1834
cur table: 1834
epoch: 1000
next table: 2266
cur table: 2369
epoch: 1000
next table: 1830
cur table: 1834
epoch: 1000
next table: 2337
cur table: 2266
epoch: 1000
next table: 1866
cur table: 1830
epoch: 1000
next table: 2285
cur table: 2337
epoch: 1000
next table: 1862
cur table: 1866
epoch: 1000
next table: 2283
cur table: 2285
epoch: 1000
next table: 1841
cur table: 1862
epoch: 1000
next table: 2302
cur table: 2283
epoch: 1000
next table: 2268
cur table: 2302
epoch: 1000
next table: 1853
cur table: 1841
epoch: 1000
next table: 2332
cur table: 2268
epoch: 1000
next table: 1842
cur table: 1853
epoch: 1000
next table: 2301
cur table: 2332
epoch: 1000
next table: 1824
cur table: 1842
epoch: 1000
next table: 2337
cur table: 2301
epoch: 1000
next table: 1836
cur table: 1824
epoch: 1000
next table: 2328
cur table: 2337
epoch: 1000
next table: 1824
cur table: 1836
epoch: 1000
next table: 2304
cur table: 2328
epoch: 1000
next table: 1849
cur table: 1824
epoch: 1000
next table: 2336
cur table: 2304
epoch: 1000
next table: 1838
cur table: 1849
epoch: 1000
next table: 2309
cur table: 2336
epoch: 1000
next table: 1813
cur table: 1838
epoch: 1000
next table: 2321
cur table: 2309
epoch: 1000
next table: 1806
cur table: 1813
epoch: 1000
next table: 2347
cur table: 2321
epoch: 1000
next table: 1846
cur table: 1806
epoch: 1000
next table: 2292
cur table: 2347
epoch: 1000
next table: 1812
cur table: 1846
epoch: 1000
next table: 2338
cur table: 2292
epoch: 1000
next table: 1805
cur table: 1812
epoch: 1000
next table: 2397
cur table: 2338
epoch: 1000
next table: 1793
cur table: 1805
epoch: 1000
next table: 2321
cur table: 2397
epoch: 1000
next table: 1840
cur table: 1793
epoch: 1000
next table: 2314
cur table: 2321
epoch: 1000
next table: 2365
cur table: 2314
epoch: 1000
next table: 1827
cur table: 1840
epoch: 1000
next table: 2284
cur table: 2365
epoch: 1000
next table: 1838
cur table: 1827
epoch: 1000
next table: 2333
cur table: 2284
epoch: 1000
next table: 1815
cur table: 1838
epoch: 1000
next table: 2332
cur table: 2333
epoch: 1000
next table: 1834
cur table: 1815
epoch: 1000
next table: 2321
cur table: 2332
epoch: 1000
next table: 1808
cur table: 1834
epoch: 1000
next table: 2307
cur table: 2321
epoch: 1000
next table: 1870
cur table: 1808
epoch: 1000
next table: 2325
cur table: 2307
epoch: 1000
next table: 1802
cur table: 1870
epoch: 1000
next table: 2324
cur table: 2325
epoch: 1000
next table: 1867
cur table: 1802
epoch: 1000
next table: 2289
cur table: 2324
epoch: 1000
next table: 1828
cur table: 1867
epoch: 1000
next table: 2297
cur table: 2289
epoch: 1000
next table: 1882
cur table: 1828
epoch: 1000
next table: 2301
cur table: 2297
epoch: 1000
next table: 1832
cur table: 1882
epoch: 1000
next table: 2266
cur table: 2301
epoch: 1000
next table: 1828
cur table: 1832
epoch: 1000
next table: 2311
cur table: 2266
epoch: 1000
next table: 1799
cur table: 1828
epoch: 1000
next table: 2357
cur table: 2311
epoch: 1000
next table: 2307
cur table: 2357
epoch: 1000
next table: 1835
cur table: 1799
epoch: 1000
next table: 2323
cur table: 2307
epoch: 1000
next table: 1827
cur table: 1835
epoch: 1000
next table: 2271
cur table: 2323
epoch: 1000
next table: 1844
cur table: 1827
epoch: 1000
next table: 2316
cur table: 2271
epoch: 1000
next table: 1854
cur table: 1844
epoch: 1000
next table: 2281
cur table: 2316
epoch: 1000
next table: 1858
cur table: 1854
epoch: 1000
next table: 2267
cur table: 2281
epoch: 1000
next table: 1822
cur table: 1858
epoch: 1000
next table: 2364
cur table: 2267
epoch: 1000
next table: 1794
cur table: 1822
epoch: 1000
next table: 2341
cur table: 2364
epoch: 1000
next table: 1824
cur table: 1794
epoch: 1000
next table: 2330
cur table: 2341
epoch: 1000
next table: 1820
cur table: 1824
epoch: 1000
next table: 2324
cur table: 2330
epoch: 1000
next table: 1863
cur table: 1820
epoch: 1000
next table: 2257
cur table: 2324
epoch: 1000
next table: 1827
cur table: 1863
epoch: 1000
next table: 2341
cur table: 2257
epoch: 1000
next table: 1861
cur table: 1827
epoch: 1000
next table: 2247
cur table: 2341
epoch: 1000
next table: 1857
cur table: 1861
epoch: 1000
next table: 2312
cur table: 2247
epoch: 1000
next table: 2260
cur table: 2312
epoch: 1000
next table: 1857
cur table: 1857
epoch: 1000
next table: 2298
cur table: 2260
epoch: 1000
next table: 1842
cur table: 1857
epoch: 1000
next table: 2272
cur table: 2298
epoch: 1000
next table: 1869
cur table: 1842
epoch: 1000
next table: 2282
cur table: 2272
epoch: 1000
next table: 1863
cur table: 1869
epoch: 1000
next table: 2298
cur table: 2282
epoch: 1000
next table: 1825
cur table: 1863
epoch: 1000
next table: 2318
cur table: 2298
epoch: 1000
next table: 1851
cur table: 1825
epoch: 1000
next table: 2328
cur table: 2318
epoch: 1000
next table: 1833
cur table: 1851
epoch: 1000
next table: 2310
cur table: 2328
epoch: 1000
next table: 1814
cur table: 1833
epoch: 1000
next table: 2352
cur table: 2310
epoch: 1000
next table: 1763
cur table: 1814
epoch: 1000
next table: 2410
cur table: 2352
epoch: 1000
next table: 1776
cur table: 1763
epoch: 1000
next table: 2370
cur table: 2410
epoch: 1000
next table: 1795
cur table: 1776
epoch: 1000
next table: 2360
cur table: 2370
epoch: 1000
next table: 1781
cur table: 1795
epoch: 1000
next table: 2399
cur table: 2360
epoch: 1000
next table: 1802
cur table: 1781
epoch: 1000
next table: 2348
cur table: 2399
epoch: 1000
next table: 1813
cur table: 1802
epoch: 1000
next table: 2349
cur table: 2348
epoch: 1000
next table: 1852
cur table: 1813
epoch: 1000
next table: 2277
cur table: 2349
epoch: 1000
next table: 1838
cur table: 1852
epoch: 1000
next table: 2327
cur table: 2277
epoch: 1000
next table: 2265
cur table: 2327
epoch: 1000
next table: 1848
cur table: 1838
epoch: 1000
next table: 2315
cur table: 2265
epoch: 1000
next table: 1822
cur table: 1848
epoch: 1000
next table: 2254
cur table: 2315
epoch: 1000
next table: 1874
cur table: 1822
epoch: 1000
next table: 2298
cur table: 2254
epoch: 1000
next table: 1861
cur table: 1874
epoch: 1000
next table: 2276
cur table: 2298
epoch: 1000
next table: 1839
cur table: 1861
epoch: 1000
next table: 2293
cur table: 2276
epoch: 1000
next table: 1849
cur table: 1839
epoch: 1000
next table: 2329
cur table: 2293
epoch: 1000
next table: 1835
cur table: 1849
epoch: 1000
next table: 2290
cur table: 2329
epoch: 1000
next table: 1862
cur table: 1835
epoch: 1000
next table: 2296
cur table: 2290
epoch: 1000
next table: 1835
cur table: 1862
epoch: 1000
next table: 2282
cur table: 2296
epoch: 1000
next table: 1850
cur table: 1835
epoch: 1000
next table: 2313
cur table: 2282
epoch: 1000
next table: 1825
cur table: 1850
epoch: 1000
next table: 2295
cur table: 2313
epoch: 1000
next table: 2288
cur table: 2295
epoch: 1000
next table: 1859
cur table: 1825
epoch: 1000
next table: 2327
cur table: 2288
epoch: 1000
next table: 1841
cur table: 1859
epoch: 1000
next table: 2274
cur table: 2327
epoch: 1000
next table: 1860
cur table: 1841
epoch: 1000
next table: 2334
cur table: 2274
epoch: 1000
next table: 1837
cur table: 1860
epoch: 1000
next table: 2277
cur table: 2334
epoch: 1000
next table: 1867
cur table: 1837
epoch: 1000
next table: 2308
cur table: 2277
epoch: 1000
next table: 1824
cur table: 1867
epoch: 1000
next table: 2283
cur table: 2308
epoch: 1000
next table: 1836
cur table: 1824
epoch: 1000
next table: 2362
cur table: 2283
epoch: 1000
next table: 1779
cur table: 1836
epoch: 1000
next table: 2386
cur table: 2362
epoch: 1000
next table: 1769
cur table: 1779
epoch: 1000
next table: 2437
cur table: 2386
epoch: 1000
next table: 1763
cur table: 1769
epoch: 1000
next table: 2402
cur table: 2437
epoch: 1000
next table: 1761
cur table: 1763
epoch: 1000
next table: 2398
cur table: 2402
epoch: 1000
next table: 1778
cur table: 1761
epoch: 1000
next table: 2390
cur table: 2398
epoch: 1000
next table: 1771
cur table: 1778
epoch: 1000
next table: 2409
cur table: 2390
epoch: 1000
next table: 1800
cur table: 1771
epoch: 1000
next table: 2330
cur table: 2409
epoch: 1000
next table: 1832
cur table: 1800
epoch: 1000
next table: 2326
cur table: 2330
epoch: 1000
next table: 1786
cur table: 1832
epoch: 1000
next table: 2365
cur table: 2326
epoch: 1000
next table: 1772
cur table: 1786
epoch: 1000
next table: 2409
cur table: 2365
epoch: 1000
next table: 1773
cur table: 1772
epoch: 1000
next table: 2403
cur table: 2409
epoch: 1000
next table: 1770
cur table: 1773
epoch: 1000
next table: 2413
cur table: 2403
epoch: 1000
next table: 1772
cur table: 1770
epoch: 1000
next table: 2399
cur table: 2413
epoch: 1000
next table: 1798
cur table: 1772
epoch: 1000
next table: 2353
cur table: 2399
epoch: 1000
next table: 1787
cur table: 1798
epoch: 1000
next table: 2380
cur table: 2353
epoch: 1000
next table: 1806
cur table: 1787
epoch: 1000
next table: 2349
cur table: 2380
epoch: 1000
next table: 2373
cur table: 2349
epoch: 1000
next table: 1816
cur table: 1806
epoch: 1000
next table: 2303
cur table: 2373
epoch: 1000
next table: 1810
cur table: 1816
epoch: 1000
next table: 2383
cur table: 2303
epoch: 1000
next table: 1797
cur table: 1810
epoch: 1000
next table: 2375
cur table: 2383
epoch: 1000
next table: 1793
cur table: 1797
epoch: 1000
next table: 2324
cur table: 2375
epoch: 1000
next table: 1800
cur table: 1793
epoch: 1000
next table: 2373
cur table: 2324
epoch: 1000
next table: 1777
cur table: 1800
epoch: 1000
next table: 2387
cur table: 2373
epoch: 1000
next table: 1787
cur table: 1777
epoch: 1000
next table: 2384
cur table: 2387
epoch: 1000
next table: 1788
cur table: 1787
epoch: 1000
next table: 2346
cur table: 2384
epoch: 1000
next table: 1799
cur table: 1788
epoch: 1000
next table: 2367
cur table: 2346
epoch: 1000
next table: 1783
cur table: 1799
epoch: 1000
next table: 2399
cur table: 2367
epoch: 1000
next table: 1761
cur table: 1783
epoch: 1000
next table: 2378
cur table: 2399
epoch: 1000
next table: 1797
cur table: 1761
epoch: 1000
next table: 2388
cur table: 2378
epoch: 1000
next table: 1780
cur table: 1797
epoch: 1000
next table: 2363
cur table: 2388
epoch: 1000
next table: 1793
cur table: 1780
epoch: 1000
next table: 2384
cur table: 2363
epoch: 1000
next table: 1790
cur table: 1793
epoch: 1000
next table: 2392
cur table: 2384
epoch: 1000
next table: 1776
cur table: 1790
epoch: 1000
next table: 2369
cur table: 2392
epoch: 1000
next table: 1805
cur table: 1776
epoch: 1000
next table: 2378
cur table: 2369
epoch: 1000
next table: 1807
cur table: 1805
epoch: 1000
next table: 2349
cur table: 2378
epoch: 1000
next table: 1796
cur table: 1807
epoch: 1000
next table: 2338
cur table: 2349
epoch: 1000
next table: 1836
cur table: 1796
epoch: 1000
next table: 2292
cur table: 2338
epoch: 1000
next table: 1891
cur table: 1836
epoch: 1000
next table: 2225
cur table: 2292
epoch: 1000
next table: 1855
cur table: 1891
epoch: 1000
next table: 2279
cur table: 2225
epoch: 1000
next table: 2269
cur table: 2279
epoch: 1000
next table: 1866
cur table: 1855
epoch: 1000
next table: 2266
cur table: 2269
epoch: 1000
next table: 1860
cur table: 1866
epoch: 1000
next table: 2343
cur table: 2266
epoch: 1000
next table: 1832
cur table: 1860
epoch: 1000
next table: 2361
cur table: 2343
epoch: 1000
next table: 1807
cur table: 1832
epoch: 1000
next table: 2335
cur table: 2361
epoch: 1000
next table: 1804
cur table: 1807
epoch: 1000
next table: 2265
cur table: 2335
epoch: 1000
next table: 1867
cur table: 1804
epoch: 1000
next table: 2209
cur table: 2265
epoch: 1000
next table: 1903
cur table: 1867
epoch: 1000
next table: 2277
cur table: 2209
epoch: 1000
next table: 1842
cur table: 1903
epoch: 1000
next table: 2249
cur table: 2277
epoch: 1000
next table: 1869
cur table: 1842
epoch: 1000
next table: 2322
cur table: 2249
epoch: 1000
next table: 1812
cur table: 1869
epoch: 1000
next table: 2332
cur table: 2322
epoch: 1000
next table: 1774
cur table: 1812
epoch: 1000
next table: 2375
cur table: 2332
epoch: 1000
next table: 1783
cur table: 1774
epoch: 1000
next table: 2380
cur table: 2375
epoch: 1000
next table: 1777
cur table: 1783
epoch: 1000
next table: 2403
cur table: 2380
epoch: 1000
next table: 1772
cur table: 1777
epoch: 1000
next table: 2415
cur table: 2403
epoch: 1000
next table: 1784
cur table: 1772
epoch: 1000
next table: 2367
cur table: 2415
epoch: 1000
next table: 1796
cur table: 1784
epoch: 1000
next table: 2356
cur table: 2367
epoch: 1000
next table: 1813
cur table: 1796
epoch: 1000
next table: 2338
cur table: 2356
epoch: 1000
next table: 2303
cur table: 2338
epoch: 1000
next table: 1865
cur table: 1813
epoch: 1000
next table: 2258
cur table: 2303
epoch: 1000
next table: 1857
cur table: 1865
epoch: 1000
next table: 2309
cur table: 2258
epoch: 1000
next table: 1818
cur table: 1857
epoch: 1000
next table: 2291
cur table: 2309
epoch: 1000
next table: 1857
cur table: 1818
epoch: 1000
next table: 2252
cur table: 2291
epoch: 1000
next table: 1858
cur table: 1857
epoch: 1000
next table: 2241
cur table: 2252
epoch: 1000
next table: 1879
cur table: 1858
epoch: 1000
next table: 2286
cur table: 2241
epoch: 1000
next table: 1863
cur table: 1879
epoch: 1000
next table: 2301
cur table: 2286
epoch: 1000
next table: 1841
cur table: 1863
epoch: 1000
next table: 2250
cur table: 2301
Heartbeat CPU 0 instructions: 40000001 cycles: 10937725 heartbeat IPC: 3.65518 cumulative IPC: 3.65707 (Simulation time: 0 hr 23 min 5 sec) 
epoch: 1000
next table: 1843
cur table: 1841
epoch: 1000
next table: 2306
cur table: 2250
epoch: 1000
next table: 1843
cur table: 1843
epoch: 1000
next table: 2299
cur table: 2306
epoch: 1000
next table: 1854
cur table: 1843
epoch: 1000
next table: 2282
cur table: 2299
epoch: 1000
next table: 2307
cur table: 2282
epoch: 1000
next table: 1852
cur table: 1854
epoch: 1000
next table: 2267
cur table: 2307
epoch: 1000
next table: 1840
cur table: 1852
epoch: 1000
next table: 2310
cur table: 2267
epoch: 1000
next table: 1854
cur table: 1840
epoch: 1000
next table: 2220
cur table: 2310
epoch: 1000
next table: 1883
cur table: 1854
epoch: 1000
next table: 2327
cur table: 2220
epoch: 1000
next table: 1844
cur table: 1883
epoch: 1000
next table: 2214
cur table: 2327
epoch: 1000
next table: 1867
cur table: 1844
epoch: 1000
next table: 2281
cur table: 2214
epoch: 1000
next table: 1850
cur table: 1867
epoch: 1000
next table: 2280
cur table: 2281
epoch: 1000
next table: 1854
cur table: 1850
epoch: 1000
next table: 2318
cur table: 2280
[...]
next table: 1799
cur table: 1818
epoch: 1000
next table: 2339
cur table: 2282
epoch: 1000
next table: 1817
cur table: 1799
epoch: 1000
next table: 2376
cur table: 2339
epoch: 1000
next table: 1800
cur table: 1817
epoch: 1000
next table: 2333
cur table: 2376
epoch: 1000
next table: 1808
cur table: 1800
epoch: 1000
next table: 2351
cur table: 2333
epoch: 1000
next table: 1800
cur table: 1808
epoch: 1000
next table: 2350
cur table: 2351
epoch: 1000
next table: 1836
cur table: 1800
epoch: 1000
next table: 2333
cur table: 2350
epoch: 1000
next table: 2376
cur table: 2333
epoch: 1000
next table: 1810
cur table: 1836
epoch: 1000
next table: 2324
cur table: 2376
epoch: 1000
next table: 1855
cur table: 1810
epoch: 1000
next table: 2248
cur table: 2324
epoch: 1000
next table: 1869
cur table: 1855
epoch: 1000
next table: 2256
cur table: 2248
epoch: 1000
next table: 1877
cur table: 1869
epoch: 1000
next table: 2225
cur table: 2256
epoch: 1000
next table: 1850
cur table: 1877
epoch: 1000
next table: 2337
cur table: 2225
epoch: 1000
next table: 1835
cur table: 1850
epoch: 1000
next table: 2342
cur table: 2337
epoch: 1000
next table: 1866
cur table: 1835
epoch: 1000
next table: 2289
cur table: 2342
epoch: 1000
next table: 1842
cur table: 1866
epoch: 1000
next table: 2323
cur table: 2289
epoch: 1000
next table: 1860
cur table: 1842
epoch: 1000
next table: 2281
cur table: 2323
epoch: 1000
next table: 1821
cur table: 1860
epoch: 1000
next table: 2367
cur table: 2281
epoch: 1000
next table: 2365
cur table: 2367
epoch: 1000
next table: 1819
cur table: 1821
epoch: 1000
next table: 2336
cur table: 2365
epoch: 1000
next table: 1785
cur table: 1819
epoch: 1000
next table: 2389
cur table: 2336
epoch: 1000
next table: 1765
cur table: 1785
epoch: 1000
next table: 2389
cur table: 2389
epoch: 1000
next table: 1782
cur table: 1765
epoch: 1000
next table: 2379
cur table: 2389
epoch: 1000
next table: 1793
cur table: 1782
epoch: 1000
next table: 2398
cur table: 2379
epoch: 1000
next table: 1810
cur table: 1793
epoch: 1000
next table: 2374
cur table: 2398
epoch: 1000
next table: 1835
cur table: 1810
epoch: 1000
next table: 2396
cur table: 2374
epoch: 1000
next table: 1858
cur table: 1835
epoch: 1000
next table: 2367
cur table: 2396
epoch: 1000
next table: 1903
cur table: 1858
epoch: 1000
next table: 2395
cur table: 2367
epoch: 1000
next table: 1814
cur table: 1903
epoch: 1000
next table: 2333
cur table: 2395
epoch: 1000
next table: 1844
cur table: 1814
epoch: 1000
next table: 2341
cur table: 2333
Heartbeat CPU 0 instructions: 100000000 cycles: 64043771 heartbeat IPC: 0.999193 cumulative IPC: 0.992652 (Simulation time: 0 hr 56 min 21 sec) 
Finished CPU 0 instructions: 50000000 cycles: 50370123 cumulative IPC: 0.992652 (Simulation time: 0 hr 56 min 21 sec) 

ChampSim completed all CPUs

Region of Interest Statistics

CPU 0 cumulative IPC: 0.992652 instructions: 50000000 cycles: 50370123
ITLB TOTAL     ACCESS:    6466799  HIT:    6466799  MISS:          0  HIT %:        100  MISS %:          0   MPKI: 0
ITLB LOAD TRANSLATION ACCESS:    6466799  HIT:    6466799  MISS:          0  HIT %:        100  MISS %:          0   MPKI: 0
ITLB PREFETCH  REQUESTED:          0  ISSUED:          0  USEFUL:          0  USELESS:          0
ITLB USEFUL LOAD PREFETCHES:          0 PREFETCH ISSUED TO LOWER LEVEL:          0  ACCURACY: -nan
ITLB TIMELY PREFETCHES:          0 LATE PREFETCHES: 0 DROPPED PREFETCHES: 0
ITLB PREFETCHES SAME FILL-ORIGIN LEVEL: 0 DIFFERENT FILL-ORIGIN LEVEL: 0
ITLB AVERAGE MISS LATENCY: -nan cycles
ITLB RQ	ACCESS:    8480363	FORWARD:          0	MERGED:    2013564	TO_CACHE:    6466799

Revised Interactions: positive negative neutral
ITLB_interactions 0 0 0 -nan -nan -nan
DTLB TOTAL     ACCESS:    9120273  HIT:    9089270  MISS:      31003  HIT %:    99.6601  MISS %:   0.339935   MPKI: 0.62006
DTLB LOAD TRANSLATION ACCESS:    9120273  HIT:    9089270  MISS:      31003  HIT %:    99.6601  MISS %:   0.339935   MPKI: 0.62006
DTLB PREFETCH  REQUESTED:          0  ISSUED:          0  USEFUL:          0  USELESS:          0
DTLB USEFUL LOAD PREFETCHES:          0 PREFETCH ISSUED TO LOWER LEVEL:          0  ACCURACY: -nan
DTLB TIMELY PREFETCHES:          0 LATE PREFETCHES: 0 DROPPED PREFETCHES: 0
DTLB PREFETCHES SAME FILL-ORIGIN LEVEL: 0 DIFFERENT FILL-ORIGIN LEVEL: 0
DTLB AVERAGE MISS LATENCY: 102.374 cycles
DTLB RQ	ACCESS:   13465992	FORWARD:          0	MERGED:    4341204	TO_CACHE:    9124788

Revised Interactions: positive negative neutral
DTLB_interactions 0 0 0 -nan -nan -nan
STLB TOTAL     ACCESS:     231848  HIT:     215028  MISS:      16820  HIT %:    92.7452  MISS %:    7.25475   MPKI: 0.3364
STLB LOAD TRANSLATION ACCESS:      31003  HIT:      14183  MISS:      16820  HIT %:    45.7472  MISS %:    54.2528   MPKI: 0.3364
STLB TRANSLATION FROM L1D PREFETCHER ACCESS:     200845  HIT:     200845  MISS:          0  HIT %:        100  MISS %:          0   MPKI: 0
STLB PREFETCH  REQUESTED:          0  ISSUED:          0  USEFUL:          0  USELESS:          0
STLB USEFUL LOAD PREFETCHES:          0 PREFETCH ISSUED TO LOWER LEVEL:          0  ACCURACY: -nan
STLB TIMELY PREFETCHES:          0 LATE PREFETCHES: 0 DROPPED PREFETCHES: 0
STLB PREFETCHES SAME FILL-ORIGIN LEVEL: 0 DIFFERENT FILL-ORIGIN LEVEL: 0
STLB AVERAGE MISS LATENCY: 170.846 cycles
STLB RQ	ACCESS:     308883	FORWARD:          0	MERGED:      77035	TO_CACHE:     231848

Revised Interactions: positive negative neutral
STLB_interactions 0 0 0 -nan -nan -nan
STLB Hit, L1D data hit: 0
STLB Hit, L2C data hit: 0
STLB Hit, LLC data hit: 0
STLB Hit, LLC data miss: 0
STLB STLB hints to L2: 0
L1D TOTAL     ACCESS:   13723824  HIT:   11948042  MISS:    1775782  HIT %:    87.0606  MISS %:    12.9394   MPKI: 35.5156
L1D LOAD      ACCESS:    6220116  HIT:    6211199  MISS:       8917  HIT %:    99.8566  MISS %:   0.143357   MPKI: 0.17834
L1D RFO       ACCESS:    7229790  HIT:    5723070  MISS:    1506720  HIT %:    79.1596  MISS %:    20.8404   MPKI: 30.1344
L1D PREFETCH  ACCESS:     273918  HIT:      13773  MISS:     260145  HIT %:    5.02815  MISS %:    94.9719   MPKI: 5.2029
L1D PREFETCH  REQUESTED:     555910  ISSUED:     555760  USEFUL:     259667  USELESS:        477
L1D USEFUL LOAD PREFETCHES:     259667 PREFETCH ISSUED TO LOWER LEVEL:     260145  ACCURACY: 99.8163
L1D TIMELY PREFETCHES:     259667 LATE PREFETCHES: 4143 DROPPED PREFETCHES: 0
L1D PREFETCHES SAME FILL-ORIGIN LEVEL: 260145 DIFFERENT FILL-ORIGIN LEVEL: 0
L1D AVERAGE MISS LATENCY: 269.336 cycles
L1D RQ	ACCESS:   11506000	FORWARD:          0	MERGED:    4706878	TO_CACHE:    6228298
L1D WQ	ACCESS:    7438276	FORWARD:     570824	MERGED:     200582	TO_CACHE:    7237694
L1D PQ	ACCESS:     277880	FORWARD:          0	MERGED:          0	TO_CACHE:     277880

Revised Interactions: positive negative neutral
L1D_interactions 0 0 0 -nan -nan -nan
L1D UNIQUE REGIONS ACCESSED: 0
L1D REGIONS CONFLICTS: 0
L1D Cross Page Prefetch Requests: 0
L1D Same Page Prefetch Requests: 564878
L1D ROI Sum of L1D PQ occupancy: 19674759
L1D PREFETCHES PUSHED FROM L2C: 0
L1I TOTAL     ACCESS:    8480362  HIT:    8480362  MISS:          0  HIT %:        100  MISS %:          0   MPKI: 0
L1I LOAD      ACCESS:    8480362  HIT:    8480362  MISS:          0  HIT %:        100  MISS %:          0   MPKI: 0
L1I PREFETCH  REQUESTED:          0  ISSUED:          0  USEFUL:          0  USELESS:          0
L1I USEFUL LOAD PREFETCHES:          0 PREFETCH ISSUED TO LOWER LEVEL:          0  ACCURACY: -nan
L1I TIMELY PREFETCHES:          0 LATE PREFETCHES: 0 DROPPED PREFETCHES: 0
L1I PREFETCHES SAME FILL-ORIGIN LEVEL: 0 DIFFERENT FILL-ORIGIN LEVEL: 0
L1I AVERAGE MISS LATENCY: -nan cycles
L1I RQ	ACCESS:   11878755	FORWARD:          0	MERGED:    3398392	TO_CACHE:    8480363

Revised Interactions: positive negative neutral
L1I_interactions 0 0 0 -nan -nan -nan
BTB TOTAL     ACCESS:     534175  HIT:     534169  MISS:          6  HIT %:    99.9989  MISS %: 0.00112323   MPKI: 0.00012
BTB BRANCH_DIRECT_JUMP	ACCESS:       1868  HIT:       1867  MISS:          1
BTB BRANCH_INDIRECT	ACCESS:          0  HIT:          0  MISS:          0
BTB BRANCH_CONDITIONAL	ACCESS:     532307  HIT:     532302  MISS:          5
BTB BRANCH_DIRECT_CALL	ACCESS:          0  HIT:          0  MISS:          0
BTB BRANCH_INDIRECT_CALL	ACCESS:          0  HIT:          0  MISS:          0
BTB BRANCH_RETURN	ACCESS:          0  HIT:          0  MISS:          0
BTB BRANCH_OTHER ACCESS:          0  HIT:          0  MISS:          0

L2C TOTAL     ACCESS:    3667090  HIT:    2146336  MISS:    1520754  HIT %:    58.5297  MISS %:    41.4703   MPKI: 30.4151
L2C LOAD      ACCESS:       8917  HIT:        717  MISS:       8200  HIT %:    8.04082  MISS %:    91.9592   MPKI: 0.164
L2C DATA LOAD MPKI: 0.164
L2C INSTRUCTION LOAD MPKI: 0
L2C RFO       ACCESS:    1506721  HIT:     640677  MISS:     866044  HIT %:    42.5213  MISS %:    57.4787   MPKI: 17.3209
L2C PREFETCH  ACCESS:     627911  HIT:     365323  MISS:     262588  HIT %:    58.1807  MISS %:    41.8193   MPKI: 5.25176
L2C DATA PREFETCH MPKI: 5.25176
L2C INSTRUCTION PREFETCH MPKI: 0
L2C WRITEBACK ACCESS:    1506721  HIT:    1125918  MISS:     380803  HIT %:    74.7264  MISS %:    25.2736   MPKI: 7.61606
L2C LOAD TRANSLATION ACCESS:      16820  HIT:      13701  MISS:       3119  HIT %:    81.4566  MISS %:    18.5434   MPKI: 0.06238
L2C PREFETCH  REQUESTED:     518885  ISSUED:     518883  USEFUL:        717  USELESS:     261983
L2C USEFUL LOAD PREFETCHES:        717 PREFETCH ISSUED TO LOWER LEVEL:     262663  ACCURACY: 0.272973
L2C TIMELY PREFETCHES:        717 LATE PREFETCHES: 75 DROPPED PREFETCHES: 0
L2C PREFETCHES SAME FILL-ORIGIN LEVEL: 178676 DIFFERENT FILL-ORIGIN LEVEL: 0
L2C AVERAGE MISS LATENCY: 354.873 cycles
L2C RQ	ACCESS:    1532461	FORWARD:          0	MERGED:          0	TO_CACHE:    1532461
L2C WQ	ACCESS:    1506721	FORWARD:          0	MERGED:          0	TO_CACHE:    1506721
L2C PQ	ACCESS:     779028	FORWARD:          0	MERGED:     120354	TO_CACHE:     658674

Revised Interactions: positive negative neutral
L2C_interactions 1375 261440 120381 0.358824 68.2262 31.415
L2C Instructions Evicting Data 0
L2C Translations Evicting Data 3110
L2C Data Evicting Data 1134608
L2C Instructions Evicting Instructions 0
L2C Translations Evicting Instructions 0
L2C Data Evicting Instructions 0
L2C Instructions Evicting Translations 0
L2C Translations Evicting Translations 9
L2C Data Evicting Translations 2224
L2C Dense regions hint from L2: 0
PSCL5 TOTAL     ACCESS:      16820  HIT:      16820  MISS:          0  HIT %:        100  MISS %:          0   MPKI: 0
PSCL5 LOAD TRANSLATION ACCESS:      16820  HIT:      16820  MISS:          0  HIT %:        100  MISS %:          0   MPKI: 0
PSCL5 PREFETCH  REQUESTED:          0  ISSUED:          0  USEFUL:          0  USELESS:          0
PSCL5 USEFUL LOAD PREFETCHES:          0 PREFETCH ISSUED TO LOWER LEVEL:          0  ACCURACY: -nan
PSCL5 TIMELY PREFETCHES:          0 LATE PREFETCHES: 0 DROPPED PREFETCHES: 0
PSCL5 PREFETCHES SAME FILL-ORIGIN LEVEL: 0 DIFFERENT FILL-ORIGIN LEVEL: 0

Revised Interactions: positive negative neutral
PSCL5_interactions 0 0 0 -nan -nan -nan
PSCL4 TOTAL     ACCESS:      16820  HIT:      16820  MISS:          0  HIT %:        100  MISS %:          0   MPKI: 0
PSCL4 LOAD TRANSLATION ACCESS:      16820  HIT:      16820  MISS:          0  HIT %:        100  MISS %:          0   MPKI: 0
PSCL4 PREFETCH  REQUESTED:          0  ISSUED:          0  USEFUL:          0  USELESS:          0
PSCL4 USEFUL LOAD PREFETCHES:          0 PREFETCH ISSUED TO LOWER LEVEL:          0  ACCURACY: -nan
PSCL4 TIMELY PREFETCHES:          0 LATE PREFETCHES: 0 DROPPED PREFETCHES: 0
PSCL4 PREFETCHES SAME FILL-ORIGIN LEVEL: 0 DIFFERENT FILL-ORIGIN LEVEL: 0

Revised Interactions: positive negative neutral
PSCL4_interactions 0 0 0 -nan -nan -nan
PSCL3 TOTAL     ACCESS:      16820  HIT:      16819  MISS:          1  HIT %:    99.9941  MISS %:  0.0059453   MPKI: 2e-05
PSCL3 LOAD TRANSLATION ACCESS:      16820  HIT:      16819  MISS:          1  HIT %:    99.9941  MISS %:  0.0059453   MPKI: 2e-05
PSCL3 PREFETCH  REQUESTED:          0  ISSUED:          0  USEFUL:          0  USELESS:          0
PSCL3 USEFUL LOAD PREFETCHES:          0 PREFETCH ISSUED TO LOWER LEVEL:          0  ACCURACY: -nan
PSCL3 TIMELY PREFETCHES:          0 LATE PREFETCHES: 0 DROPPED PREFETCHES: 0
PSCL3 PREFETCHES SAME FILL-ORIGIN LEVEL: 0 DIFFERENT FILL-ORIGIN LEVEL: 0

Revised Interactions: positive negative neutral
PSCL3_interactions 0 0 0 -nan -nan -nan
PSCL2 TOTAL     ACCESS:      16820  HIT:      16803  MISS:         17  HIT %:    99.8989  MISS %:    0.10107   MPKI: 0.00034
PSCL2 LOAD TRANSLATION ACCESS:      16820  HIT:      16803  MISS:         17  HIT %:    99.8989  MISS %:    0.10107   MPKI: 0.00034
PSCL2 PREFETCH  REQUESTED:          0  ISSUED:          0  USEFUL:          0  USELESS:          0
PSCL2 USEFUL LOAD PREFETCHES:          0 PREFETCH ISSUED TO LOWER LEVEL:          0  ACCURACY: -nan
PSCL2 TIMELY PREFETCHES:          0 LATE PREFETCHES: 0 DROPPED PREFETCHES: 0
PSCL2 PREFETCHES SAME FILL-ORIGIN LEVEL: 0 DIFFERENT FILL-ORIGIN LEVEL: 0

Revised Interactions: positive negative neutral
PSCL2_interactions 0 0 0 -nan -nan -nan
LLC TOTAL     ACCESS:    2005578  HIT:     200589  MISS:    1804989  HIT %:    10.0016  MISS %:    89.9984   MPKI: 36.0998
LLC LOAD      ACCESS:       8125  HIT:          1  MISS:       8124  HIT %:  0.0123077  MISS %:    99.9877   MPKI: 0.16248
LLC RFO       ACCESS:     865956  HIT:      67002  MISS:     798954  HIT %:    7.73734  MISS %:    92.2627   MPKI: 15.9791
LLC PREFETCH  ACCESS:     262663  HIT:       1065  MISS:     261598  HIT %:   0.405463  MISS %:    99.5945   MPKI: 5.23196
LLC WRITEBACK ACCESS:     865715  HIT:     131678  MISS:     734037  HIT %:    15.2103  MISS %:    84.7897   MPKI: 14.6807
LLC LOAD TRANSLATION ACCESS:       3119  HIT:        843  MISS:       2276  HIT %:    27.0279  MISS %:    72.9721   MPKI: 0.04552
LLC PREFETCH  REQUESTED:          0  ISSUED:          0  USEFUL:          1  USELESS:     261131
LLC USEFUL LOAD PREFETCHES:          1 PREFETCH ISSUED TO LOWER LEVEL:     261598  ACCURACY: 0.000382266
LLC TIMELY PREFETCHES:          1 LATE PREFETCHES: 0 DROPPED PREFETCHES: 0
LLC PREFETCHES SAME FILL-ORIGIN LEVEL: 0 DIFFERENT FILL-ORIGIN LEVEL: 0
LLC AVERAGE MISS LATENCY: 279.747 cycles
LLC RQ	ACCESS:     877291	FORWARD:          0	MERGED:          0	TO_CACHE:     877203
LLC WQ	ACCESS:     865715	FORWARD:         88	MERGED:          0	TO_CACHE:     865715
LLC PQ	ACCESS:     262663	FORWARD:          0	MERGED:          0	TO_CACHE:     262663

Revised Interactions: positive negative neutral
LLC_interactions 155 261106 87237 0.0444766 74.9232 25.0323
LLC Dense regions hint to LLC: 0

RAW hits: 164288
Loads Generated: 11670289
Loads sent to L1D: 11506000
Stores Generated: 7438269
Stores sent to L1D: 7438276
Major fault: 0 Minor fault: 20044
Allocated PAGES: 20044

stream: 
stream:times selected: 3252133
stream:pref_filled: 67545
stream:pref_useful: 67294
stream:pref_late: 1051
stream:misses: 14751
stream:misses_by_poll: 0

CS: 
CS:times selected: 507970
CS:pref_filled: 301266
CS:pref_useful: 301152
CS:pref_late: 244
CS:misses: 1532
CS:misses_by_poll: 370

CPLX: 
CPLX:times selected: 2743494
CPLX:pref_filled: 153798
CPLX:pref_useful: 153621
CPLX:pref_late: 569
CPLX:misses: 9425
CPLX:misses_by_poll: 320

NL_L1: 
NL:times selected: 1193
NL:pref_filled: 60
NL:pref_useful: 60
NL:pref_late: 5
NL:misses: 25
NL:misses_by_poll: 0

total selections: 6504790
total_filled: 260145
total_useful: 259667
total_late: 1869
total_polluted: 690
total_misses_after_warmup: 17100
conflicts: 59211
Degree Incremented Times: 149923
Degree Decremented Times: 0

L1 IP Table Write Accesses: 5388585
L1 IP Table Read Accesses: 5329374
L1 RST Write Accesses: 1513677
L1 RST Read Accesses: 3027354
L1 CSPT Write Accesses: 1513677
L1 CSPT Read Accesses: 4944454
L1 RR Filter Tag Write Accesses: 278030
L1 RR Filter Tag Read Accesses: 265924000
L1 IP Table Tag Write Accesses: 6228299
L1 IP Table Tag Read Accesses: 6228299
L1 RST Tag Write Accesses: 0
L1 RST Tag Read Accesses: 13639962
L1 RR Filter Write Accesses: 0
L1 RR Filter Read Accesses: 12120842
test: 232480
L2 IP Table Read Accesses: 483245
L2 IP Table Write Accesses: 474335
L2 IP Table Tag Read Accesses: 241629
L2 IP Table Tag Write Accesses: 241629

DRAM Statistics
 CHANNEL 0
 RQ ROW_BUFFER_HIT:      97793  ROW_BUFFER_MISS:     972307
 DBUS_CONGESTED:          0
 WQ ROW_BUFFER_HIT:     145563  ROW_BUFFER_MISS:     652921  FULL:       1389

 AVG_CONGESTED_CYCLE: -
 All warmup complete: 2
Channel 0 Bank busy for read cycles: 0
Channel 0 Bank busy for write cycles: 0
Channel 0
Rank 0
0banks busy for read cycles: 18749
0banks busy for write cycles: 0
1banks busy for read cycles: 1093084
1banks busy for write cycles: 83817
2banks busy for read cycles: 2165547
2banks busy for write cycles: 83815
3banks busy for read cycles: 3714886
3banks busy for write cycles: 83810
4banks busy for read cycles: 3704944
4banks busy for write cycles: 83807
5banks busy for read cycles: 6100174
5banks busy for write cycles: 83844
6banks busy for read cycles: 5070258
6banks busy for write cycles: 92785
7banks busy for read cycles: 5071433
7banks busy for write cycles: 1090196
8banks busy for read cycles: 5154559
8banks busy for write cycles: 16674416

CPU 0 Branch Prediction Accuracy: 99.6998% MPKI: 0.03208 Average ROB Occupancy at Mispredict: 25.3429
Branch types
NOT_BRANCH: 49465302 98.9306%
BRANCH_DIRECT_JUMP: 1868 0.003736%
BRANCH_INDIRECT: 0 0%
BRANCH_CONDITIONAL: 532501 1.065%
BRANCH_DIRECT_CALL: 0 0%
BRANCH_INDIRECT_CALL: 0 0%
BRANCH_RETURN: 0 0%
BRANCH_OTHER: 0 0%

@sumon_overall_L1D    259667      4143      4143       477    260145    555760    555910
@Sumon_Early_by_class_L1D     32373    182277     45017         0
@Sumon_Late_by_class_L1D       647       240       553         0

@Sumon_Early_by_cycle_L1D      1384      5950      4374     13676     10383    116209    104253      3425        13         0         0         0
@Sumon_Late_by_cycle_L1D       143       151       131       192       722       101
@Sumon_Early_stream_L1D       662      4978      2525      9395      2808     12004         1         0         0         0         0         0
@Sumon_Early_CS_L1D       253       320       459      1233      1348     82659     94695      1310         0         0         0         0
@Sumon_Early_CPLX_L1D       469       652      1390      3048      6227     21546      9557      2115        13         0         0         0
@Sumon_Late_stream_L1D        76        64        53        92       319        43
@Sumon_Late_CS_L1D        19        24        36        37       103        21
@Sumon_Late_CPLX_L1D        48        63        42        63       300        37
@sumon_overall_L2C       717        75         0    261983    262588    518883    518885
@Sumon_Early_by_class_L2C       239       475         0         0
@Sumon_Late_by_class_L2C        53        21         0         0

@Sumon_Early_by_cycle_L2C        41        57        58       117        40       339        65         0         0         0         0         0
@Sumon_Late_by_cycle_L2C         1         1         8         8        38        19
@Sumon_Early_stream_L2C        34        51        43        71        18        22         0         0         0         0         0         0
@Sumon_Early_CS_L2C         7         6        15        45        22       315        65         0         0         0         0         0
@Sumon_Early_CPLX_L2C         0         0         0         0         0         0         0         0         0         0         0         0
@Sumon_Late_stream_L2C         0         1         6         6        27        13
@Sumon_Late_CS_L2C         0         0         2         2        11         6
@Sumon_Late_CPLX_L2C         0         0         0         0         0         0
DRAM PAGES: 1048576
Allocated PAGES: 20044
