
*** ChampSim Multicore Out-of-Order Simulator ***

Warmup Instructions: 50000000
Simulation Instructions: 50000000
Number of CPUs: 1
LLC sets: 2048
LLC ways: 16
Off-chip DRAM Size: 4096 MB Channels: 1 Width: 64-bit Data Rate: 6400 MT/s
CPU 0 runs ../../biswa/SPEC2017Traces/623.xalancbmk_s-10B.champsimtrace.xz
.xz
CPU 0 Bimodal branch predictor
BTB has LRU replacement policy
ITLB has LRU replacement policy
DTLB has LRU replacement policy
STLB has LRU replacement policy
L1I has LRU replacement policy
IP Table Entries: 256
L1D has LRU replacement policy
IP_Table L2 entries: 256
Initialize DRRIP state for L2C
Initialize SRRIP state
epoch: 1000
next table: 2035
cur table: 5716
epoch: 1000
next table: 1811
cur table: 2035
epoch: 1000
next table: 1791
cur table: 1811
epoch: 1000
next table: 1716
cur table: 1791
epoch: 1000
next table: 1675
cur table: 1716
epoch: 1000
next table: 1699
cur table: 1675
epoch: 1000
next table: 1675
cur table: 1699
epoch: 1000
next table: 1698
cur table: 1675
epoch: 1000
next table: 1636
cur table: 1698
epoch: 1000
next table: 1665
cur table: 1636
epoch: 1000
next table: 1645
cur table: 1665
epoch: 1000
next table: 1653
cur table: 1645
epoch: 1000
next table: 1659
cur table: 1653
epoch: 1000
next table: 1667
cur table: 1659
epoch: 1000
next table: 1658
cur table: 1667
epoch: 1000
next table: 1632
cur table: 1658
epoch: 1000
next table: 1687
cur table: 1632
epoch: 1000
next table: 1670
cur table: 1687
epoch: 1000
next table: 1959
cur table: 14765
epoch: 1000
next table: 1672
cur table: 1670
epoch: 1000
next table: 1676
cur table: 1672
epoch: 1000
next table: 1838
cur table: 1959
epoch: 1000
next table: 1638
cur table: 1676
epoch: 1000
next table: 1707
cur table: 1838
epoch: 1000
next table: 1667
cur table: 1638
epoch: 1000
next table: 1702
cur table: 1707
epoch: 1000
next table: 1651
cur table: 1667
epoch: 1000
next table: 1633
cur table: 1702
epoch: 1000
next table: 1652
cur table: 1651
epoch: 1000
next table: 1738
cur table: 1633
epoch: 1000
next table: 1738
cur table: 1652
epoch: 1000
next table: 2152
cur table: 1738
epoch: 1000
next table: 2138
cur table: 1738
epoch: 1000
next table: 3317
cur table: 2152
epoch: 1000
next table: 1564
cur table: 3317
epoch: 1000
next table: 1906
cur table: 2138
epoch: 1000
next table: 1542
cur table: 1564
epoch: 1000
next table: 1615
cur table: 1906
epoch: 1000
next table: 5569
cur table: 1542
epoch: 1000
next table: 4165
cur table: 5569
epoch: 1000
next table: 1697
cur table: 1615
epoch: 1000
next table: 1668
cur table: 4165
epoch: 1000
next table: 1660
cur table: 1697
epoch: 1000
next table: 1650
cur table: 1668
epoch: 1000
next table: 1607
cur table: 1660
epoch: 1000
next table: 1660
cur table: 1650
epoch: 1000
next table: 1595
cur table: 1607
epoch: 1000
next table: 1678
cur table: 1660
epoch: 1000
next table: 1574
cur table: 1595
epoch: 1000
next table: 1650
cur table: 1678
epoch: 1000
next table: 1561
cur table: 1574
epoch: 1000
next table: 1647
cur table: 1650
epoch: 1000
next table: 1553
cur table: 1561
epoch: 1000
next table: 1640
cur table: 1647
epoch: 1000
next table: 1542
cur table: 1553
epoch: 1000
next table: 1643
cur table: 1640
epoch: 1000
next table: 1553
cur table: 1542
epoch: 1000
next table: 1669
cur table: 1643
epoch: 1000
next table: 1565
cur table: 1553
epoch: 1000
next table: 1651
cur table: 1669
epoch: 1000
next table: 1533
cur table: 1565
epoch: 1000
next table: 1640
cur table: 1651
epoch: 1000
next table: 1541
cur table: 1533
epoch: 1000
next table: 1645
cur table: 1640
epoch: 1000
next table: 1548
cur table: 1541
epoch: 1000
next table: 1652
cur table: 1645
epoch: 1000
next table: 1566
cur table: 1548
epoch: 1000
next table: 1668
cur table: 1652
epoch: 1000
next table: 1547
cur table: 1566
epoch: 1000
next table: 1660
cur table: 1668
epoch: 1000
next table: 1568
cur table: 1547
epoch: 1000
next table: 1670
cur table: 1660
epoch: 1000
next table: 1546
cur table: 1568
epoch: 1000
next table: 1652
cur table: 1670
epoch: 1000
next table: 1550
cur table: 1546
epoch: 1000
next table: 1655
cur table: 1652
epoch: 1000
next table: 1558
cur table: 1550
epoch: 1000
next table: 1667
cur table: 1655
epoch: 1000
next table: 1544
cur table: 1558
epoch: 1000
next table: 1642
cur table: 1667
epoch: 1000
next table: 1545
cur table: 1544
epoch: 1000
next table: 1655
cur table: 1642
epoch: 1000
next table: 1553
cur table: 1545
epoch: 1000
next table: 1657
cur table: 1655
epoch: 1000
next table: 1569
cur table: 1553
epoch: 1000
next table: 1684
cur table: 1657
epoch: 1000
next table: 1555
cur table: 1569
epoch: 1000
next table: 1659
cur table: 1684
epoch: 1000
next table: 1559
cur table: 1555
epoch: 1000
next table: 1680
cur table: 1659
epoch: 1000
next table: 1554
cur table: 1559
epoch: 1000
next table: 1649
cur table: 1680
epoch: 1000
next table: 1554
cur table: 1554
epoch: 1000
next table: 1661
cur table: 1649
epoch: 1000
next table: 1553
cur table: 1554
epoch: 1000
next table: 1659
cur table: 1661
epoch: 1000
next table: 1548
cur table: 1553
epoch: 1000
next table: 1649
cur table: 1659
epoch: 1000
next table: 1539
cur table: 1548
epoch: 1000
next table: 1646
cur table: 1649
epoch: 1000
next table: 1565
cur table: 1539
epoch: 1000
next table: 1666
cur table: 1646
epoch: 1000
next table: 1556
cur table: 1565
epoch: 1000
next table: 1670
cur table: 1666
epoch: 1000
next table: 1553
cur table: 1556
epoch: 1000
next table: 1666
cur table: 1670
epoch: 1000
next table: 1549
cur table: 1553
epoch: 1000
next table: 1664
cur table: 1666
epoch: 1000
next table: 1559
cur table: 1549
epoch: 1000
next table: 1654
cur table: 1664
epoch: 1000
next table: 1558
cur table: 1559
epoch: 1000
next table: 1664
cur table: 1654
epoch: 1000
next table: 1668
cur table: 1664
epoch: 1000
next table: 2103
cur table: 1558
epoch: 1000
next table: 1659
cur table: 1668
epoch: 1000
next table: 1651
cur table: 1659
epoch: 1000
next table: 1660
cur table: 1651
epoch: 1000
next table: 2316
cur table: 2103
epoch: 1000
next table: 1649
cur table: 1660
epoch: 1000
next table: 1681
cur table: 1649
epoch: 1000
next table: 1658
cur table: 1681
epoch: 1000
next table: 2875
cur table: 2316
epoch: 1000
next table: 1661
cur table: 1658
epoch: 1000
next table: 1657
cur table: 1661
epoch: 1000
next table: 1649
cur table: 1657
epoch: 1000
next table: 1676
cur table: 1649
epoch: 1000
next table: 1652
cur table: 1676
epoch: 1000
next table: 3680
cur table: 2875
epoch: 1000
next table: 1652
cur table: 1652
epoch: 1000
next table: 1684
cur table: 1652
epoch: 1000
next table: 1668
cur table: 1684
epoch: 1000
next table: 1682
cur table: 1668
epoch: 1000
next table: 1662
cur table: 1682
epoch: 1000
next table: 1651
cur table: 1662
epoch: 1000
next table: 1657
cur table: 1651
epoch: 1000
next table: 4483
cur table: 3680
epoch: 1000
next table: 1652
cur table: 1657
epoch: 1000
next table: 1654
cur table: 1652
epoch: 1000
next table: 1672
cur table: 1654
epoch: 1000
next table: 1659
cur table: 1672
epoch: 1000
next table: 3636
cur table: 4483
epoch: 1000
next table: 1658
cur table: 1659
epoch: 1000
next table: 1666
cur table: 1658
epoch: 1000
next table: 1912
cur table: 3636
epoch: 1000
next table: 1665
cur table: 1666
epoch: 1000
next table: 1681
cur table: 1665
epoch: 1000
next table: 1924
cur table: 1912
epoch: 1000
next table: 1669
cur table: 1681
epoch: 1000
next table: 1858
cur table: 1924
epoch: 1000
next table: 1655
cur table: 1669
epoch: 1000
next table: 1657
cur table: 1655
epoch: 1000
next table: 1813
cur table: 1858
epoch: 1000
next table: 1669
cur table: 1657
epoch: 1000
next table: 1770
cur table: 1813
epoch: 1000
next table: 1657
cur table: 1669
epoch: 1000
next table: 1686
cur table: 1657
epoch: 1000
next table: 1947
cur table: 1686
epoch: 1000
next table: 2632
cur table: 1770
epoch: 1000
next table: 1972
cur table: 1947
epoch: 1000
next table: 1474
cur table: 2632
epoch: 1000
next table: 1097
cur table: 1972
epoch: 1000
next table: 1888
cur table: 1474
epoch: 1000
next table: 3164
cur table: 1097
epoch: 1000
next table: 2406
cur table: 3164
epoch: 1000
next table: 2018
cur table: 1888
epoch: 1000
next table: 1558
cur table: 2406
epoch: 1000
next table: 1589
cur table: 2018
epoch: 1000
next table: 1520
cur table: 1558
epoch: 1000
next table: 1509
cur table: 1520
epoch: 1000
next table: 1512
cur table: 1589
epoch: 1000
next table: 1466
cur table: 1509
epoch: 1000
next table: 1454
cur table: 1512
epoch: 1000
next table: 1436
cur table: 1466
epoch: 1000
next table: 1407
cur table: 1454
epoch: 1000
next table: 1541
cur table: 1436
epoch: 1000
next table: 1469
cur table: 1407
epoch: 1000
next table: 1375
cur table: 1541
epoch: 1000
next table: 1310
cur table: 1469
epoch: 1000
next table: 1435
cur table: 1375
epoch: 1000
next table: 1405
cur table: 1310
epoch: 1000
next table: 1364
cur table: 1435
epoch: 1000
next table: 1291
cur table: 1405
epoch: 1000
next table: 1408
cur table: 1364
epoch: 1000
next table: 1387
cur table: 1291
epoch: 1000
next table: 1392
cur table: 1408
epoch: 1000
next table: 1334
cur table: 1387
epoch: 1000
next table: 1327
cur table: 1392
epoch: 1000
next table: 1302
cur table: 1334
epoch: 1000
next table: 1659
cur table: 1327
epoch: 1000
next table: 2001
cur table: 1659
epoch: 1000
next table: 1525
cur table: 2001
epoch: 1000
next table: 2715
cur table: 1302
epoch: 1000
next table: 1491
cur table: 1525
epoch: 1000
next table: 1474
cur table: 1491
epoch: 1000
next table: 1951
cur table: 2715
epoch: 1000
next table: 1432
cur table: 1474
epoch: 1000
next table: 1600
cur table: 1951
epoch: 1000
next table: 1426
cur table: 1432
epoch: 1000
next table: 1444
cur table: 1426
epoch: 1000
next table: 1602
cur table: 1600
epoch: 1000
next table: 1566
cur table: 1444
epoch: 1000
next table: 2212
cur table: 1566
epoch: 1000
next table: 3545
cur table: 2212
epoch: 1000
next table: 2566
cur table: 1602
epoch: 1000
next table: 5723
cur table: 3545
epoch: 1000
next table: 1583
cur table: 5723
epoch: 1000
next table: 1877
cur table: 2566
epoch: 1000
next table: 5046
cur table: 1583
epoch: 1000
next table: 3329
cur table: 5046
epoch: 1000
next table: 1985
cur table: 1877
epoch: 1000
next table: 1654
cur table: 3329
epoch: 1000
next table: 1594
cur table: 1985
epoch: 1000
next table: 1563
cur table: 1654
epoch: 1000
next table: 1611
cur table: 1594
epoch: 1000
next table: 1520
cur table: 1563
epoch: 1000
next table: 1562
cur table: 1611
epoch: 1000
next table: 1629
cur table: 1520
epoch: 1000
next table: 1563
cur table: 1562
epoch: 1000
next table: 1648
cur table: 1629
epoch: 1000
next table: 1550
cur table: 1563
epoch: 1000
next table: 1645
cur table: 1648
epoch: 1000
next table: 1548
cur table: 1550
epoch: 1000
next table: 1648
cur table: 1645
epoch: 1000
next table: 1550
cur table: 1548
epoch: 1000
next table: 1641
cur table: 1648
epoch: 1000
next table: 1564
cur table: 1550
epoch: 1000
next table: 1668
cur table: 1641
epoch: 1000
next table: 1550
cur table: 1564
epoch: 1000
next table: 1656
cur table: 1668
epoch: 1000
next table: 1541
cur table: 1550
epoch: 1000
next table: 1642
cur table: 1656
epoch: 1000
next table: 1548
cur table: 1541
epoch: 1000
next table: 1634
cur table: 1642
epoch: 1000
next table: 1543
cur table: 1548
epoch: 1000
next table: 1651
cur table: 1634
epoch: 1000
next table: 1673
cur table: 1651
epoch: 1000
next table: 1562
cur table: 1543
epoch: 1000
next table: 1659
cur table: 1673
epoch: 1000
next table: 1552
cur table: 1562
epoch: 1000
next table: 1665
cur table: 1659
epoch: 1000
next table: 1564
cur table: 1552
epoch: 1000
next table: 1662
cur table: 1665
epoch: 1000
next table: 1557
cur table: 1564
epoch: 1000
next table: 1655
cur table: 1662
epoch: 1000
next table: 1548
cur table: 1557
epoch: 1000
next table: 1669
cur table: 1655
epoch: 1000
next table: 1556
cur table: 1548
epoch: 1000
next table: 1655
cur table: 1669
epoch: 1000
next table: 1548
cur table: 1556
epoch: 1000
next table: 1674
cur table: 1655
epoch: 1000
next table: 1557
cur table: 1548
epoch: 1000
next table: 1662
cur table: 1674
epoch: 1000
next table: 1561
cur table: 1557
epoch: 1000
next table: 1678
cur table: 1662
epoch: 1000
next table: 1564
cur table: 1561
epoch: 1000
next table: 1686
cur table: 1678
epoch: 1000
next table: 1565
cur table: 1564
epoch: 1000
next table: 1668
cur table: 1686
epoch: 1000
next table: 1566
cur table: 1565
epoch: 1000
next table: 1657
cur table: 1668
epoch: 1000
next table: 1547
cur table: 1566
epoch: 1000
next table: 1675
cur table: 1657
epoch: 1000
next table: 1567
cur table: 1547
epoch: 1000
next table: 1642
cur table: 1675
epoch: 1000
next table: 1542
cur table: 1567
epoch: 1000
next table: 1670
cur table: 1642
epoch: 1000
next table: 1545
cur table: 1542
epoch: 1000
next table: 1653
cur table: 1670
epoch: 1000
next table: 1546
cur table: 1545
epoch: 1000
next table: 1662
cur table: 1653
epoch: 1000
next table: 1560
cur table: 1546
epoch: 1000
next table: 1687
cur table: 1662
epoch: 1000
next table: 1576
cur table: 1560
epoch: 1000
next table: 1668
cur table: 1687
epoch: 1000
next table: 1553
cur table: 1576
epoch: 1000
next table: 1681
cur table: 1668
epoch: 1000
next table: 1559
cur table: 1553
epoch: 1000
next table: 1673
cur table: 1681
epoch: 1000
next table: 1567
cur table: 1559
epoch: 1000
next table: 1653
cur table: 1673
epoch: 1000
next table: 1613
cur table: 1567
epoch: 1000
next table: 1658
cur table: 1653
epoch: 1000
next table: 1727
cur table: 1613
epoch: 1000
next table: 1671
cur table: 1658
epoch: 1000
next table: 1642
cur table: 1671
epoch: 1000
next table: 1782
cur table: 1727
epoch: 1000
next table: 1645
cur table: 1642
epoch: 1000
next table: 1842
cur table: 1782
epoch: 1000
next table: 1681
cur table: 1645
epoch: 1000
next table: 1665
cur table: 1681
epoch: 1000
next table: 1933
cur table: 1842
epoch: 1000
next table: 1646
cur table: 1665
epoch: 1000
next table: 1650
cur table: 1646
epoch: 1000
next table: 1931
cur table: 1933
epoch: 1000
next table: 1658
cur table: 1650
epoch: 1000
next table: 2033
cur table: 1931
epoch: 1000
next table: 1650
cur table: 1658
epoch: 1000
next table: 1650
cur table: 1650
epoch: 1000
next table: 2082
cur table: 2033
epoch: 1000
next table: 1657
cur table: 1650
epoch: 1000
next table: 1660
cur table: 1657
epoch: 1000
next table: 2128
cur table: 2082
epoch: 1000
next table: 1669
cur table: 1660
epoch: 1000
next table: 1672
cur table: 1669
epoch: 1000
next table: 1675
cur table: 1672
epoch: 1000
next table: 2172
cur table: 2128
epoch: 1000
next table: 1653
cur table: 1675
epoch: 1000
next table: 1665
cur table: 1653
epoch: 1000
next table: 2167
cur table: 2172
epoch: 1000
next table: 1656
cur table: 1665
epoch: 1000
next table: 1660
cur table: 1656
epoch: 1000
next table: 2186
cur table: 2167
epoch: 1000
next table: 1661
cur table: 1660
epoch: 1000
next table: 1673
cur table: 1661
epoch: 1000
next table: 2210
cur table: 2186
epoch: 1000
next table: 1652
cur table: 1673
epoch: 1000
next table: 1642
cur table: 1652
epoch: 1000
next table: 1964
cur table: 2210
epoch: 1000
next table: 1685
cur table: 1642
epoch: 1000
next table: 1851
cur table: 1964
epoch: 1000
next table: 1665
cur table: 1685
epoch: 1000
next table: 1679
cur table: 1665
epoch: 1000
next table: 1853
cur table: 1851
epoch: 1000
next table: 1683
cur table: 1679
epoch: 1000
next table: 1731
cur table: 1853
epoch: 1000
next table: 1653
cur table: 1683
epoch: 1000
next table: 1673
cur table: 1653
epoch: 1000
next table: 1736
cur table: 1731
epoch: 1000
next table: 1664
cur table: 1673
epoch: 1000
next table: 1711
cur table: 1736
epoch: 1000
next table: 1657
cur table: 1664
epoch: 1000
next table: 1734
cur table: 1657
epoch: 1000
next table: 1996
cur table: 1711
epoch: 1000
next table: 1959
cur table: 1734
epoch: 1000
next table: 3552
cur table: 1959
epoch: 1000
next table: 2499
cur table: 1996
epoch: 1000
next table: 1621
cur table: 3552
epoch: 1000
next table: 1531
cur table: 1621
epoch: 1000
next table: 2008
cur table: 2499
epoch: 1000
next table: 1502
cur table: 1531
epoch: 1000
next table: 1488
cur table: 1502
epoch: 1000
next table: 1849
cur table: 2008
epoch: 1000
next table: 1464
cur table: 1488
epoch: 1000
next table: 1497
cur table: 1464
epoch: 1000
next table: 1668
cur table: 1849
epoch: 1000
next table: 1448
cur table: 1497
epoch: 1000
next table: 1569
cur table: 1668
epoch: 1000
next table: 1423
cur table: 1448
epoch: 1000
next table: 1487
cur table: 1569
epoch: 1000
next table: 1439
cur table: 1423
epoch: 1000
next table: 1393
cur table: 1487
epoch: 1000
next table: 1376
cur table: 1439
epoch: 1000
next table: 1487
cur table: 1376
epoch: 1000
next table: 1488
cur table: 1393
epoch: 1000
next table: 1372
cur table: 1487
epoch: 1000
next table: 2205
cur table: 1372
epoch: 1000
next table: 2161
cur table: 1488
epoch: 1000
next table: 1542
cur table: 2205
epoch: 1000
next table: 1503
cur table: 1542
epoch: 1000
next table: 2143
cur table: 2161
epoch: 1000
next table: 1501
cur table: 1503
epoch: 1000
next table: 1476
cur table: 1501
epoch: 1000
next table: 1872
cur table: 2143
epoch: 1000
next table: 1426
cur table: 1476
epoch: 1000
next table: 1448
cur table: 1426
epoch: 1000
next table: 1732
cur table: 1872
epoch: 1000
next table: 1334
cur table: 1448
epoch: 1000
next table: 1519
cur table: 1732
epoch: 1000
next table: 1404
cur table: 1334
epoch: 1000
next table: 1318
cur table: 1404
epoch: 1000
next table: 1463
cur table: 1519
epoch: 1000
next table: 1419
cur table: 1318
epoch: 1000
next table: 1519
cur table: 1463
epoch: 1000
next table: 1345
cur table: 1419
epoch: 1000
next table: 1426
cur table: 1519
epoch: 1000
next table: 1400
cur table: 1345
epoch: 1000
next table: 1329
cur table: 1426
epoch: 1000
next table: 1382
cur table: 1400
epoch: 1000
next table: 1422
cur table: 1329
epoch: 1000
next table: 1479
cur table: 1382
epoch: 1000
next table: 1691
cur table: 1479
epoch: 1000
next table: 1994
cur table: 1691
epoch: 1000
next table: 2351
cur table: 1422
epoch: 1000
next table: 2999
cur table: 1994
epoch: 1000
next table: 1507
cur table: 2999
epoch: 1000
next table: 2112
cur table: 2351
epoch: 1000
next table: 1485
cur table: 1507
epoch: 1000
next table: 4157
cur table: 1485
epoch: 1000
next table: 1812
cur table: 2112
epoch: 1000
next table: 1502
cur table: 4157
epoch: 1000
next table: 1465
cur table: 1502
epoch: 1000
next table: 1863
cur table: 1812
epoch: 1000
next table: 1392
cur table: 1465
epoch: 1000
next table: 1536
cur table: 1863
epoch: 1000
next table: 1375
cur table: 1392
epoch: 1000
next table: 1362
cur table: 1375
epoch: 1000
next table: 1491
cur table: 1536
epoch: 1000
next table: 1561
cur table: 1362
epoch: 1000
next table: 4165
cur table: 1561
epoch: 1000
next table: 2020
cur table: 1491
epoch: 1000
next table: 1988
cur table: 4165
epoch: 1000
next table: 1465
cur table: 1988
epoch: 1000
next table: 1918
cur table: 2020
epoch: 1000
next table: 1490
cur table: 1465
epoch: 1000
next table: 1382
cur table: 1490
epoch: 1000
next table: 1648
cur table: 1918
epoch: 1000
next table: 1428
cur table: 1382
epoch: 1000
next table: 1375
cur table: 1428
epoch: 1000
next table: 1582
cur table: 1648
epoch: 1000
next table: 2767
cur table: 1375
epoch: 1000
next table: 1591
cur table: 2767
epoch: 1000
next table: 2081
cur table: 1582
epoch: 1000
next table: 1532
cur table: 1591
epoch: 1000
next table: 1837
cur table: 2081
epoch: 1000
next table: 1625
cur table: 1532
epoch: 1000
next table: 1526
cur table: 1625
epoch: 1000
next table: 1713
cur table: 1837
epoch: 1000
next table: 1611
cur table: 1526
epoch: 1000
next table: 1639
cur table: 1713
epoch: 1000
next table: 1650
cur table: 1611
epoch: 1000
next table: 1658
cur table: 1639
epoch: 1000
next table: 1632
cur table: 1650
epoch: 1000
next table: 1599
cur table: 1658
epoch: 1000
next table: 1627
cur table: 1632
epoch: 1000
next table: 1607
cur table: 1599
epoch: 1000
next table: 1657
cur table: 1627
epoch: 1000
next table: 1614
cur table: 1607
epoch: 1000
next table: 1661
cur table: 1657
epoch: 1000
next table: 1645
cur table: 1661
epoch: 1000
next table: 1598
cur table: 1614
epoch: 1000
next table: 1631
cur table: 1645
epoch: 1000
next table: 1608
cur table: 1598
epoch: 1000
next table: 1651
cur table: 1631
epoch: 1000
next table: 1602
cur table: 1608
epoch: 1000
next table: 1674
cur table: 1651
epoch: 1000
next table: 1622
cur table: 1602
epoch: 1000
next table: 1664
cur table: 1674
epoch: 1000
next table: 1610
cur table: 1622
epoch: 1000
next table: 1671
cur table: 1664
epoch: 1000
next table: 1586
cur table: 1610
epoch: 1000
next table: 1651
cur table: 1671
epoch: 1000
next table: 1570
cur table: 1586
epoch: 1000
next table: 1659
cur table: 1651
epoch: 1000
next table: 1590
cur table: 1570
epoch: 1000
next table: 1677
cur table: 1659
epoch: 1000
next table: 1592
cur table: 1590
epoch: 1000
next table: 1655
cur table: 1677
epoch: 1000
next table: 1591
cur table: 1592
epoch: 1000
next table: 1656
cur table: 1655
epoch: 1000
next table: 1607
cur table: 1591
epoch: 1000
next table: 1663
cur table: 1656
epoch: 1000
next table: 1689
cur table: 1663
epoch: 1000
next table: 1603
cur table: 1607
epoch: 1000
next table: 1671
cur table: 1689
epoch: 1000
next table: 1584
cur table: 1603
epoch: 1000
next table: 1657
cur table: 1671
epoch: 1000
next table: 1573
cur table: 1584
epoch: 1000
next table: 1655
cur table: 1657
epoch: 1000
next table: 1554
cur table: 1573
epoch: 1000
next table: 1658
cur table: 1655
epoch: 1000
next table: 1589
cur table: 1554
epoch: 1000
next table: 1654
cur table: 1658
epoch: 1000
next table: 1552
cur table: 1589
epoch: 1000
next table: 1652
cur table: 1654
epoch: 1000
next table: 1560
cur table: 1552
epoch: 1000
next table: 1651
cur table: 1652
epoch: 1000
next table: 1570
cur table: 1560
epoch: 1000
next table: 1668
cur table: 1651
epoch: 1000
next table: 1570
cur table: 1570
epoch: 1000
next table: 1674
cur table: 1668
epoch: 1000
next table: 1603
cur table: 1570
epoch: 1000
next table: 1681
cur table: 1674
epoch: 1000
next table: 1566
cur table: 1603
epoch: 1000
next table: 1657
cur table: 1681
epoch: 1000
next table: 1576
cur table: 1566
epoch: 1000
next table: 1669
cur table: 1657
epoch: 1000
next table: 1585
cur table: 1576
epoch: 1000
next table: 1653
cur table: 1669
epoch: 1000
next table: 1607
cur table: 1585
epoch: 1000
next table: 1657
cur table: 1653
epoch: 1000
next table: 1661
cur table: 1657
epoch: 1000
next table: 1720
cur table: 1607
epoch: 1000
next table: 1670
cur table: 1661
epoch: 1000
next table: 1795
cur table: 1720
epoch: 1000
next table: 1653
cur table: 1670
epoch: 1000
next table: 1801
cur table: 1795
epoch: 1000
next table: 1667
cur table: 1653
epoch: 1000
next table: 1670
cur table: 1667
epoch: 1000
next table: 1885
cur table: 1801
epoch: 1000
next table: 1663
cur table: 1670
epoch: 1000
next table: 1656
cur table: 1663
epoch: 1000
next table: 1902
cur table: 1885
epoch: 1000
next table: 1663
cur table: 1656
epoch: 1000
next table: 1977
cur table: 1902
epoch: 1000
next table: 1646
cur table: 1663
epoch: 1000
next table: 1671
cur table: 1646
epoch: 1000
next table: 2073
cur table: 1977
epoch: 1000
next table: 1645
cur table: 1671
epoch: 1000
next table: 1647
cur table: 1645
epoch: 1000
next table: 2079
cur table: 2073
epoch: 1000
next table: 1690
cur table: 1647
epoch: 1000
next table: 1672
cur table: 1690
epoch: 1000
next table: 2140
cur table: 2079
epoch: 1000
next table: 1682
cur table: 1672
epoch: 1000
next table: 1660
cur table: 1682
epoch: 1000
next table: 2104
cur table: 2140
epoch: 1000
next table: 1651
cur table: 1660
epoch: 1000
next table: 1667
cur table: 1651
epoch: 1000
next table: 1660
cur table: 1667
epoch: 1000
next table: 2157
cur table: 2104
epoch: 1000
next table: 1663
cur table: 1660
epoch: 1000
next table: 1672
cur table: 1663
epoch: 1000
next table: 2179
cur table: 2157
epoch: 1000
next table: 1660
cur table: 1672
epoch: 1000
next table: 1655
cur table: 1660
epoch: 1000
next table: 2022
cur table: 2179
epoch: 1000
next table: 1678
cur table: 1655
epoch: 1000
next table: 1889
cur table: 2022
epoch: 1000
next table: 1666
cur table: 1678
epoch: 1000
next table: 1651
cur table: 1666
epoch: 1000
next table: 1844
cur table: 1889
epoch: 1000
next table: 1683
cur table: 1651
epoch: 1000
next table: 1844
cur table: 1844
epoch: 1000
next table: 1656
cur table: 1683
epoch: 1000
next table: 1645
cur table: 1656
epoch: 1000
next table: 1794
cur table: 1844
epoch: 1000
next table: 1674
cur table: 1645
epoch: 1000
next table: 1819
cur table: 1794
epoch: 1000
next table: 1661
cur table: 1674
epoch: 1000
next table: 1672
cur table: 1661
epoch: 1000
next table: 2350
cur table: 1819
epoch: 1000
next table: 1960
cur table: 1672
epoch: 1000
next table: 3677
cur table: 1960
epoch: 1000
next table: 2288
cur table: 2350
epoch: 1000
next table: 2339
cur table: 3677
epoch: 1000
next table: 1569
cur table: 2339
epoch: 1000
next table: 2931
cur table: 1569
epoch: 1000
next table: 2070
cur table: 2288
epoch: 1000
next table: 5796
cur table: 2931
epoch: 1000
next table: 1776
cur table: 2070
epoch: 1000
next table: 1480
cur table: 5796
epoch: 1000
next table: 1464
cur table: 1480
epoch: 1000
next table: 1833
cur table: 1776
epoch: 1000
next table: 1538
cur table: 1464
epoch: 1000
next table: 1434
cur table: 1538
epoch: 1000
next table: 1661
cur table: 1833
epoch: 1000
next table: 1424
cur table: 1434
epoch: 1000
next table: 1540
cur table: 1661
epoch: 1000
next table: 1397
cur table: 1424
epoch: 1000
next table: 2296
cur table: 1397
epoch: 1000
next table: 3291
cur table: 2296
epoch: 1000
next table: 2073
cur table: 1540
epoch: 1000
next table: 2150
cur table: 3291
epoch: 1000
next table: 1869
cur table: 2073
epoch: 1000
next table: 1544
cur table: 2150
epoch: 1000
next table: 1634
cur table: 1544
epoch: 1000
next table: 1870
cur table: 1869
epoch: 1000
next table: 1686
cur table: 1634
epoch: 1000
next table: 1670
cur table: 1686
epoch: 1000
next table: 1893
cur table: 1870
epoch: 1000
next table: 1649
cur table: 1670
epoch: 1000
next table: 1828
cur table: 1893
epoch: 1000
next table: 1658
cur table: 1649
epoch: 1000
next table: 1630
cur table: 1658
epoch: 1000
next table: 1706
cur table: 1828
epoch: 1000
next table: 1653
cur table: 1630
epoch: 1000
next table: 1685
cur table: 1706
epoch: 1000
next table: 1671
cur table: 1653
epoch: 1000
next table: 1706
cur table: 1685
epoch: 1000
next table: 1640
cur table: 1671
epoch: 1000
next table: 1669
cur table: 1706
epoch: 1000
next table: 1615
cur table: 1640
epoch: 1000
next table: 1645
cur table: 1615
epoch: 1000
next table: 1708
cur table: 1669
epoch: 1000
next table: 1679
cur table: 1645
epoch: 1000
next table: 1736
cur table: 1708
epoch: 1000
next table: 1649
cur table: 1679
epoch: 1000
next table: 1671
cur table: 1736
epoch: 1000
next table: 1649
cur table: 1649
epoch: 1000
next table: 1652
cur table: 1649
epoch: 1000
next table: 1673
cur table: 1671
epoch: 1000
next table: 1642
cur table: 1652
epoch: 1000
next table: 1649
cur table: 1673
epoch: 1000
next table: 1666
cur table: 1642
epoch: 1000
next table: 1657
cur table: 1649
epoch: 1000
next table: 1650
cur table: 1666
epoch: 1000
next table: 1635
cur table: 1657
epoch: 1000
next table: 1655
cur table: 1650
epoch: 1000
next table: 1677
cur table: 1635
epoch: 1000
next table: 1665
cur table: 1655
epoch: 1000
next table: 1670
cur table: 1665
epoch: 1000
next table: 1674
cur table: 1677
epoch: 1000
next table: 1665
cur table: 1670
epoch: 1000
next table: 1658
cur table: 1674
epoch: 1000
next table: 1677
cur table: 1665
epoch: 1000
next table: 1604
cur table: 1658
epoch: 1000
next table: 1669
cur table: 1677
epoch: 1000
next table: 1590
cur table: 1604
epoch: 1000
next table: 1652
cur table: 1669
epoch: 1000
next table: 1603
cur table: 1590
epoch: 1000
next table: 1666
cur table: 1652
epoch: 1000
next table: 1569
cur table: 1603
epoch: 1000
next table: 1654
cur table: 1666
epoch: 1000
next table: 1564
cur table: 1569
epoch: 1000
next table: 1642
cur table: 1654
epoch: 1000
next table: 1579
cur table: 1564
epoch: 1000
next table: 1655
cur table: 1642
epoch: 1000
next table: 1575
cur table: 1579
epoch: 1000
next table: 1659
cur table: 1655
epoch: 1000
next table: 1609
cur table: 1575
epoch: 1000
next table: 1677
cur table: 1659
epoch: 1000
next table: 1571
cur table: 1609
epoch: 1000
next table: 1660
cur table: 1677
epoch: 1000
next table: 1590
cur table: 1571
epoch: 1000
next table: 1655
cur table: 1660
epoch: 1000
next table: 1589
cur table: 1590
epoch: 1000
next table: 1676
cur table: 1655
epoch: 1000
next table: 1656
cur table: 1676
epoch: 1000
next table: 1658
cur table: 1589
epoch: 1000
next table: 1662
cur table: 1656
epoch: 1000
next table: 1729
cur table: 1658
epoch: 1000
next table: 1676
cur table: 1662
epoch: 1000
next table: 1786
cur table: 1729
epoch: 1000
next table: 1655
cur table: 1676
epoch: 1000
next table: 1641
cur table: 1655
epoch: 1000
next table: 1827
cur table: 1786
epoch: 1000
next table: 1684
cur table: 1641
epoch: 1000
next table: 1665
cur table: 1684
epoch: 1000
next table: 1858
cur table: 1827
epoch: 1000
next table: 1655
cur table: 1665
epoch: 1000
next table: 1930
cur table: 1858
epoch: 1000
next table: 1652
cur table: 1655
epoch: 1000
next table: 1649
cur table: 1652
epoch: 1000
next table: 1971
cur table: 1930
epoch: 1000
next table: 1670
cur table: 1649
epoch: 1000
next table: 1652
cur table: 1670
epoch: 1000
next table: 2058
cur table: 1971
epoch: 1000
next table: 1658
cur table: 1652
epoch: 1000
next table: 1664
cur table: 1658
epoch: 1000
next table: 2111
cur table: 2058
epoch: 1000
next table: 1676
cur table: 1664
epoch: 1000
next table: 1683
cur table: 1676
epoch: 1000
next table: 2129
cur table: 2111
epoch: 1000
next table: 1651
cur table: 1683
epoch: 1000
next table: 1636
cur table: 1651
epoch: 1000
next table: 2052
cur table: 2129
epoch: 1000
next table: 1661
cur table: 1636
epoch: 1000
next table: 1656
cur table: 1661
epoch: 1000
next table: 2145
cur table: 2052
epoch: 1000
next table: 1669
cur table: 1656
epoch: 1000
next table: 1667
cur table: 1669
epoch: 1000
next table: 2168
cur table: 2145
epoch: 1000
next table: 1660
cur table: 1667
epoch: 1000
next table: 1663
cur table: 1660
epoch: 1000
next table: 2031
cur table: 2168
epoch: 1000
next table: 1641
cur table: 1663
epoch: 1000
next table: 1663
cur table: 1641
epoch: 1000
next table: 1890
cur table: 2031
epoch: 1000
next table: 1666
cur table: 1663
epoch: 1000
next table: 1895
cur table: 1890
epoch: 1000
next table: 1703
cur table: 1666
epoch: 1000
next table: 1660
cur table: 1703
epoch: 1000
next table: 1866
cur table: 1895
epoch: 1000
next table: 1650
cur table: 1660
epoch: 1000
next table: 1824
cur table: 1866
epoch: 1000
next table: 1680
cur table: 1650
epoch: 1000
next table: 1667
cur table: 1680
epoch: 1000
next table: 1834
cur table: 1824
epoch: 1000
next table: 1652
cur table: 1667
epoch: 1000
next table: 1851
cur table: 1652
epoch: 1000
next table: 2663
cur table: 1834
epoch: 1000
next table: 2975
cur table: 1851
epoch: 1000
next table: 2713
cur table: 2975
Heartbeat CPU 0 instructions: 10000003 cycles: 3104739 heartbeat IPC: 3.22088 cumulative IPC: 3.22088 (Simulation time: 0 hr 7 min 40 sec) 
epoch: 1000
next table: 2926
cur table: 2713
epoch: 1000
next table: 2256
cur table: 2663
epoch: 1000
next table: 3463
cur table: 2926
epoch: 1000
next table: 4977
cur table: 3463
epoch: 1000
next table: 1857
cur table: 2256
epoch: 1000
next table: 1521
cur table: 4977
epoch: 1000
next table: 1838
cur table: 1857
epoch: 1000
next table: 1491
cur table: 1521
epoch: 1000
next table: 1517
cur table: 1491
epoch: 1000
next table: 1854
cur table: 1838
epoch: 1000
next table: 1482
cur table: 1517
epoch: 1000
next table: 1420
cur table: 1482
epoch: 1000
next table: 1572
cur table: 1854
epoch: 1000
next table: 1423
cur table: 1420
epoch: 1000
next table: 1493
cur table: 1572
epoch: 1000
next table: 1398
cur table: 1423
epoch: 1000
next table: 1471
cur table: 1398
epoch: 1000
next table: 1525
cur table: 1493
epoch: 1000
next table: 1346
cur table: 1471
epoch: 1000
next table: 1374
cur table: 1525
epoch: 1000
next table: 1409
cur table: 1346
epoch: 1000
next table: 1358
cur table: 1374
epoch: 1000
next table: 1387
cur table: 1409
epoch: 1000
next table: 1422
cur table: 1358
epoch: 1000
next table: 1472
cur table: 1387
epoch: 1000
next table: 1443
cur table: 1422
epoch: 1000
next table: 1430
cur table: 1472
epoch: 1000
next table: 1363
cur table: 1443
epoch: 1000
next table: 1351
cur table: 1430
epoch: 1000
next table: 1402
cur table: 1363
epoch: 1000
next table: 1586
cur table: 1351
epoch: 1000
next table: 2142
cur table: 1586
epoch: 1000
next table: 1680
cur table: 2142
epoch: 1000
next table: 2693
cur table: 1402
epoch: 1000
next table: 1534
cur table: 1680
epoch: 1000
next table: 1539
cur table: 1534
epoch: 1000
next table: 1871
cur table: 2693
epoch: 1000
next table: 1545
cur table: 1539
epoch: 1000
next table: 1806
cur table: 1871
epoch: 1000
next table: 1567
cur table: 1545
epoch: 1000
next table: 1652
cur table: 1567
epoch: 1000
next table: 1823
cur table: 1806
epoch: 1000
next table: 1648
cur table: 1652
epoch: 1000
next table: 1739
cur table: 1823
epoch: 1000
next table: 1632
cur table: 1648
epoch: 1000
next table: 1726
cur table: 1739
epoch: 1000
next table: 1658
cur table: 1632
epoch: 1000
next table: 1668
cur table: 1658
epoch: 1000
next table: 1723
cur table: 1726
epoch: 1000
next table: 1628
cur table: 1668
epoch: 1000
next table: 1727
cur table: 1723
epoch: 1000
next table: 1633
cur table: 1628
epoch: 1000
next table: 1646
cur table: 1633
epoch: 1000
next table: 1768
cur table: 1727
epoch: 1000
next table: 1675
cur table: 1646
epoch: 1000
next table: 1768
cur table: 1768
epoch: 1000
next table: 1656
cur table: 1675
epoch: 1000
next table: 1747
cur table: 1768
epoch: 1000
next table: 1658
cur table: 1656
epoch: 1000
next table: 1667
cur table: 1658
epoch: 1000
next table: 1740
cur table: 1747
epoch: 1000
next table: 1649
cur table: 1667
epoch: 1000
next table: 1715
cur table: 1740
epoch: 1000
next table: 1663
cur table: 1649
epoch: 1000
next table: 1673
cur table: 1715
epoch: 1000
next table: 1636
cur table: 1663
epoch: 1000
next table: 1641
cur table: 1636
epoch: 1000
next table: 1682
cur table: 1673
epoch: 1000
next table: 1664
cur table: 1641
epoch: 1000
next table: 1716
cur table: 1682
epoch: 1000
next table: 1659
cur table: 1664
epoch: 1000
next table: 1741
cur table: 1716
epoch: 1000
next table: 1672
cur table: 1659
epoch: 1000
next table: 1691
cur table: 1741
epoch: 1000
next table: 1677
cur table: 1672
epoch: 1000
next table: 1667
cur table: 1677
epoch: 1000
next table: 1641
cur table: 1691
epoch: 1000
next table: 1649
cur table: 1667
epoch: 1000
next table: 1625
cur table: 1641
epoch: 1000
next table: 1676
cur table: 1649
epoch: 1000
next table: 1621
cur table: 1625
epoch: 1000
next table: 1654
cur table: 1676
epoch: 1000
next table: 1589
cur table: 1621
epoch: 1000
next table: 1648
cur table: 1654
epoch: 1000
next table: 1585
cur table: 1589
epoch: 1000
next table: 1649
cur table: 1648
epoch: 1000
next table: 1604
cur table: 1585
epoch: 1000
next table: 1638
cur table: 1649
epoch: 1000
next table: 1615
cur table: 1604
epoch: 1000
next table: 1682
cur table: 1638
epoch: 1000
next table: 1582
cur table: 1615
epoch: 1000
next table: 1651
cur table: 1682
epoch: 1000
next table: 1607
cur table: 1582
epoch: 1000
next table: 1674
cur table: 1651
epoch: 1000
next table: 1602
cur table: 1607
epoch: 1000
next table: 1675
cur table: 1674
epoch: 1000
next table: 1662
cur table: 1675
epoch: 1000
next table: 1635
cur table: 1602
epoch: 1000
next table: 1662
cur table: 1662
epoch: 1000
next table: 1731
cur table: 1635
epoch: 1000
next table: 1680
cur table: 1662
epoch: 1000
next table: 1774
cur table: 1731
epoch: 1000
next table: 1654
cur table: 1680
epoch: 1000
next table: 1650
cur table: 1654
epoch: 1000
next table: 1799
cur table: 1774
epoch: 1000
next table: 1683
cur table: 1650
epoch: 1000
next table: 1877
cur table: 1799
epoch: 1000
next table: 1676
cur table: 1683
epoch: 1000
next table: 1655
cur table: 1676
epoch: 1000
next table: 1899
cur table: 1877
epoch: 1000
next table: 1653
cur table: 1655
epoch: 1000
next table: 1663
cur table: 1653
epoch: 1000
next table: 1962
cur table: 1899
epoch: 1000
next table: 1650
cur table: 1663
epoch: 1000
next table: 1645
cur table: 1650
epoch: 1000
next table: 2029
cur table: 1962
epoch: 1000
next table: 1663
cur table: 1645
epoch: 1000
next table: 1659
cur table: 1663
epoch: 1000
next table: 2072
cur table: 2029
epoch: 1000
next table: 1687
cur table: 1659
epoch: 1000
next table: 1687
cur table: 1687
epoch: 1000
next table: 2158
cur table: 2072
epoch: 1000
next table: 1674
cur table: 1687
epoch: 1000
next table: 1646
cur table: 1674
epoch: 1000
next table: 2065
cur table: 2158
epoch: 1000
next table: 1655
cur table: 1646
epoch: 1000
next table: 1658
cur table: 1655
epoch: 1000
next table: 2169
cur table: 2065
epoch: 1000
next table: 1666
cur table: 1658
epoch: 1000
next table: 1656
cur table: 1666
epoch: 1000
next table: 2118
cur table: 2169
epoch: 1000
next table: 1663
cur table: 1656
epoch: 1000
next table: 1663
cur table: 1663
epoch: 1000
next table: 2089
cur table: 2118
epoch: 1000
next table: 1652
cur table: 1663
epoch: 1000
next table: 1920
cur table: 2089
epoch: 1000
next table: 1690
cur table: 1652
epoch: 1000
next table: 1671
cur table: 1690
epoch: 1000
next table: 1894
cur table: 1920
epoch: 1000
next table: 1696
cur table: 1671
epoch: 1000
next table: 1648
cur table: 1696
epoch: 1000
next table: 1843
cur table: 1894
epoch: 1000
next table: 1655
cur table: 1648
epoch: 1000
next table: 1854
cur table: 1843
epoch: 1000
next table: 1675
cur table: 1655
epoch: 1000
next table: 1671
cur table: 1675
epoch: 1000
next table: 1850
cur table: 1854
epoch: 1000
next table: 1650
cur table: 1671
epoch: 1000
next table: 1826
cur table: 1650
epoch: 1000
next table: 2671
cur table: 1850
epoch: 1000
next table: 3127
cur table: 1826
epoch: 1000
next table: 2676
cur table: 3127
epoch: 1000
next table: 2228
cur table: 2671
epoch: 1000
next table: 1563
cur table: 2676
epoch: 1000
next table: 1532
cur table: 1563
epoch: 1000
next table: 1960
cur table: 2228
epoch: 1000
next table: 1508
cur table: 1532
epoch: 1000
next table: 1462
cur table: 1508
epoch: 1000
next table: 1736
cur table: 1960
epoch: 1000
next table: 1468
cur table: 1462
epoch: 1000
next table: 1553
cur table: 1468
epoch: 1000
next table: 1785
cur table: 1736
epoch: 1000
next table: 1405
cur table: 1553
epoch: 1000
next table: 2351
cur table: 1405
epoch: 1000
next table: 2193
cur table: 1785
epoch: 1000
next table: 4842
cur table: 2351
epoch: 1000
next table: 1609
cur table: 4842
epoch: 1000
next table: 1570
cur table: 1609
epoch: 1000
next table: 2023
cur table: 2193
epoch: 1000
next table: 3026
cur table: 1570
epoch: 1000
next table: 1930
cur table: 2023
epoch: 1000
next table: 1669
cur table: 3026
epoch: 1000
next table: 1588
cur table: 1669
epoch: 1000
next table: 1862
cur table: 1930
epoch: 1000
next table: 1654
cur table: 1588
epoch: 1000
next table: 1674
cur table: 1654
epoch: 1000
next table: 1862
cur table: 1862
epoch: 1000
next table: 1648
cur table: 1674
epoch: 1000
next table: 1854
cur table: 1862
epoch: 1000
next table: 1656
cur table: 1648
epoch: 1000
next table: 1653
cur table: 1656
epoch: 1000
next table: 1750
cur table: 1854
epoch: 1000
next table: 1626
cur table: 1653
epoch: 1000
next table: 1712
cur table: 1750
epoch: 1000
next table: 1673
cur table: 1626
epoch: 1000
next table: 1750
cur table: 1712
epoch: 1000
next table: 1665
cur table: 1673
epoch: 1000
next table: 1630
cur table: 1665
epoch: 1000
next table: 1734
cur table: 1750
epoch: 1000
next table: 1632
cur table: 1630
epoch: 1000
next table: 1769
cur table: 1734
epoch: 1000
next table: 1674
cur table: 1632
epoch: 1000
next table: 1673
cur table: 1674
epoch: 1000
next table: 1789
cur table: 1769
epoch: 1000
next table: 1641
cur table: 1673
epoch: 1000
next table: 1733
cur table: 1789
epoch: 1000
next table: 1661
cur table: 1641
epoch: 1000
next table: 1725
cur table: 1733
epoch: 1000
next table: 1657
cur table: 1661
epoch: 1000
next table: 1662
cur table: 1657
epoch: 1000
next table: 1725
cur table: 1725
epoch: 1000
next table: 1652
cur table: 1662
epoch: 1000
next table: 1721
cur table: 1725
epoch: 1000
next table: 1647
cur table: 1652
epoch: 1000
next table: 1750
cur table: 1721
epoch: 1000
next table: 1658
cur table: 1647
epoch: 1000
next table: 1657
cur table: 1658
epoch: 1000
next table: 1772
cur table: 1750
epoch: 1000
next table: 1679
cur table: 1657
epoch: 1000
next table: 1752
cur table: 1772
epoch: 1000
next table: 1662
cur table: 1679
epoch: 1000
next table: 1732
cur table: 1752
epoch: 1000
next table: 1658
cur table: 1662
epoch: 1000
next table: 1660
cur table: 1658
epoch: 1000
next table: 1678
cur table: 1732
epoch: 1000
next table: 1680
cur table: 1660
epoch: 1000
next table: 1664
cur table: 1678
epoch: 1000
next table: 1633
cur table: 1680
epoch: 1000
next table: 1642
cur table: 1664
epoch: 1000
next table: 1671
cur table: 1633
epoch: 1000
next table: 1655
cur table: 1642
epoch: 1000
next table: 1632
cur table: 1671
epoch: 1000
next table: 1656
cur table: 1655
epoch: 1000
next table: 1660
cur table: 1632
epoch: 1000
next table: 1678
cur table: 1660
epoch: 1000
next table: 1669
cur table: 1656
epoch: 1000
next table: 1652
cur table: 1678
epoch: 1000
next table: 1610
cur table: 1669
epoch: 1000
next table: 1686
cur table: 1652
epoch: 1000
next table: 1631
cur table: 1610
epoch: 1000
next table: 1660
cur table: 1686
epoch: 1000
next table: 1620
cur table: 1631
epoch: 1000
next table: 1645
cur table: 1660
epoch: 1000
next table: 1682
cur table: 1620
epoch: 1000
next table: 1663
cur table: 1645
epoch: 1000
next table: 1666
cur table: 1663
epoch: 1000
next table: 1738
cur table: 1682
epoch: 1000
next table: 1633
cur table: 1666
epoch: 1000
next table: 1719
cur table: 1738
epoch: 1000
next table: 1662
cur table: 1633
epoch: 1000
next table: 1669
cur table: 1662
epoch: 1000
next table: 1829
cur table: 1719
epoch: 1000
next table: 1673
cur table: 1669
epoch: 1000
next table: 1884
cur table: 1829
epoch: 1000
next table: 1659
cur table: 1673
epoch: 1000
next table: 1670
cur table: 1659
epoch: 1000
next table: 1912
cur table: 1884
epoch: 1000
next table: 1665
cur table: 1670
epoch: 1000
next table: 1649
cur table: 1665
epoch: 1000
next table: 1990
cur table: 1912
epoch: 1000
next table: 1676
cur table: 1649
epoch: 1000
next table: 2064
cur table: 1990
epoch: 1000
next table: 1660
cur table: 1676
epoch: 1000
next table: 1660
cur table: 1660
epoch: 1000
next table: 2088
cur table: 2064
epoch: 1000
next table: 1684
cur table: 1660
epoch: 1000
next table: 1679
cur table: 1684
epoch: 1000
next table: 2150
cur table: 2088
epoch: 1000
next table: 1694
cur table: 1679
epoch: 1000
next table: 1645
cur table: 1694
epoch: 1000
next table: 2049
cur table: 2150
epoch: 1000
next table: 1659
cur table: 1645
epoch: 1000
next table: 1658
cur table: 1659
epoch: 1000
next table: 2127
cur table: 2049
epoch: 1000
next table: 1658
cur table: 1658
epoch: 1000
next table: 1663
cur table: 1658
epoch: 1000
next table: 1680
cur table: 1663
epoch: 1000
next table: 2142
cur table: 2127
epoch: 1000
next table: 1660
cur table: 1680
epoch: 1000
next table: 2008
cur table: 2142
epoch: 1000
next table: 1640
cur table: 1660
epoch: 1000
next table: 1681
cur table: 1640
epoch: 1000
next table: 1872
cur table: 2008
epoch: 1000
next table: 1665
cur table: 1681
epoch: 1000
next table: 1850
cur table: 1872
epoch: 1000
next table: 1686
cur table: 1665
epoch: 1000
next table: 1674
cur table: 1686
epoch: 1000
next table: 1845
cur table: 1850
epoch: 1000
next table: 1653
cur table: 1674
epoch: 1000
next table: 1820
cur table: 1845
epoch: 1000
next table: 1670
cur table: 1653
epoch: 1000
next table: 1665
cur table: 1670
epoch: 1000
next table: 1829
cur table: 1820
epoch: 1000
next table: 1667
cur table: 1665
epoch: 1000
next table: 1734
cur table: 1667
epoch: 1000
next table: 2482
cur table: 1829
epoch: 1000
next table: 2132
cur table: 1734
epoch: 1000
next table: 3827
cur table: 2132
epoch: 1000
next table: 2346
cur table: 2482
epoch: 1000
next table: 1823
cur table: 3827
epoch: 1000
next table: 1561
cur table: 1823
epoch: 1000
next table: 1961
cur table: 2346
epoch: 1000
next table: 1521
cur table: 1561
epoch: 1000
next table: 1494
cur table: 1521
epoch: 1000
next table: 2770
cur table: 1494
epoch: 1000
next table: 2186
cur table: 1961
epoch: 1000
next table: 1555
cur table: 2770
epoch: 1000
next table: 1940
cur table: 2186
epoch: 1000
next table: 1653
cur table: 1555
epoch: 1000
next table: 1636
cur table: 1653
epoch: 1000
next table: 1823
cur table: 1940
epoch: 1000
next table: 1688
cur table: 1636
epoch: 1000
next table: 1661
cur table: 1688
epoch: 1000
next table: 1854
cur table: 1823
epoch: 1000
next table: 1671
cur table: 1661
epoch: 1000
next table: 1824
cur table: 1854
epoch: 1000
next table: 1639
cur table: 1671
epoch: 1000
next table: 1701
cur table: 1824
epoch: 1000
next table: 1646
cur table: 1639
epoch: 1000
next table: 1659
cur table: 1646
epoch: 1000
next table: 1708
cur table: 1701
epoch: 1000
next table: 1667
cur table: 1659
epoch: 1000
next table: 1739
cur table: 1708
epoch: 1000
next table: 1652
cur table: 1667
epoch: 1000
next table: 1727
cur table: 1739
epoch: 1000
next table: 1637
cur table: 1652
epoch: 1000
next table: 1647
cur table: 1637
epoch: 1000
next table: 1747
cur table: 1727
epoch: 1000
next table: 1676
cur table: 1647
epoch: 1000
next table: 1742
cur table: 1747
epoch: 1000
next table: 1646
cur table: 1676
epoch: 1000
next table: 1728
cur table: 1742
epoch: 1000
next table: 1667
cur table: 1646
epoch: 1000
next table: 1654
cur table: 1667
epoch: 1000
next table: 1698
cur table: 1728
epoch: 1000
next table: 1662
cur table: 1654
epoch: 1000
next table: 1704
cur table: 1698
epoch: 1000
next table: 1663
cur table: 1662
epoch: 1000
next table: 1698
cur table: 1704
epoch: 1000
next table: 1653
cur table: 1663
epoch: 1000
next table: 1628
cur table: 1653
epoch: 1000
next table: 1699
cur table: 1698
epoch: 1000
next table: 1662
cur table: 1628
epoch: 1000
next table: 1729
cur table: 1699
epoch: 1000
next table: 1667
cur table: 1662
epoch: 1000
next table: 1729
cur table: 1729
epoch: 1000
next table: 1671
cur table: 1667
epoch: 1000
next table: 1664
cur table: 1671
epoch: 1000
next table: 1750
cur table: 1729
epoch: 1000
next table: 1670
cur table: 1664
epoch: 1000
next table: 1666
cur table: 1750
epoch: 1000
next table: 1659
cur table: 1670
epoch: 1000
next table: 1673
cur table: 1666
epoch: 1000
next table: 1652
cur table: 1659
epoch: 1000
next table: 1645
cur table: 1673
epoch: 1000
next table: 1655
cur table: 1652
epoch: 1000
next table: 1661
cur table: 1645
epoch: 1000
next table: 1632
cur table: 1655
epoch: 1000
next table: 1660
cur table: 1632
epoch: 1000
next table: 1689
cur table: 1661
epoch: 1000
next table: 1653
cur table: 1660
epoch: 1000
next table: 1679
cur table: 1689
epoch: 1000
next table: 1669
cur table: 1653
epoch: 1000
next table: 1653
cur table: 1679
epoch: 1000
next table: 1667
cur table: 1669
epoch: 1000
next table: 1657
cur table: 1653
epoch: 1000
next table: 1653
cur table: 1667
epoch: 1000
next table: 1675
cur table: 1653
epoch: 1000
next table: 1705
cur table: 1657
epoch: 1000
next table: 1659
cur table: 1675
epoch: 1000
next table: 1757
cur table: 1705
epoch: 1000
next table: 1670
cur table: 1659
epoch: 1000
next table: 1662
cur table: 1670
epoch: 1000
next table: 1814
cur table: 1757
epoch: 1000
next table: 1637
cur table: 1662
epoch: 1000
next table: 1808
cur table: 1814
epoch: 1000
next table: 1660
cur table: 1637
epoch: 1000
next table: 1688
cur table: 1660
epoch: 1000
next table: 1880
cur table: 1808
epoch: 1000
next table: 1650
cur table: 1688
epoch: 1000
next table: 1868
cur table: 1880
epoch: 1000
next table: 1663
cur table: 1650
epoch: 1000
next table: 1659
cur table: 1663
epoch: 1000
next table: 1956
cur table: 1868
epoch: 1000
next table: 1659
cur table: 1659
epoch: 1000
next table: 1662
cur table: 1659
epoch: 1000
next table: 2002
cur table: 1956
epoch: 1000
next table: 1657
cur table: 1662
epoch: 1000
next table: 1654
cur table: 1657
epoch: 1000
next table: 2012
cur table: 2002
epoch: 1000
next table: 1666
cur table: 1654
epoch: 1000
next table: 1680
cur table: 1666
epoch: 1000
next table: 2133
cur table: 2012
epoch: 1000
next table: 1704
cur table: 1680
epoch: 1000
next table: 1667
cur table: 1704
epoch: 1000
next table: 2058
cur table: 2133
epoch: 1000
next table: 1650
cur table: 1667
epoch: 1000
next table: 1662
cur table: 1650
epoch: 1000
next table: 2081
cur table: 2058
epoch: 1000
next table: 1676
cur table: 1662
epoch: 1000
next table: 1690
cur table: 1676
epoch: 1000
next table: 2077
cur table: 2081
epoch: 1000
next table: 1680
cur table: 1690
epoch: 1000
next table: 1663
cur table: 1680
epoch: 1000
next table: 2096
cur table: 2077
epoch: 1000
next table: 1681
cur table: 1663
epoch: 1000
next table: 1916
cur table: 2096
epoch: 1000
next table: 1692
cur table: 1681
epoch: 1000
next table: 1709
cur table: 1692
epoch: 1000
next table: 1825
cur table: 1916
epoch: 1000
next table: 1726
cur table: 1709
epoch: 1000
next table: 1826
cur table: 1825
epoch: 1000
next table: 1759
cur table: 1726
epoch: 1000
next table: 1766
cur table: 1759
epoch: 1000
next table: 1800
cur table: 1826
epoch: 1000
next table: 1905
cur table: 1766
epoch: 1000
next table: 1754
cur table: 1800
epoch: 1000
next table: 2006
cur table: 1905
epoch: 1000
next table: 4241
cur table: 2006
epoch: 1000
next table: 2825
cur table: 4241
epoch: 1000
next table: 2271
cur table: 1754
epoch: 1000
next table: 2327
cur table: 2825
epoch: 1000
next table: 1552
cur table: 2327
epoch: 1000
next table: 2184
cur table: 2271
epoch: 1000
next table: 1548
cur table: 1552
epoch: 1000
next table: 1497
cur table: 1548
epoch: 1000
next table: 1781
cur table: 2184
epoch: 1000
next table: 2678
cur table: 1497
epoch: 1000
next table: 1529
cur table: 2678
epoch: 1000
next table: 1510
cur table: 1529
epoch: 1000
next table: 2563
cur table: 1781
epoch: 1000
next table: 1476
cur table: 1510
epoch: 1000
next table: 2714
cur table: 1476
epoch: 1000
next table: 2881
cur table: 2714
epoch: 1000
next table: 2573
cur table: 2563
epoch: 1000
next table: 1532
cur table: 2881
epoch: 1000
next table: 1494
cur table: 1532
epoch: 1000
next table: 1479
cur table: 1494
epoch: 1000
next table: 2203
cur table: 2573
epoch: 1000
next table: 1489
cur table: 1479
epoch: 1000
next table: 1887
cur table: 2203
epoch: 1000
next table: 2871
cur table: 1489
epoch: 1000
next table: 3079
cur table: 2871
epoch: 1000
next table: 1527
cur table: 3079
epoch: 1000
next table: 1517
cur table: 1527
epoch: 1000
next table: 2575
cur table: 1887
epoch: 1000
next table: 1441
cur table: 1517
epoch: 1000
next table: 1478
cur table: 1441
epoch: 1000
next table: 1816
cur table: 2575
epoch: 1000
next table: 1451
cur table: 1478
epoch: 1000
next table: 1478
cur table: 1816
epoch: 1000
next table: 1437
cur table: 1451
epoch: 1000
next table: 2916
cur table: 1437
epoch: 1000
next table: 1769
cur table: 1478
epoch: 1000
next table: 1600
cur table: 2916
epoch: 1000
next table: 1515
cur table: 1600
epoch: 1000
next table: 2148
cur table: 1769
epoch: 1000
next table: 1477
cur table: 1515
epoch: 1000
next table: 1439
cur table: 1477
epoch: 1000
next table: 1858
cur table: 2148
epoch: 1000
next table: 1436
cur table: 1439
epoch: 1000
next table: 1397
cur table: 1436
epoch: 1000
next table: 1569
cur table: 1858
epoch: 1000
next table: 1399
cur table: 1397
epoch: 1000
next table: 1437
cur table: 1569
epoch: 1000
next table: 1403
cur table: 1399
epoch: 1000
next table: 2752
cur table: 1403
epoch: 1000
next table: 1917
cur table: 1437
epoch: 1000
next table: 3544
cur table: 2752
epoch: 1000
next table: 3838
cur table: 3544
epoch: 1000
next table: 2061
cur table: 1917
epoch: 1000
next table: 2163
cur table: 3838
epoch: 1000
next table: 1854
cur table: 2061
epoch: 1000
next table: 1529
cur table: 2163
epoch: 1000
next table: 1573
cur table: 1529
epoch: 1000
next table: 1822
cur table: 1854
epoch: 1000
next table: 1662
cur table: 1573
epoch: 1000
next table: 1647
cur table: 1662
epoch: 1000
next table: 1811
cur table: 1822
epoch: 1000
next table: 1639
cur table: 1647
epoch: 1000
next table: 1784
cur table: 1811
epoch: 1000
next table: 1658
cur table: 1639
epoch: 1000
next table: 1724
cur table: 1784
epoch: 1000
next table: 1635
cur table: 1658
epoch: 1000
next table: 1660
cur table: 1635
epoch: 1000
next table: 1705
cur table: 1724
epoch: 1000
next table: 1672
cur table: 1660
epoch: 1000
next table: 1729
cur table: 1705
epoch: 1000
next table: 1650
cur table: 1672
epoch: 1000
next table: 1759
cur table: 1729
epoch: 1000
next table: 1637
cur table: 1650
epoch: 1000
next table: 1635
cur table: 1637
epoch: 1000
next table: 1726
cur table: 1759
epoch: 1000
next table: 1681
cur table: 1635
epoch: 1000
next table: 1740
cur table: 1726
epoch: 1000
next table: 1646
cur table: 1681
epoch: 1000
next table: 1720
cur table: 1740
epoch: 1000
next table: 1655
cur table: 1646
epoch: 1000
next table: 1650
cur table: 1655
epoch: 1000
next table: 1694
cur table: 1720
epoch: 1000
next table: 1652
cur table: 1650
epoch: 1000
next table: 1704
cur table: 1694
epoch: 1000
next table: 1664
cur table: 1652
epoch: 1000
next table: 1680
cur table: 1704
epoch: 1000
next table: 1640
cur table: 1664
epoch: 1000
next table: 1652
cur table: 1640
epoch: 1000
next table: 1713
cur table: 1680
epoch: 1000
next table: 1666
cur table: 1652
epoch: 1000
next table: 1734
cur table: 1713
epoch: 1000
next table: 1667
cur table: 1666
epoch: 1000
next table: 1757
cur table: 1734
epoch: 1000
next table: 1674
cur table: 1667
epoch: 1000
next table: 1655
cur table: 1674
epoch: 1000
next table: 1736
cur table: 1757
epoch: 1000
next table: 1682
cur table: 1655
epoch: 1000
next table: 1695
cur table: 1736
epoch: 1000
next table: 1650
cur table: 1682
epoch: 1000
next table: 1690
cur table: 1695
epoch: 1000
next table: 1661
cur table: 1650
epoch: 1000
next table: 1660
cur table: 1690
epoch: 1000
next table: 1651
cur table: 1661
epoch: 1000
next table: 1647
cur table: 1651
epoch: 1000
next table: 1681
cur table: 1660
epoch: 1000
next table: 1652
cur table: 1647
epoch: 1000
next table: 1697
cur table: 1681
epoch: 1000
next table: 1657
cur table: 1652
epoch: 1000
next table: 1687
cur table: 1697
epoch: 1000
next table: 1676
cur table: 1657
epoch: 1000
next table: 1657
cur table: 1687
epoch: 1000
next table: 1647
cur table: 1676
epoch: 1000
next table: 1660
cur table: 1647
epoch: 1000
next table: 1670
cur table: 1657
epoch: 1000
next table: 1653
cur table: 1660
epoch: 1000
next table: 1680
cur table: 1670
epoch: 1000
next table: 1650
cur table: 1653
epoch: 1000
next table: 1763
cur table: 1680
epoch: 1000
next table: 1658
cur table: 1650
epoch: 1000
next table: 1673
cur table: 1658
epoch: 1000
next table: 1833
cur table: 1763
epoch: 1000
next table: 1631
cur table: 1673
epoch: 1000
next table: 1820
cur table: 1833
epoch: 1000
next table: 1650
cur table: 1631
epoch: 1000
next table: 1677
cur table: 1650
epoch: 1000
next table: 1915
cur table: 1820
epoch: 1000
next table: 1674
cur table: 1677
epoch: 1000
next table: 1646
cur table: 1674
epoch: 1000
next table: 1894
cur table: 1915
epoch: 1000
next table: 1654
cur table: 1646
epoch: 1000
next table: 1978
cur table: 1894
epoch: 1000
next table: 1671
cur table: 1654
epoch: 1000
next table: 1656
cur table: 1671
epoch: 1000
next table: 2022
cur table: 1978
epoch: 1000
next table: 1661
cur table: 1656
epoch: 1000
next table: 1663
cur table: 1661
epoch: 1000
next table: 2031
cur table: 2022
epoch: 1000
next table: 1652
cur table: 1663
epoch: 1000
next table: 1681
cur table: 1652
epoch: 1000
next table: 2116
cur table: 2031
epoch: 1000
next table: 1665
cur table: 1681
epoch: 1000
next table: 1667
cur table: 1665
epoch: 1000
next table: 2073
cur table: 2116
epoch: 1000
next table: 1634
cur table: 1667
epoch: 1000
next table: 1650
cur table: 1634
epoch: 1000
next table: 2073
cur table: 2073
epoch: 1000
next table: 1641
cur table: 1650
epoch: 1000
next table: 1660
cur table: 1641
epoch: 1000
next table: 2060
cur table: 2073
epoch: 1000
next table: 1645
cur table: 1660
epoch: 1000
next table: 1674
cur table: 1645
epoch: 1000
next table: 2106
cur table: 2060
epoch: 1000
next table: 1654
cur table: 1674
epoch: 1000
next table: 1638
cur table: 1654
epoch: 1000
next table: 1923
cur table: 2106
epoch: 1000
next table: 1680
cur table: 1638
epoch: 1000
next table: 1860
cur table: 1923
epoch: 1000
next table: 1656
cur table: 1680
epoch: 1000
next table: 1684
cur table: 1656
epoch: 1000
next table: 1862
cur table: 1860
epoch: 1000
next table: 1675
cur table: 1684
epoch: 1000
next table: 1846
cur table: 1862
epoch: 1000
next table: 1656
cur table: 1675
epoch: 1000
next table: 1673
cur table: 1656
epoch: 1000
next table: 1824
cur table: 1846
epoch: 1000
next table: 1653
cur table: 1673
epoch: 1000
next table: 1797
cur table: 1824
epoch: 1000
next table: 1657
cur table: 1653
epoch: 1000
next table: 1743
cur table: 1657
epoch: 1000
next table: 2045
cur table: 1743
epoch: 1000
next table: 2842
cur table: 1797
epoch: 1000
next table: 2773
cur table: 2045
epoch: 1000
next table: 2202
cur table: 2773
epoch: 1000
next table: 1674
cur table: 2202
epoch: 1000
next table: 2924
cur table: 2842
epoch: 1000
next table: 2264
cur table: 1674
epoch: 1000
next table: 1635
cur table: 2264
epoch: 1000
next table: 1527
cur table: 1635
epoch: 1000
next table: 2473
cur table: 2924
epoch: 1000
next table: 1509
cur table: 1527
epoch: 1000
next table: 1489
cur table: 1509
epoch: 1000
next table: 1772
cur table: 2473
epoch: 1000
next table: 1480
cur table: 1489
epoch: 1000
next table: 1526
cur table: 1480
epoch: 1000
next table: 1782
cur table: 1772
epoch: 1000
next table: 1388
cur table: 1526
epoch: 1000
next table: 1521
cur table: 1782
epoch: 1000
next table: 1476
cur table: 1388
epoch: 1000
next table: 1482
cur table: 1521
epoch: 1000
next table: 1348
cur table: 1476
epoch: 1000
next table: 2322
cur table: 1348
epoch: 1000
next table: 3176
cur table: 2322
epoch: 1000
next table: 2316
cur table: 1482
epoch: 1000
next table: 1560
cur table: 3176
epoch: 1000
next table: 1534
cur table: 1560
epoch: 1000
next table: 1988
cur table: 2316
epoch: 1000
next table: 1540
cur table: 1534
epoch: 1000
next table: 1874
cur table: 1988
epoch: 1000
next table: 1649
cur table: 1540
epoch: 1000
next table: 1661
cur table: 1649
epoch: 1000
next table: 1888
cur table: 1874
epoch: 1000
next table: 1676
cur table: 1661
epoch: 1000
next table: 1831
cur table: 1888
epoch: 1000
next table: 1645
cur table: 1676
epoch: 1000
next table: 1634
cur table: 1645
epoch: 1000
next table: 1707
cur table: 1831
epoch: 1000
next table: 1661
cur table: 1634
epoch: 1000
next table: 1726
cur table: 1707
epoch: 1000
next table: 1662
cur table: 1661
epoch: 1000
next table: 1640
cur table: 1662
epoch: 1000
next table: 1737
cur table: 1726
epoch: 1000
next table: 1632
cur table: 1640
epoch: 1000
next table: 1754
cur table: 1737
epoch: 1000
next table: 1646
cur table: 1632
epoch: 1000
next table: 1731
cur table: 1754
epoch: 1000
next table: 1677
cur table: 1646
epoch: 1000
next table: 1650
cur table: 1677
epoch: 1000
next table: 1719
cur table: 1731
epoch: 1000
next table: 1660
cur table: 1650
epoch: 1000
next table: 1747
cur table: 1719
epoch: 1000
next table: 1669
cur table: 1660
epoch: 1000
next table: 1696
cur table: 1747
epoch: 1000
next table: 1645
cur table: 1669
epoch: 1000
next table: 1704
cur table: 1696
epoch: 1000
next table: 1666
cur table: 1645
epoch: 1000
next table: 1660
cur table: 1666
epoch: 1000
next table: 1706
cur table: 1704
epoch: 1000
next table: 1637
cur table: 1660
epoch: 1000
next table: 1702
cur table: 1706
epoch: 1000
next table: 1679
cur table: 1637
epoch: 1000
next table: 1750
cur table: 1702
epoch: 1000
next table: 1661
cur table: 1679
epoch: 1000
next table: 1663
cur table: 1661
epoch: 1000
next table: 1746
cur table: 1750
epoch: 1000
next table: 1679
cur table: 1663
epoch: 1000
next table: 1755
cur table: 1746
epoch: 1000
next table: 1673
cur table: 1679
epoch: 1000
next table: 1682
cur table: 1755
epoch: 1000
next table: 1647
cur table: 1673
epoch: 1000
next table: 1674
cur table: 1647
epoch: 1000
next table: 1694
cur table: 1682
epoch: 1000
next table: 1648
cur table: 1674
epoch: 1000
next table: 1674
cur table: 1694
epoch: 1000
next table: 1647
cur table: 1648
epoch: 1000
next table: 1701
cur table: 1674
epoch: 1000
next table: 1659
cur table: 1647
epoch: 1000
next table: 1702
cur table: 1701
epoch: 1000
next table: 1667
cur table: 1659
epoch: 1000
next table: 1676
cur table: 1667
epoch: 1000
next table: 1724
cur table: 1702
epoch: 1000
next table: 1665
cur table: 1676
epoch: 1000
next table: 1687
cur table: 1724
epoch: 1000
next table: 1661
cur table: 1665
epoch: 1000
next table: 1713
cur table: 1687
epoch: 1000
next table: 1671
cur table: 1661
epoch: 1000
next table: 1653
cur table: 1671
epoch: 1000
next table: 1719
cur table: 1713
epoch: 1000
next table: 1654
cur table: 1653
epoch: 1000
next table: 1798
cur table: 1719
epoch: 1000
next table: 1664
cur table: 1654
epoch: 1000
next table: 1636
cur table: 1664
epoch: 1000
next table: 1831
cur table: 1798
epoch: 1000
next table: 1657
cur table: 1636
epoch: 1000
next table: 1875
cur table: 1831
epoch: 1000
next table: 1680
cur table: 1657
epoch: 1000
next table: 1667
cur table: 1680
epoch: 1000
next table: 1916
cur table: 1875
epoch: 1000
next table: 1653
cur table: 1667
epoch: 1000
next table: 1643
cur table: 1653
epoch: 1000
next table: 1912
cur table: 1916
epoch: 1000
next table: 1662
cur table: 1643
epoch: 1000
next table: 1992
cur table: 1912
epoch: 1000
next table: 1656
cur table: 1662
epoch: 1000
next table: 1660
cur table: 1656
epoch: 1000
next table: 2042
cur table: 1992
epoch: 1000
next table: 1665
cur table: 1660
epoch: 1000
next table: 1656
cur table: 1665
epoch: 1000
next table: 2109
cur table: 2042
epoch: 1000
next table: 1695
cur table: 1656
epoch: 1000
next table: 1686
cur table: 1695
epoch: 1000
next table: 2061
cur table: 2109
epoch: 1000
next table: 1680
cur table: 1686
epoch: 1000
next table: 1674
cur table: 1680
epoch: 1000
next table: 2067
cur table: 2061
epoch: 1000
next table: 1675
cur table: 1674
epoch: 1000
next table: 1691
cur table: 1675
epoch: 1000
next table: 2079
cur table: 2067
epoch: 1000
next table: 1685
cur table: 1691
epoch: 1000
next table: 1675
cur table: 1685
epoch: 1000
next table: 2054
cur table: 2079
epoch: 1000
next table: 1653
cur table: 1675
epoch: 1000
next table: 1686
cur table: 1653
epoch: 1000
next table: 1943
cur table: 2054
epoch: 1000
next table: 1676
cur table: 1686
epoch: 1000
next table: 1734
cur table: 1676
epoch: 1000
next table: 1887
cur table: 1943
epoch: 1000
next table: 1727
cur table: 1734
epoch: 1000
next table: 1827
cur table: 1887
epoch: 1000
next table: 1718
cur table: 1727
epoch: 1000
next table: 1735
cur table: 1718
epoch: 1000
next table: 1796
cur table: 1827
epoch: 1000
next table: 1853
cur table: 1735
epoch: 1000
next table: 1799
cur table: 1796
epoch: 1000
next table: 1987
cur table: 1853
epoch: 1000
next table: 2597
cur table: 1987
epoch: 1000
next table: 2241
cur table: 1799
epoch: 1000
next table: 4335
cur table: 2597
epoch: 1000
next table: 1763
cur table: 4335
epoch: 1000
next table: 1571
cur table: 1763
epoch: 1000
next table: 2255
cur table: 2241
epoch: 1000
next table: 1661
cur table: 1571
Heartbeat CPU 0 instructions: 20000000 cycles: 6201772 heartbeat IPC: 3.2289 cumulative IPC: 3.22488 (Simulation time: 0 hr 14 min 34 sec) 
epoch: 1000
next table: 3953
cur table: 1661
epoch: 1000
next table: 2478
cur table: 2255
epoch: 1000
next table: 1968
cur table: 3953
epoch: 1000
next table: 1651
cur table: 1968
epoch: 1000
next table: 2019
cur table: 2478
epoch: 1000
next table: 1678
cur table: 1651
epoch: 1000
next table: 1689
cur table: 1678
epoch: 1000
next table: 1884
cur table: 2019
epoch: 1000
next table: 1694
cur table: 1689
epoch: 1000
next table: 1679
cur table: 1694
epoch: 1000
next table: 1843
cur table: 1884
epoch: 1000
next table: 1664
cur table: 1679
epoch: 1000
next table: 1788
cur table: 1843
epoch: 1000
next table: 1671
cur table: 1664
epoch: 1000
next table: 1679
cur table: 1671
epoch: 1000
next table: 1722
cur table: 1788
epoch: 1000
next table: 1685
cur table: 1679
epoch: 1000
next table: 1722
cur table: 1722
epoch: 1000
next table: 1663
cur table: 1685
epoch: 1000
next table: 1711
cur table: 1722
epoch: 1000
next table: 1644
cur table: 1663
epoch: 1000
next table: 1682
cur table: 1644
epoch: 1000
next table: 1699
cur table: 1711
epoch: 1000
next table: 1694
cur table: 1682
epoch: 1000
next table: 1701
cur table: 1699
epoch: 1000
next table: 1663
cur table: 1694
epoch: 1000
next table: 1687
cur table: 1701
epoch: 1000
next table: 1676
cur table: 1663
epoch: 1000
next table: 1683
cur table: 1676
epoch: 1000
next table: 1682
cur table: 1687
epoch: 1000
next table: 1679
cur table: 1683
epoch: 1000
next table: 1673
cur table: 1682
epoch: 1000
next table: 1663
cur table: 1679
epoch: 1000
next table: 1670
cur table: 1673
epoch: 1000
next table: 1656
cur table: 1663
epoch: 1000
next table: 1703
cur table: 1670
epoch: 1000
next table: 1652
cur table: 1656
epoch: 1000
next table: 1662
cur table: 1652
epoch: 1000
next table: 1718
cur table: 1703
epoch: 1000
next table: 1699
cur table: 1662
epoch: 1000
next table: 1726
cur table: 1718
epoch: 1000
next table: 1686
cur table: 1699
epoch: 1000
next table: 1712
cur table: 1726
epoch: 1000
next table: 1673
cur table: 1686
epoch: 1000
next table: 1682
cur table: 1673
epoch: 1000
next table: 1659
cur table: 1712
epoch: 1000
next table: 1689
cur table: 1682
epoch: 1000
next table: 1666
cur table: 1659
epoch: 1000
next table: 1674
cur table: 1689
epoch: 1000
next table: 1650
cur table: 1666
epoch: 1000
next table: 1690
cur table: 1674
epoch: 1000
next table: 1659
cur table: 1650
epoch: 1000
next table: 1662
cur table: 1690
epoch: 1000
next table: 1671
cur table: 1662
epoch: 1000
next table: 1682
cur table: 1659
epoch: 1000
next table: 1698
cur table: 1671
epoch: 1000
next table: 1697
cur table: 1682
epoch: 1000
next table: 1676
cur table: 1698
epoch: 1000
next table: 1675
cur table: 1697
epoch: 1000
next table: 1698
cur table: 1676
epoch: 1000
next table: 1669
cur table: 1698
epoch: 1000
next table: 1689
cur table: 1675
epoch: 1000
next table: 1677
cur table: 1669
epoch: 1000
next table: 1712
cur table: 1689
epoch: 1000
next table: 1684
cur table: 1677
epoch: 1000
next table: 1798
cur table: 1712
epoch: 1000
next table: 1694
cur table: 1684
epoch: 1000
next table: 1656
cur table: 1694
epoch: 1000
next table: 1788
cur table: 1798
epoch: 1000
next table: 1661
cur table: 1656
epoch: 1000
next table: 1852
cur table: 1788
epoch: 1000
next table: 1713
cur table: 1661
epoch: 1000
next table: 1699
cur table: 1713
epoch: 1000
next table: 1877
cur table: 1852
epoch: 1000
next table: 1680
cur table: 1699
epoch: 1000
next table: 1675
cur table: 1680
epoch: 1000
next table: 1947
cur table: 1877
epoch: 1000
next table: 1699
cur table: 1675
epoch: 1000
next table: 1699
cur table: 1699
epoch: 1000
next table: 2022
cur table: 1947
epoch: 1000
next table: 1681
cur table: 1699
epoch: 1000
next table: 1671
cur table: 1681
epoch: 1000
next table: 2007
cur table: 2022
epoch: 1000
next table: 1682
cur table: 1671
epoch: 1000
next table: 1682
cur table: 1682
epoch: 1000
next table: 2110
cur table: 2007
epoch: 1000
next table: 1720
cur table: 1682
epoch: 1000
next table: 1679
cur table: 1720
epoch: 1000
next table: 2052
cur table: 2110
epoch: 1000
next table: 1682
cur table: 1679
epoch: 1000
next table: 1698
cur table: 1682
epoch: 1000
next table: 2063
cur table: 2052
epoch: 1000
next table: 1680
cur table: 1698
epoch: 1000
next table: 1688
cur table: 1680
epoch: 1000
next table: 2034
cur table: 2063
epoch: 1000
next table: 1679
cur table: 1688
epoch: 1000
next table: 1657
cur table: 1679
epoch: 1000
next table: 2027
cur table: 2034
epoch: 1000
next table: 1675
cur table: 1657
epoch: 1000
next table: 1900
cur table: 2027
epoch: 1000
next table: 1707
cur table: 1675
epoch: 1000
next table: 1712
cur table: 1707
epoch: 1000
next table: 1807
cur table: 1900
epoch: 1000
next table: 1745
cur table: 1712
epoch: 1000
next table: 1827
cur table: 1807
epoch: 1000
next table: 1707
cur table: 1745
epoch: 1000
next table: 1754
cur table: 1707
epoch: 1000
next table: 1809
cur table: 1827
epoch: 1000
next table: 1879
cur table: 1754
epoch: 1000
next table: 1768
cur table: 1809
epoch: 1000
next table: 1994
cur table: 1879
epoch: 1000
next table: 3029
cur table: 1994
epoch: 1000
next table: 3328
cur table: 3029
epoch: 1000
next table: 2488
cur table: 1768
epoch: 1000
next table: 1637
cur table: 3328
epoch: 1000
next table: 1551
cur table: 1637
epoch: 1000
next table: 2049
cur table: 2488
epoch: 1000
next table: 1500
cur table: 1551
epoch: 1000
next table: 1888
cur table: 1500
epoch: 1000
next table: 2138
cur table: 1888
epoch: 1000
next table: 2361
cur table: 2049
epoch: 1000
next table: 2861
cur table: 2138
epoch: 1000
next table: 4163
cur table: 2861
epoch: 1000
next table: 1528
cur table: 4163
epoch: 1000
next table: 2648
cur table: 2361
epoch: 1000
next table: 1662
cur table: 1528
epoch: 1000
next table: 1667
cur table: 1662
epoch: 1000
next table: 1967
cur table: 2648
epoch: 1000
next table: 1695
cur table: 1667
epoch: 1000
next table: 1881
cur table: 1967
epoch: 1000
next table: 1672
cur table: 1695
epoch: 1000
next table: 1695
cur table: 1672
epoch: 1000
next table: 1853
cur table: 1881
epoch: 1000
next table: 1667
cur table: 1695
epoch: 1000
next table: 1760
cur table: 1853
epoch: 1000
next table: 1666
cur table: 1667
epoch: 1000
next table: 1675
cur table: 1666
epoch: 1000
next table: 1701
cur table: 1760
epoch: 1000
next table: 1676
cur table: 1675
epoch: 1000
next table: 1723
cur table: 1701
epoch: 1000
next table: 1668
cur table: 1676
epoch: 1000
next table: 1738
cur table: 1723
epoch: 1000
next table: 1671
cur table: 1668
epoch: 1000
next table: 1684
cur table: 1671
epoch: 1000
next table: 1702
cur table: 1738
epoch: 1000
next table: 1700
cur table: 1684
epoch: 1000
next table: 1697
cur table: 1702
epoch: 1000
next table: 1679
cur table: 1700
epoch: 1000
next table: 1725
cur table: 1697
epoch: 1000
next table: 1689
cur table: 1679
epoch: 1000
next table: 1683
cur table: 1689
epoch: 1000
next table: 1677
cur table: 1725
epoch: 1000
next table: 1672
cur table: 1683
epoch: 1000
next table: 1705
cur table: 1677
epoch: 1000
next table: 1680
cur table: 1672
epoch: 1000
next table: 1690
cur table: 1705
epoch: 1000
next table: 1659
cur table: 1680
epoch: 1000
next table: 1687
cur table: 1659
epoch: 1000
next table: 1742
cur table: 1690
epoch: 1000
next table: 1685
cur table: 1687
epoch: 1000
next table: 1737
cur table: 1742
epoch: 1000
next table: 1686
cur table: 1685
epoch: 1000
next table: 1745
cur table: 1737
epoch: 1000
next table: 1705
cur table: 1686
epoch: 1000
next table: 1703
cur table: 1705
epoch: 1000
next table: 1702
cur table: 1745
epoch: 1000
next table: 1688
cur table: 1703
epoch: 1000
next table: 1665
cur table: 1702
epoch: 1000
next table: 1686
cur table: 1688
epoch: 1000
next table: 1657
cur table: 1665
epoch: 1000
next table: 1667
cur table: 1686
epoch: 1000
next table: 1673
cur table: 1657
epoch: 1000
next table: 1681
cur table: 1667
epoch: 1000
next table: 1683
cur table: 1681
epoch: 1000
next table: 1678
cur table: 1673
epoch: 1000
next table: 1701
cur table: 1683
epoch: 1000
next table: 1698
cur table: 1678
epoch: 1000
next table: 1695
cur table: 1701
epoch: 1000
next table: 1689
cur table: 1698
epoch: 1000
next table: 1692
cur table: 1695
epoch: 1000
next table: 1683
cur table: 1689
epoch: 1000
next table: 1676
cur table: 1692
epoch: 1000
next table: 1679
cur table: 1676
epoch: 1000
next table: 1712
cur table: 1683
epoch: 1000
next table: 1675
cur table: 1679
epoch: 1000
next table: 1780
cur table: 1712
epoch: 1000
next table: 1689
cur table: 1675
epoch: 1000
next table: 1676
cur table: 1689
epoch: 1000
next table: 1804
cur table: 1780
epoch: 1000
next table: 1687
cur table: 1676
epoch: 1000
next table: 1823
cur table: 1804
epoch: 1000
next table: 1681
cur table: 1687
epoch: 1000
next table: 1699
cur table: 1681
epoch: 1000
next table: 1879
cur table: 1823
epoch: 1000
next table: 1684
cur table: 1699
epoch: 1000
next table: 1669
cur table: 1684
epoch: 1000
next table: 1888
cur table: 1879
epoch: 1000
next table: 1699
cur table: 1669
epoch: 1000
next table: 1998
cur table: 1888
epoch: 1000
next table: 1673
cur table: 1699
epoch: 1000
next table: 1694
cur table: 1673
epoch: 1000
next table: 2032
cur table: 1998
epoch: 1000
next table: 1687
cur table: 1694
epoch: 1000
next table: 1665
cur table: 1687
epoch: 1000
next table: 2082
cur table: 2032
epoch: 1000
next table: 1698
cur table: 1665
epoch: 1000
next table: 1718
cur table: 1698
epoch: 1000
next table: 2112
cur table: 2082
epoch: 1000
next table: 1698
cur table: 1718
epoch: 1000
next table: 1672
cur table: 1698
epoch: 1000
next table: 2070
cur table: 2112
epoch: 1000
next table: 1697
cur table: 1672
epoch: 1000
next table: 1701
cur table: 1697
epoch: 1000
next table: 2057
cur table: 2070
epoch: 1000
next table: 1675
cur table: 1701
epoch: 1000
next table: 1679
cur table: 1675
epoch: 1000
next table: 2080
cur table: 2057
epoch: 1000
next table: 1675
cur table: 1679
epoch: 1000
next table: 1675
cur table: 1675
epoch: 1000
next table: 1922
cur table: 2080
epoch: 1000
next table: 1700
cur table: 1675
epoch: 1000
next table: 1708
cur table: 1700
epoch: 1000
next table: 1856
cur table: 1922
epoch: 1000
next table: 1725
cur table: 1708
epoch: 1000
next table: 1847
cur table: 1856
epoch: 1000
next table: 1728
cur table: 1725
epoch: 1000
next table: 1737
cur table: 1728
epoch: 1000
next table: 1818
cur table: 1847
epoch: 1000
next table: 1841
cur table: 1737
epoch: 1000
next table: 1812
cur table: 1818
epoch: 1000
next table: 1928
cur table: 1841
epoch: 1000
next table: 2619
cur table: 1928
epoch: 1000
next table: 2164
cur table: 1812
epoch: 1000
next table: 4251
cur table: 2619
epoch: 1000
next table: 1768
cur table: 2164
epoch: 1000
next table: 1991
cur table: 4251
epoch: 1000
next table: 3303
cur table: 1991
epoch: 1000
next table: 2204
cur table: 3303
epoch: 1000
next table: 2517
cur table: 1768
epoch: 1000
next table: 1560
cur table: 2204
epoch: 1000
next table: 1551
cur table: 1560
epoch: 1000
next table: 1960
cur table: 2517
epoch: 1000
next table: 1517
cur table: 1551
epoch: 1000
next table: 1470
cur table: 1517
epoch: 1000
next table: 1659
cur table: 1960
epoch: 1000
next table: 2151
cur table: 1470
epoch: 1000
next table: 2264
cur table: 2151
epoch: 1000
next table: 2237
cur table: 1659
epoch: 1000
next table: 1538
cur table: 2264
epoch: 1000
next table: 1637
cur table: 1538
epoch: 1000
next table: 2008
cur table: 2237
epoch: 1000
next table: 1692
cur table: 1637
epoch: 1000
next table: 1686
cur table: 1692
epoch: 1000
next table: 1892
cur table: 2008
epoch: 1000
next table: 1690
cur table: 1686
epoch: 1000
next table: 1869
cur table: 1892
epoch: 1000
next table: 1669
cur table: 1690
epoch: 1000
next table: 1656
cur table: 1669
epoch: 1000
next table: 1776
cur table: 1869
epoch: 1000
next table: 1673
cur table: 1656
epoch: 1000
next table: 1718
cur table: 1776
epoch: 1000
next table: 1689
cur table: 1673
epoch: 1000
next table: 1654
cur table: 1689
epoch: 1000
next table: 1736
cur table: 1718
epoch: 1000
next table: 1635
cur table: 1654
epoch: 1000
next table: 1712
cur table: 1736
epoch: 1000
next table: 1659
cur table: 1635
epoch: 1000
next table: 1693
cur table: 1712
epoch: 1000
next table: 1683
cur table: 1659
epoch: 1000
next table: 1676
cur table: 1683
epoch: 1000
next table: 1694
cur table: 1693
epoch: 1000
next table: 1669
cur table: 1676
epoch: 1000
next table: 1712
cur table: 1694
epoch: 1000
next table: 1690
cur table: 1669
epoch: 1000
next table: 1682
cur table: 1712
epoch: 1000
next table: 1670
cur table: 1690
epoch: 1000
next table: 1708
cur table: 1682
epoch: 1000
next table: 1685
cur table: 1670
epoch: 1000
next table: 1670
cur table: 1685
epoch: 1000
next table: 1702
cur table: 1708
epoch: 1000
next table: 1663
cur table: 1670
epoch: 1000
next table: 1732
cur table: 1702
epoch: 1000
next table: 1671
cur table: 1663
epoch: 1000
next table: 1742
cur table: 1732
epoch: 1000
next table: 1696
cur table: 1671
epoch: 1000
next table: 1682
cur table: 1696
epoch: 1000
next table: 1732
cur table: 1742
epoch: 1000
next table: 1692
cur table: 1682
epoch: 1000
next table: 1725
cur table: 1732
epoch: 1000
next table: 1679
cur table: 1692
epoch: 1000
next table: 1664
cur table: 1725
epoch: 1000
next table: 1679
cur table: 1679
epoch: 1000
next table: 1684
cur table: 1679
epoch: 1000
next table: 1671
cur table: 1664
epoch: 1000
next table: 1670
cur table: 1684
epoch: 1000
next table: 1662
cur table: 1671
epoch: 1000
next table: 1667
cur table: 1670
epoch: 1000
next table: 1688
cur table: 1662
epoch: 1000
next table: 1692
cur table: 1667
epoch: 1000
next table: 1698
cur table: 1692
epoch: 1000
next table: 1713
cur table: 1688
epoch: 1000
next table: 1677
cur table: 1698
epoch: 1000
next table: 1695
cur table: 1713
epoch: 1000
next table: 1688
cur table: 1677
epoch: 1000
next table: 1689
cur table: 1695
epoch: 1000
next table: 1686
cur table: 1688
epoch: 1000
next table: 1707
cur table: 1689
epoch: 1000
next table: 1652
cur table: 1686
epoch: 1000
next table: 1675
cur table: 1652
epoch: 1000
next table: 1772
cur table: 1707
epoch: 1000
next table: 1692
cur table: 1675
epoch: 1000
next table: 1789
cur table: 1772
epoch: 1000
next table: 1659
cur table: 1692
epoch: 1000
next table: 1676
cur table: 1659
epoch: 1000
next table: 1822
cur table: 1789
epoch: 1000
next table: 1706
cur table: 1676
epoch: 1000
next table: 1691
cur table: 1706
epoch: 1000
next table: 1891
cur table: 1822
epoch: 1000
next table: 1680
cur table: 1691
epoch: 1000
next table: 1915
cur table: 1891
epoch: 1000
next table: 1684
cur table: 1680
epoch: 1000
next table: 1683
cur table: 1684
epoch: 1000
next table: 1993
cur table: 1915
epoch: 1000
next table: 1682
cur table: 1683
epoch: 1000
next table: 1685
cur table: 1682
epoch: 1000
next table: 2030
cur table: 1993
epoch: 1000
next table: 1671
cur table: 1685
epoch: 1000
next table: 1682
cur table: 1671
epoch: 1000
next table: 2110
cur table: 2030
epoch: 1000
next table: 1685
cur table: 1682
epoch: 1000
next table: 1697
cur table: 1685
epoch: 1000
next table: 2062
cur table: 2110
epoch: 1000
next table: 1686
cur table: 1697
epoch: 1000
next table: 1670
cur table: 1686
epoch: 1000
next table: 2039
cur table: 2062
epoch: 1000
next table: 1677
cur table: 1670
epoch: 1000
next table: 1696
cur table: 1677
epoch: 1000
next table: 2078
cur table: 2039
epoch: 1000
next table: 1684
cur table: 1696
epoch: 1000
next table: 1672
cur table: 1684
epoch: 1000
next table: 2089
cur table: 2078
epoch: 1000
next table: 1679
cur table: 1672
epoch: 1000
next table: 1678
cur table: 1679
epoch: 1000
next table: 1952
cur table: 2089
epoch: 1000
next table: 1687
cur table: 1678
epoch: 1000
next table: 1878
cur table: 1952
epoch: 1000
next table: 1716
cur table: 1687
epoch: 1000
next table: 1724
cur table: 1716
epoch: 1000
next table: 1838
cur table: 1878
epoch: 1000
next table: 1705
cur table: 1724
epoch: 1000
next table: 1716
cur table: 1705
epoch: 1000
next table: 1805
cur table: 1838
epoch: 1000
next table: 1809
cur table: 1716
epoch: 1000
next table: 1805
cur table: 1805
epoch: 1000
next table: 1869
cur table: 1809
epoch: 1000
next table: 2296
cur table: 1869
epoch: 1000
next table: 2125
cur table: 1805
epoch: 1000
next table: 4408
cur table: 2296
epoch: 1000
next table: 1758
cur table: 4408
epoch: 1000
next table: 2775
cur table: 1758
epoch: 1000
next table: 2645
cur table: 2125
epoch: 1000
next table: 1580
cur table: 2775
epoch: 1000
next table: 1544
cur table: 1580
epoch: 1000
next table: 2735
cur table: 1544
epoch: 1000
next table: 2267
cur table: 2645
epoch: 1000
[...]
epoch: 1000
next table: 1624
cur table: 1642
epoch: 1000
next table: 1645
cur table: 1624
epoch: 1000
next table: 1954
cur table: 1927
epoch: 1000
next table: 1632
cur table: 1645
epoch: 1000
next table: 1942
cur table: 1954
epoch: 1000
next table: 1673
cur table: 1632
epoch: 1000
next table: 1622
cur table: 1673
epoch: 1000
next table: 1911
cur table: 1942
epoch: 1000
next table: 1627
cur table: 1622
epoch: 1000
next table: 1628
cur table: 1627
epoch: 1000
next table: 1956
cur table: 1911
epoch: 1000
next table: 1654
cur table: 1628
epoch: 1000
next table: 1626
cur table: 1654
epoch: 1000
next table: 1955
cur table: 1956
epoch: 1000
next table: 1639
cur table: 1626
epoch: 1000
next table: 1625
cur table: 1639
epoch: 1000
next table: 1964
cur table: 1955
epoch: 1000
next table: 1623
cur table: 1625
epoch: 1000
next table: 1618
cur table: 1623
epoch: 1000
next table: 1848
cur table: 1964
epoch: 1000
next table: 1665
cur table: 1618
epoch: 1000
next table: 1816
cur table: 1848
epoch: 1000
next table: 1640
cur table: 1665
epoch: 1000
next table: 1654
cur table: 1640
epoch: 1000
next table: 1798
cur table: 1816
epoch: 1000
next table: 1630
cur table: 1654
epoch: 1000
next table: 1758
cur table: 1798
epoch: 1000
next table: 1616
cur table: 1630
epoch: 1000
next table: 1662
cur table: 1616
epoch: 1000
next table: 1754
cur table: 1758
epoch: 1000
next table: 1665
cur table: 1662
epoch: 1000
next table: 1726
cur table: 1754
epoch: 1000
next table: 1632
cur table: 1665
epoch: 1000
next table: 2498
cur table: 1632
Heartbeat CPU 0 instructions: 100000003 cycles: 167370049 heartbeat IPC: 0.3241 cumulative IPC: 0.329351 (Simulation time: 1 hr 3 min 55 sec) 
Finished CPU 0 instructions: 50000000 cycles: 151813503 cumulative IPC: 0.329351 (Simulation time: 1 hr 3 min 55 sec) 

ChampSim completed all CPUs

Region of Interest Statistics

CPU 0 cumulative IPC: 0.329351 instructions: 50000000 cycles: 151813503
ITLB TOTAL     ACCESS:    7795978  HIT:    7764241  MISS:      31737  HIT %:    99.5929  MISS %:   0.407095   MPKI: 0.63474
ITLB LOAD TRANSLATION ACCESS:    7795978  HIT:    7764241  MISS:      31737  HIT %:    99.5929  MISS %:   0.407095   MPKI: 0.63474
ITLB PREFETCH  REQUESTED:          0  ISSUED:          0  USEFUL:          0  USELESS:          0
ITLB USEFUL LOAD PREFETCHES:          0 PREFETCH ISSUED TO LOWER LEVEL:          0  ACCURACY: -nan
ITLB TIMELY PREFETCHES:          0 LATE PREFETCHES: 0 DROPPED PREFETCHES: 0
ITLB PREFETCHES SAME FILL-ORIGIN LEVEL: 0 DIFFERENT FILL-ORIGIN LEVEL: 0
ITLB AVERAGE MISS LATENCY: 11.9351 cycles
ITLB RQ	ACCESS:    8959052	FORWARD:          0	MERGED:    1155493	TO_CACHE:    7803559

Revised Interactions: positive negative neutral
ITLB_interactions 0 0 0 -nan -nan -nan
DTLB TOTAL     ACCESS:   10397298  HIT:   10059986  MISS:     337312  HIT %:    96.7558  MISS %:    3.24423   MPKI: 6.74624
DTLB LOAD TRANSLATION ACCESS:   10397298  HIT:   10059986  MISS:     337312  HIT %:    96.7558  MISS %:    3.24423   MPKI: 6.74624
DTLB PREFETCH  REQUESTED:          0  ISSUED:          0  USEFUL:          0  USELESS:          0
DTLB USEFUL LOAD PREFETCHES:          0 PREFETCH ISSUED TO LOWER LEVEL:          0  ACCURACY: -nan
DTLB TIMELY PREFETCHES:          0 LATE PREFETCHES: 0 DROPPED PREFETCHES: 0
DTLB PREFETCHES SAME FILL-ORIGIN LEVEL: 0 DIFFERENT FILL-ORIGIN LEVEL: 0
DTLB AVERAGE MISS LATENCY: 34.8582 cycles
DTLB RQ	ACCESS:   11488538	FORWARD:          0	MERGED:    1049916	TO_CACHE:   10438622

Revised Interactions: positive negative neutral
DTLB_interactions 0 0 0 -nan -nan -nan
STLB TOTAL     ACCESS:    1568872  HIT:    1314402  MISS:     254470  HIT %:    83.7801  MISS %:    16.2199   MPKI: 5.0894
STLB LOAD TRANSLATION ACCESS:     369049  HIT:     114675  MISS:     254374  HIT %:    31.0731  MISS %:    68.9269   MPKI: 5.08748
STLB TRANSLATION FROM L1D PREFETCHER ACCESS:    1199823  HIT:    1199727  MISS:         96  HIT %:     99.992  MISS %: 0.00800118   MPKI: 0.00192
STLB PREFETCH  REQUESTED:          0  ISSUED:          0  USEFUL:         96  USELESS:          0
STLB USEFUL LOAD PREFETCHES:         96 PREFETCH ISSUED TO LOWER LEVEL:          0  ACCURACY: inf
STLB TIMELY PREFETCHES:         96 LATE PREFETCHES: 0 DROPPED PREFETCHES: 0
STLB PREFETCHES SAME FILL-ORIGIN LEVEL: 0 DIFFERENT FILL-ORIGIN LEVEL: 0
STLB AVERAGE MISS LATENCY: 34.6167 cycles
STLB RQ	ACCESS:    2174312	FORWARD:          0	MERGED:     605411	TO_CACHE:    1568901

Revised Interactions: positive negative neutral
STLB_interactions 0 0 0 -nan -nan -nan
STLB Hit, L1D data hit: 0
STLB Hit, L2C data hit: 0
STLB Hit, LLC data hit: 0
STLB Hit, LLC data miss: 0
STLB STLB hints to L2: 0
L1D TOTAL     ACCESS:   12878440  HIT:   10640837  MISS:    2237603  HIT %:    82.6252  MISS %:    17.3748   MPKI: 44.7521
L1D LOAD      ACCESS:    8971452  HIT:    7885006  MISS:    1086446  HIT %:      87.89  MISS %:      12.11   MPKI: 21.7289
L1D RFO       ACCESS:    2346953  HIT:    2325280  MISS:      21673  HIT %:    99.0765  MISS %:   0.923453   MPKI: 0.43346
L1D PREFETCH  ACCESS:    1560035  HIT:     430551  MISS:    1129484  HIT %:    27.5988  MISS %:    72.4012   MPKI: 22.5897
L1D PREFETCH  REQUESTED:    3610734  ISSUED:    3610530  USEFUL:     197956  USELESS:     931546
L1D USEFUL LOAD PREFETCHES:     197956 PREFETCH ISSUED TO LOWER LEVEL:    1129950  ACCURACY: 17.519
L1D TIMELY PREFETCHES:     197956 LATE PREFETCHES: 88080 DROPPED PREFETCHES: 0
L1D PREFETCHES SAME FILL-ORIGIN LEVEL: 1129950 DIFFERENT FILL-ORIGIN LEVEL: 0
L1D AVERAGE MISS LATENCY: 20308.2 cycles
L1D RQ	ACCESS:   14682101	FORWARD:          0	MERGED:    5530032	TO_CACHE:    9091144
L1D WQ	ACCESS:    2425925	FORWARD:      60929	MERGED:      28531	TO_CACHE:    2397394
L1D PQ	ACCESS:    1805267	FORWARD:          0	MERGED:          0	TO_CACHE:    1805263

Revised Interactions: positive negative neutral
L1D_interactions 0 0 0 -nan -nan -nan
L1D UNIQUE REGIONS ACCESSED: 0
L1D REGIONS CONFLICTS: 0
L1D Cross Page Prefetch Requests: 0
L1D Same Page Prefetch Requests: 3519547
L1D ROI Sum of L1D PQ occupancy: 23493336
L1D PREFETCHES PUSHED FROM L2C: 0
L1I TOTAL     ACCESS:    8910346  HIT:    8734296  MISS:     176050  HIT %:    98.0242  MISS %:    1.97579   MPKI: 3.521
L1I LOAD      ACCESS:    8910346  HIT:    8734296  MISS:     176050  HIT %:    98.0242  MISS %:    1.97579   MPKI: 3.521
L1I PREFETCH  REQUESTED:          0  ISSUED:          0  USEFUL:          0  USELESS:          0
L1I USEFUL LOAD PREFETCHES:          0 PREFETCH ISSUED TO LOWER LEVEL:          0  ACCURACY: -nan
L1I TIMELY PREFETCHES:          0 LATE PREFETCHES: 0 DROPPED PREFETCHES: 0
L1I PREFETCHES SAME FILL-ORIGIN LEVEL: 0 DIFFERENT FILL-ORIGIN LEVEL: 0
L1I AVERAGE MISS LATENCY: 17.4954 cycles
L1I RQ	ACCESS:   15131693	FORWARD:          0	MERGED:    6172641	TO_CACHE:    8959052

Revised Interactions: positive negative neutral
L1I_interactions 0 0 0 -nan -nan -nan
BTB TOTAL     ACCESS:    8240387  HIT:    8162325  MISS:      78062  HIT %:    99.0527  MISS %:    0.94731   MPKI: 1.56124
BTB BRANCH_DIRECT_JUMP	ACCESS:     125745  HIT:     125105  MISS:        640
BTB BRANCH_INDIRECT	ACCESS:      22046  HIT:       8847  MISS:      13199
BTB BRANCH_CONDITIONAL	ACCESS:    6916732  HIT:    6913884  MISS:       2848
BTB BRANCH_DIRECT_CALL	ACCESS:     323608  HIT:     322533  MISS:       1075
BTB BRANCH_INDIRECT_CALL	ACCESS:     264324  HIT:     261288  MISS:       3036
BTB BRANCH_RETURN	ACCESS:     587932  HIT:     530668  MISS:      57264
BTB BRANCH_OTHER ACCESS:          0  HIT:          0  MISS:          0

L2C TOTAL     ACCESS:    2751252  HIT:     677316  MISS:    2073936  HIT %:    24.6185  MISS %:    75.3815   MPKI: 41.4787
L2C LOAD      ACCESS:    1262496  HIT:     279274  MISS:     983222  HIT %:    22.1208  MISS %:    77.8792   MPKI: 19.6644
L2C DATA LOAD MPKI: 19.3618
L2C INSTRUCTION LOAD MPKI: 0.30266
L2C RFO       ACCESS:      21200  HIT:      10470  MISS:      10730  HIT %:    49.3868  MISS %:    50.6132   MPKI: 0.2146
L2C PREFETCH  ACCESS:    1167801  HIT:     117504  MISS:    1050297  HIT %:     10.062  MISS %:     89.938   MPKI: 21.0059
L2C DATA PREFETCH MPKI: 21.0059
L2C INSTRUCTION PREFETCH MPKI: 0
L2C WRITEBACK ACCESS:      44104  HIT:      39477  MISS:       4627  HIT %:    89.5089  MISS %:    10.4911   MPKI: 0.09254
L2C LOAD TRANSLATION ACCESS:     255531  HIT:     230523  MISS:      25008  HIT %:    90.2133  MISS %:    9.78668   MPKI: 0.50016
L2C TRANSLATION FROM L1D PREFETCHER ACCESS:        120  HIT:         68  MISS:         52  HIT %:    56.6667  MISS %:    43.3333   MPKI: 0.00104
L2C PREFETCH  REQUESTED:      39496  ISSUED:      39496  USEFUL:       3175  USELESS:    1047108
L2C USEFUL LOAD PREFETCHES:       3175 PREFETCH ISSUED TO LOWER LEVEL:    1050650  ACCURACY: 0.302194
L2C TIMELY PREFETCHES:       3175 LATE PREFETCHES: 353 DROPPED PREFETCHES: 0
L2C PREFETCHES SAME FILL-ORIGIN LEVEL: 7884 DIFFERENT FILL-ORIGIN LEVEL: 0
L2C AVERAGE MISS LATENCY: 100.733 cycles
L2C RQ	ACCESS:    1539354	FORWARD:          0	MERGED:          0	TO_CACHE:    1539347
L2C WQ	ACCESS:      44104	FORWARD:          8	MERGED:          0	TO_CACHE:      44104
L2C PQ	ACCESS:    1169446	FORWARD:          0	MERGED:        795	TO_CACHE:    1168650

Revised Interactions: positive negative neutral
L2C_interactions 20367 1047821 490185 1.30694 67.2381 31.4549
L2C Instructions Evicting Data 11606
L2C Translations Evicting Data 24407
L2C Data Evicting Data 1993605
L2C Instructions Evicting Instructions 3003
L2C Translations Evicting Instructions 155
L2C Data Evicting Instructions 11660
L2C Instructions Evicting Translations 524
L2C Translations Evicting Translations 498
L2C Data Evicting Translations 23851
L2C Dense regions hint from L2: 0
PSCL5 TOTAL     ACCESS:     254470  HIT:     254470  MISS:          0  HIT %:        100  MISS %:          0   MPKI: 0
PSCL5 LOAD TRANSLATION ACCESS:     254374  HIT:     254374  MISS:          0  HIT %:        100  MISS %:          0   MPKI: 0
PSCL5 TRANSLATION FROM L1D PREFETCHER ACCESS:         96  HIT:         96  MISS:          0  HIT %:        100  MISS %:          0   MPKI: 0
PSCL5 PREFETCH  REQUESTED:          0  ISSUED:          0  USEFUL:          0  USELESS:          0
PSCL5 USEFUL LOAD PREFETCHES:          0 PREFETCH ISSUED TO LOWER LEVEL:          0  ACCURACY: -nan
PSCL5 TIMELY PREFETCHES:          0 LATE PREFETCHES: 0 DROPPED PREFETCHES: 0
PSCL5 PREFETCHES SAME FILL-ORIGIN LEVEL: 0 DIFFERENT FILL-ORIGIN LEVEL: 0

Revised Interactions: positive negative neutral
PSCL5_interactions 0 0 0 -nan -nan -nan
PSCL4 TOTAL     ACCESS:     254470  HIT:     254470  MISS:          0  HIT %:        100  MISS %:          0   MPKI: 0
PSCL4 LOAD TRANSLATION ACCESS:     254374  HIT:     254374  MISS:          0  HIT %:        100  MISS %:          0   MPKI: 0
PSCL4 TRANSLATION FROM L1D PREFETCHER ACCESS:         96  HIT:         96  MISS:          0  HIT %:        100  MISS %:          0   MPKI: 0
PSCL4 PREFETCH  REQUESTED:          0  ISSUED:          0  USEFUL:          0  USELESS:          0
PSCL4 USEFUL LOAD PREFETCHES:          0 PREFETCH ISSUED TO LOWER LEVEL:          0  ACCURACY: -nan
PSCL4 TIMELY PREFETCHES:          0 LATE PREFETCHES: 0 DROPPED PREFETCHES: 0
PSCL4 PREFETCHES SAME FILL-ORIGIN LEVEL: 0 DIFFERENT FILL-ORIGIN LEVEL: 0

Revised Interactions: positive negative neutral
PSCL4_interactions 0 0 0 -nan -nan -nan
PSCL3 TOTAL     ACCESS:     254470  HIT:     254470  MISS:          0  HIT %:        100  MISS %:          0   MPKI: 0
PSCL3 LOAD TRANSLATION ACCESS:     254374  HIT:     254374  MISS:          0  HIT %:        100  MISS %:          0   MPKI: 0
PSCL3 TRANSLATION FROM L1D PREFETCHER ACCESS:         96  HIT:         96  MISS:          0  HIT %:        100  MISS %:          0   MPKI: 0
PSCL3 PREFETCH  REQUESTED:          0  ISSUED:          0  USEFUL:          0  USELESS:          0
PSCL3 USEFUL LOAD PREFETCHES:          0 PREFETCH ISSUED TO LOWER LEVEL:          0  ACCURACY: -nan
PSCL3 TIMELY PREFETCHES:          0 LATE PREFETCHES: 0 DROPPED PREFETCHES: 0
PSCL3 PREFETCHES SAME FILL-ORIGIN LEVEL: 0 DIFFERENT FILL-ORIGIN LEVEL: 0

Revised Interactions: positive negative neutral
PSCL3_interactions 0 0 0 -nan -nan -nan
PSCL2 TOTAL     ACCESS:     254470  HIT:     253289  MISS:       1181  HIT %:    99.5359  MISS %:   0.464102   MPKI: 0.02362
PSCL2 LOAD TRANSLATION ACCESS:     254398  HIT:     253217  MISS:       1181  HIT %:    99.5358  MISS %:   0.464233   MPKI: 0.02362
PSCL2 TRANSLATION FROM L1D PREFETCHER ACCESS:         72  HIT:         72  MISS:          0  HIT %:        100  MISS %:          0   MPKI: 0
PSCL2 PREFETCH  REQUESTED:          0  ISSUED:          0  USEFUL:          0  USELESS:          0
PSCL2 USEFUL LOAD PREFETCHES:          0 PREFETCH ISSUED TO LOWER LEVEL:          0  ACCURACY: -nan
PSCL2 TIMELY PREFETCHES:          0 LATE PREFETCHES: 0 DROPPED PREFETCHES: 0
PSCL2 PREFETCHES SAME FILL-ORIGIN LEVEL: 0 DIFFERENT FILL-ORIGIN LEVEL: 0

Revised Interactions: positive negative neutral
PSCL2_interactions 0 0 0 -nan -nan -nan
LLC TOTAL     ACCESS:    2086329  HIT:     751433  MISS:    1334896  HIT %:     36.017  MISS %:     63.983   MPKI: 26.6979
LLC LOAD      ACCESS:     982879  HIT:     644268  MISS:     338611  HIT %:    65.5491  MISS %:    34.4509   MPKI: 6.77222
LLC RFO       ACCESS:      10720  HIT:       3158  MISS:       7562  HIT %:     29.459  MISS %:     70.541   MPKI: 0.15124
LLC PREFETCH  ACCESS:    1050650  HIT:      81549  MISS:     969101  HIT %:    7.76177  MISS %:    92.2382   MPKI: 19.382
LLC WRITEBACK ACCESS:      17020  HIT:       8982  MISS:       8038  HIT %:    52.7732  MISS %:    47.2268   MPKI: 0.16076
LLC LOAD TRANSLATION ACCESS:      25008  HIT:      13430  MISS:      11578  HIT %:    53.7028  MISS %:    46.2972   MPKI: 0.23156
LLC TRANSLATION FROM L1D PREFETCHER ACCESS:         52  HIT:         46  MISS:          6  HIT %:    88.4615  MISS %:    11.5385   MPKI: 0.00012
LLC PREFETCH  REQUESTED:          0  ISSUED:          0  USEFUL:        755  USELESS:     968514
LLC USEFUL LOAD PREFETCHES:        755 PREFETCH ISSUED TO LOWER LEVEL:     969101  ACCURACY: 0.0779073
LLC TIMELY PREFETCHES:        755 LATE PREFETCHES: 0 DROPPED PREFETCHES: 0
LLC PREFETCHES SAME FILL-ORIGIN LEVEL: 0 DIFFERENT FILL-ORIGIN LEVEL: 0
LLC AVERAGE MISS LATENCY: 110.007 cycles
LLC RQ	ACCESS:    1018659	FORWARD:          0	MERGED:          0	TO_CACHE:    1018659
LLC WQ	ACCESS:      17020	FORWARD:          0	MERGED:          0	TO_CACHE:      17020
LLC PQ	ACCESS:    1050650	FORWARD:          0	MERGED:          0	TO_CACHE:    1050650

Revised Interactions: positive negative neutral
LLC_interactions 1681 967563 236645 0.139399 80.2365 19.6241
LLC Dense regions hint to LLC: 0

RAW hits: 59957
Loads Generated: 14742059
Loads sent to L1D: 14682101
Stores Generated: 2425919
Stores sent to L1D: 2425925
Major fault: 0 Minor fault: 11043
Allocated PAGES: 11043

stream: 
stream:times selected: 4809349
stream:pref_filled: 1613158
stream:pref_useful: 290746
stream:pref_late: 129449
stream:misses: 630883
stream:misses_by_poll: 0

CS: 
CS:times selected: 128794
CS:pref_filled: 112739
CS:pref_useful: 76037
CS:pref_late: 1055
CS:misses: 16672
CS:misses_by_poll: 131

CPLX: 
CPLX:times selected: 4637241
CPLX:pref_filled: 426271
CPLX:pref_useful: 38526
CPLX:pref_late: 2484
CPLX:misses: 1761026
CPLX:misses_by_poll: 506

NL_L1: 
NL:times selected: 41127
NL:pref_filled: 17327
NL:pref_useful: 3655
NL:pref_late: 1803
NL:misses: 21050
NL:misses_by_poll: 3

total selections: 9616511
total_filled: 1129484
total_useful: 197956
total_late: 134812
total_polluted: 640
total_misses_after_warmup: 1206139
conflicts: 514945
Degree Incremented Times: 1705
Degree Decremented Times: 300191

L1 IP Table Write Accesses: 8272069
L1 IP Table Read Accesses: 7757124
L1 RST Write Accesses: 2310697
L1 RST Read Accesses: 4621394
L1 CSPT Write Accesses: 2310697
L1 CSPT Read Accesses: 4532316
L1 RR Filter Tag Write Accesses: 1805471
L1 RR Filter Tag Read Accesses: 88349342
L1 IP Table Tag Write Accesses: 9091145
L1 IP Table Tag Read Accesses: 9091145
L1 RST Tag Write Accesses: 0
L1 RST Tag Read Accesses: 21150111
L1 RR Filter Write Accesses: 0
L1 RR Filter Read Accesses: 2949147
test: 3000817
L2 IP Table Read Accesses: 4387781
L2 IP Table Write Accesses: 3359177
L2 IP Table Tag Read Accesses: 2214056
L2 IP Table Tag Write Accesses: 2214056

DRAM Statistics
 CHANNEL 0
 RQ ROW_BUFFER_HIT:     916602  ROW_BUFFER_MISS:     410256
 DBUS_CONGESTED:        157
 WQ ROW_BUFFER_HIT:        756  ROW_BUFFER_MISS:       9708  FULL:          0

 AVG_CONGESTED_CYCLE: 4
 All warmup complete: 2
Channel 0 Bank busy for read cycles: 0
Channel 0 Bank busy for write cycles: 0
Channel 0
Rank 0
0banks busy for read cycles: 94588307
0banks busy for write cycles: 9328
1banks busy for read cycles: 26057568
1banks busy for write cycles: 1555516
2banks busy for read cycles: 15405615
2banks busy for write cycles: 121839
3banks busy for read cycles: 8277847
3banks busy for write cycles: 16732
4banks busy for read cycles: 3890422
4banks busy for write cycles: 3951
5banks busy for read cycles: 1390555
5banks busy for write cycles: 693
6banks busy for read cycles: 352813
6banks busy for write cycles: 247
7banks busy for read cycles: 94217
7banks busy for write cycles: 23
8banks busy for read cycles: 47230
8banks busy for write cycles: 601

CPU 0 Branch Prediction Accuracy: 94.9771% MPKI: 13.0224 Average ROB Occupancy at Mispredict: 36.9293
Branch types
NOT_BRANCH: 37037113 74.0742%
BRANCH_DIRECT_JUMP: 125745 0.25149%
BRANCH_INDIRECT: 22046 0.044092%
BRANCH_CONDITIONAL: 11639280 23.2786%
BRANCH_DIRECT_CALL: 323608 0.647216%
BRANCH_INDIRECT_CALL: 264324 0.528648%
BRANCH_RETURN: 587932 1.17586%
BRANCH_OTHER: 0 0%

@sumon_overall_L1D    197956     88080     88080    931546   1129484   3610530   3610734
@Sumon_Early_by_class_L1D    136295     38961     21056      1118
@Sumon_Late_by_class_L1D     77242      1026      1548      1118

@Sumon_Early_by_cycle_L1D     43117     16864     36703     16513     16593     31891      7731      2524     22911      1675       757       677
@Sumon_Late_by_cycle_L1D      4063     13953     13014     27454     22465         0
@Sumon_Early_stream_L1D     40305     14582     26857     12114     12632     21841      4282      1586       529       940       326       301
@Sumon_Early_CS_L1D       830       860      3609      1910      1889      4833      1922       542     21937       248       210       171
@Sumon_Early_CPLX_L1D      1175      1139      6155      2464      1939      5052      1483       391       441       406       210       201
@Sumon_Late_stream_L1D      3774     13437     12459     26435     21137         0
@Sumon_Late_CS_L1D        65       113        73       151       624         0
@Sumon_Late_CPLX_L1D       176       255       310       450       357         0
@sumon_overall_L2C      3175       353         0   1047108   1050349     39496     39496
@Sumon_Early_by_class_L2C      1012       258       539         0
@Sumon_Late_by_class_L2C         0         0         0         0

@Sumon_Early_by_cycle_L2C       262       135        77        28        17        37        57       110       127       146       172      2007
@Sumon_Late_by_cycle_L2C        67        40        18       120       108         0
@Sumon_Early_stream_L2C         0         1         4         0         0         0         0         0         0        10        58       939
@Sumon_Early_CS_L2C         0         0         0         0         0         0         0         0         0        16        25       217
@Sumon_Early_CPLX_L2C         0         0         0         0         0         0         0         0         0        10        25       504
@Sumon_Late_stream_L2C         0         0         0         0         0         0
@Sumon_Late_CS_L2C         0         0         0         0         0         0
@Sumon_Late_CPLX_L2C         0         0         0         0         0         0
DRAM PAGES: 1048576
Allocated PAGES: 11043
