
*** ChampSim Multicore Out-of-Order Simulator ***

Warmup Instructions: 50000000
Simulation Instructions: 50000000
Number of CPUs: 1
LLC sets: 2048
LLC ways: 16
Off-chip DRAM Size: 4096 MB Channels: 1 Width: 64-bit Data Rate: 6400 MT/s
CPU 0 runs ../../biswa/SPEC2017Traces/623.xalancbmk_s-165B.champsimtrace.xz
.xz
CPU 0 Bimodal branch predictor
BTB has LRU replacement policy
ITLB has LRU replacement policy
DTLB has LRU replacement policy
STLB has LRU replacement policy
L1I has LRU replacement policy
IP Table Entries: 256
L1D has LRU replacement policy
IP_Table L2 entries: 256
Initialize DRRIP state for L2C
Initialize SRRIP state
epoch: 1000
next table: 1070
cur table: 1655
epoch: 1000
next table: 1067
cur table: 1070
epoch: 1000
next table: 1057
cur table: 1067
epoch: 1000
next table: 1050
cur table: 1057
epoch: 1000
next table: 1051
cur table: 1050
epoch: 1000
next table: 1068
cur table: 1051
epoch: 1000
next table: 1056
cur table: 1068
epoch: 1000
next table: 1056
cur table: 1056
epoch: 1000
next table: 1068
cur table: 1056
epoch: 1000
next table: 1049
cur table: 1068
epoch: 1000
next table: 1054
cur table: 1049
epoch: 1000
next table: 1056
cur table: 1054
epoch: 1000
next table: 1040
cur table: 1056
epoch: 1000
next table: 1052
cur table: 1040
epoch: 1000
next table: 1072
cur table: 1052
epoch: 1000
next table: 1042
cur table: 1072
epoch: 1000
next table: 1046
cur table: 1042
epoch: 1000
next table: 1044
cur table: 1046
epoch: 1000
next table: 1051
cur table: 1044
epoch: 1000
next table: 1049
cur table: 1051
epoch: 1000
next table: 1054
cur table: 1049
epoch: 1000
next table: 1062
cur table: 1054
epoch: 1000
next table: 1066
cur table: 1062
epoch: 1000
next table: 1054
cur table: 1066
epoch: 1000
next table: 1048
cur table: 1054
epoch: 1000
next table: 1036
cur table: 2329
epoch: 1000
next table: 1054
cur table: 1048
epoch: 1000
next table: 1035
cur table: 1036
epoch: 1000
next table: 1042
cur table: 1054
epoch: 1000
next table: 1040
cur table: 1035
epoch: 1000
next table: 1062
cur table: 1042
epoch: 1000
next table: 1036
cur table: 1040
epoch: 1000
next table: 1051
cur table: 1062
epoch: 1000
next table: 1032
cur table: 1051
epoch: 1000
next table: 1049
cur table: 1036
epoch: 1000
next table: 1036
cur table: 1032
epoch: 1000
next table: 1036
cur table: 1049
epoch: 1000
next table: 1033
cur table: 1036
epoch: 1000
next table: 1033
cur table: 1033
epoch: 1000
next table: 1041
cur table: 1033
epoch: 1000
next table: 1073
cur table: 1041
epoch: 1000
next table: 1057
cur table: 1073
epoch: 1000
next table: 1036
cur table: 1057
epoch: 1000
next table: 1040
cur table: 1036
epoch: 1000
next table: 1039
cur table: 1040
epoch: 1000
next table: 1051
cur table: 1039
epoch: 1000
next table: 1039
cur table: 1051
epoch: 1000
next table: 1040
cur table: 1039
epoch: 1000
next table: 1029
cur table: 1040
epoch: 1000
next table: 1038
cur table: 1029
epoch: 1000
next table: 1047
cur table: 1038
epoch: 1000
next table: 1033
cur table: 1047
epoch: 1000
next table: 1029
cur table: 1033
epoch: 1000
next table: 1036
cur table: 1029
epoch: 1000
next table: 1032
cur table: 1036
epoch: 1000
next table: 1032
cur table: 1032
epoch: 1000
next table: 1039
cur table: 1032
epoch: 1000
next table: 1034
cur table: 1039
epoch: 1000
next table: 1037
cur table: 1034
epoch: 1000
next table: 1031
cur table: 1037
epoch: 1000
next table: 1027
cur table: 1031
epoch: 1000
next table: 1034
cur table: 1027
epoch: 1000
next table: 1034
cur table: 1034
epoch: 1000
next table: 1029
cur table: 1034
epoch: 1000
next table: 1032
cur table: 1029
epoch: 1000
next table: 1036
cur table: 1032
epoch: 1000
next table: 1962
cur table: 1036
epoch: 1000
next table: 1031
cur table: 1036
epoch: 1000
next table: 1039
cur table: 1031
epoch: 1000
next table: 1064
cur table: 1962
epoch: 1000
next table: 1032
cur table: 1039
epoch: 1000
next table: 1035
cur table: 1064
epoch: 1000
next table: 1031
cur table: 1032
epoch: 1000
next table: 1042
cur table: 1035
epoch: 1000
next table: 1038
cur table: 1031
epoch: 1000
next table: 1035
cur table: 1038
epoch: 1000
next table: 1032
cur table: 1042
epoch: 1000
next table: 1041
cur table: 1035
epoch: 1000
next table: 1041
cur table: 1032
epoch: 1000
next table: 1037
cur table: 1041
epoch: 1000
next table: 1043
cur table: 1041
epoch: 1000
next table: 1027
cur table: 1037
epoch: 1000
next table: 1031
cur table: 1027
epoch: 1000
next table: 1046
cur table: 1043
epoch: 1000
next table: 1026
cur table: 1031
epoch: 1000
next table: 1026
cur table: 1026
epoch: 1000
next table: 1073
cur table: 1046
epoch: 1000
next table: 1078
cur table: 1026
epoch: 1000
next table: 1076
cur table: 1078
epoch: 1000
next table: 1062
cur table: 1076
epoch: 1000
next table: 1072
cur table: 1062
epoch: 1000
next table: 1055
cur table: 1072
epoch: 1000
next table: 1062
cur table: 1055
epoch: 1000
next table: 1051
cur table: 1062
epoch: 1000
next table: 1097
cur table: 1051
epoch: 1000
next table: 1053
cur table: 1097
epoch: 1000
next table: 1048
cur table: 1053
epoch: 1000
next table: 1507
cur table: 1073
epoch: 1000
next table: 1046
cur table: 1048
epoch: 1000
next table: 1053
cur table: 1046
epoch: 1000
next table: 1048
cur table: 1053
epoch: 1000
next table: 1054
cur table: 1048
epoch: 1000
next table: 1053
cur table: 1054
epoch: 1000
next table: 1056
cur table: 1053
epoch: 1000
next table: 1053
cur table: 1056
epoch: 1000
next table: 1060
cur table: 1053
epoch: 1000
next table: 1049
cur table: 1060
epoch: 1000
next table: 1048
cur table: 1049
epoch: 1000
next table: 1045
cur table: 1048
epoch: 1000
next table: 1047
cur table: 1045
epoch: 1000
next table: 1054
cur table: 1047
epoch: 1000
next table: 1048
cur table: 1054
epoch: 1000
next table: 1045
cur table: 1048
epoch: 1000
next table: 1060
cur table: 1045
epoch: 1000
next table: 1059
cur table: 1060
epoch: 1000
next table: 1052
cur table: 1059
epoch: 1000
next table: 1049
cur table: 1052
epoch: 1000
next table: 1844
cur table: 1507
epoch: 1000
next table: 1052
cur table: 1049
epoch: 1000
next table: 1052
cur table: 1052
epoch: 1000
next table: 1066
cur table: 1844
epoch: 1000
next table: 1061
cur table: 1052
epoch: 1000
next table: 1060
cur table: 1066
epoch: 1000
next table: 1046
cur table: 1061
epoch: 1000
next table: 1049
cur table: 1060
epoch: 1000
next table: 1045
cur table: 1046
epoch: 1000
next table: 1050
cur table: 1049
epoch: 1000
next table: 1059
cur table: 1045
epoch: 1000
next table: 1052
cur table: 1059
epoch: 1000
next table: 1073
cur table: 1050
epoch: 1000
next table: 1052
cur table: 1052
epoch: 1000
next table: 1057
cur table: 1052
epoch: 1000
next table: 1078
cur table: 1073
epoch: 1000
next table: 1091
cur table: 1057
epoch: 1000
next table: 1104
cur table: 1078
epoch: 1000
next table: 1059
cur table: 1091
epoch: 1000
next table: 1039
cur table: 1059
epoch: 1000
next table: 1052
cur table: 1039
epoch: 1000
next table: 1047
cur table: 1052
epoch: 1000
next table: 1039
cur table: 1047
epoch: 1000
next table: 1028
cur table: 1039
epoch: 1000
next table: 1190
cur table: 1104
epoch: 1000
next table: 1039
cur table: 1028
epoch: 1000
next table: 1029
cur table: 1039
epoch: 1000
next table: 1035
cur table: 1029
epoch: 1000
next table: 1044
cur table: 1035
epoch: 1000
next table: 1039
cur table: 1044
epoch: 1000
next table: 1035
cur table: 1039
epoch: 1000
next table: 1039
cur table: 1035
epoch: 1000
next table: 1041
cur table: 1039
epoch: 1000
next table: 1032
cur table: 1041
epoch: 1000
next table: 1032
cur table: 1032
epoch: 1000
next table: 1032
cur table: 1032
epoch: 1000
next table: 1032
cur table: 1032
epoch: 1000
next table: 1043
cur table: 1032
epoch: 1000
next table: 1025
cur table: 1043
epoch: 1000
next table: 1040
cur table: 1025
epoch: 1000
next table: 1034
cur table: 1040
epoch: 1000
next table: 1036
cur table: 1034
epoch: 1000
next table: 1029
cur table: 1036
epoch: 1000
next table: 1031
cur table: 1029
epoch: 1000
next table: 1032
cur table: 1031
epoch: 1000
next table: 1030
cur table: 1032
epoch: 1000
next table: 1029
cur table: 1030
epoch: 1000
next table: 1035
cur table: 1029
epoch: 1000
next table: 1725
cur table: 1190
epoch: 1000
next table: 1037
cur table: 1035
epoch: 1000
next table: 1030
cur table: 1037
epoch: 1000
next table: 1050
cur table: 1725
epoch: 1000
next table: 1036
cur table: 1030
epoch: 1000
next table: 1039
cur table: 1036
epoch: 1000
next table: 1065
cur table: 1050
epoch: 1000
next table: 1067
cur table: 1039
epoch: 1000
next table: 1069
cur table: 1065
epoch: 1000
next table: 1044
cur table: 1067
epoch: 1000
next table: 1038
cur table: 1069
epoch: 1000
next table: 1034
cur table: 1044
epoch: 1000
next table: 1032
cur table: 1034
epoch: 1000
next table: 1071
cur table: 1038
epoch: 1000
next table: 1088
cur table: 1032
epoch: 1000
next table: 1042
cur table: 1088
epoch: 1000
next table: 1064
cur table: 1071
epoch: 1000
next table: 1032
cur table: 1042
epoch: 1000
next table: 1038
cur table: 1032
epoch: 1000
next table: 1090
cur table: 1064
epoch: 1000
next table: 1052
cur table: 1038
epoch: 1000
next table: 1023
cur table: 1052
epoch: 1000
next table: 1035
cur table: 1023
epoch: 1000
next table: 1043
cur table: 1035
epoch: 1000
next table: 1035
cur table: 1043
epoch: 1000
next table: 1029
cur table: 1035
epoch: 1000
next table: 1039
cur table: 1029
epoch: 1000
next table: 1027
cur table: 1039
epoch: 1000
next table: 1030
cur table: 1027
epoch: 1000
next table: 1041
cur table: 1030
epoch: 1000
next table: 1043
cur table: 1041
epoch: 1000
next table: 1334
cur table: 1090
epoch: 1000
next table: 1040
cur table: 1043
epoch: 1000
next table: 1029
cur table: 1040
epoch: 1000
next table: 1032
cur table: 1029
epoch: 1000
next table: 1052
cur table: 1032
epoch: 1000
next table: 1029
cur table: 1052
epoch: 1000
next table: 1033
cur table: 1029
epoch: 1000
next table: 1044
cur table: 1033
epoch: 1000
next table: 1024
cur table: 1044
epoch: 1000
next table: 1033
cur table: 1024
epoch: 1000
next table: 1034
cur table: 1033
epoch: 1000
next table: 1039
cur table: 1034
epoch: 1000
next table: 1031
cur table: 1039
epoch: 1000
next table: 1033
cur table: 1031
epoch: 1000
next table: 1030
cur table: 1033
epoch: 1000
next table: 1036
cur table: 1030
epoch: 1000
next table: 1040
cur table: 1036
epoch: 1000
next table: 1519
cur table: 1334
epoch: 1000
next table: 1051
cur table: 1040
epoch: 1000
next table: 1035
cur table: 1051
epoch: 1000
next table: 1060
cur table: 1519
epoch: 1000
next table: 1033
cur table: 1035
epoch: 1000
next table: 1029
cur table: 1033
epoch: 1000
next table: 1052
cur table: 1060
epoch: 1000
next table: 1030
cur table: 1029
epoch: 1000
next table: 1024
cur table: 1030
epoch: 1000
next table: 1035
cur table: 1052
epoch: 1000
next table: 1057
cur table: 1024
epoch: 1000
next table: 1081
cur table: 1035
epoch: 1000
next table: 1053
cur table: 1057
epoch: 1000
next table: 1041
cur table: 1053
epoch: 1000
next table: 1078
cur table: 1081
epoch: 1000
next table: 1040
cur table: 1041
epoch: 1000
next table: 1044
cur table: 1040
epoch: 1000
next table: 1068
cur table: 1078
epoch: 1000
next table: 1041
cur table: 1044
epoch: 1000
next table: 1034
cur table: 1041
epoch: 1000
next table: 1031
cur table: 1034
epoch: 1000
next table: 1030
cur table: 1031
epoch: 1000
next table: 1042
cur table: 1030
epoch: 1000
next table: 1137
cur table: 1068
epoch: 1000
next table: 1037
cur table: 1042
epoch: 1000
next table: 1047
cur table: 1037
epoch: 1000
next table: 1036
cur table: 1047
epoch: 1000
next table: 1030
cur table: 1036
Heartbeat CPU 0 instructions: 10000000 cycles: 2851712 heartbeat IPC: 3.50667 cumulative IPC: 3.50667 (Simulation time: 0 hr 7 min 0 sec) 
epoch: 1000
next table: 1035
cur table: 1030
epoch: 1000
next table: 1040
cur table: 1035
epoch: 1000
next table: 1039
cur table: 1040
epoch: 1000
next table: 1035
cur table: 1039
epoch: 1000
next table: 1041
cur table: 1035
epoch: 1000
next table: 1032
cur table: 1041
epoch: 1000
next table: 1037
cur table: 1032
epoch: 1000
next table: 1027
cur table: 1037
epoch: 1000
next table: 1032
cur table: 1027
epoch: 1000
next table: 1050
cur table: 1032
epoch: 1000
next table: 1051
cur table: 1050
epoch: 1000
next table: 1040
cur table: 1051
epoch: 1000
next table: 1032
cur table: 1040
epoch: 1000
next table: 1038
cur table: 1032
epoch: 1000
next table: 1039
cur table: 1038
epoch: 1000
next table: 1039
cur table: 1039
epoch: 1000
next table: 1039
cur table: 1039
epoch: 1000
next table: 1034
cur table: 1039
epoch: 1000
next table: 1760
cur table: 1137
epoch: 1000
next table: 1032
cur table: 1034
epoch: 1000
next table: 1038
cur table: 1032
epoch: 1000
next table: 1033
cur table: 1038
epoch: 1000
next table: 1078
cur table: 1760
epoch: 1000
next table: 1038
cur table: 1033
epoch: 1000
next table: 1037
cur table: 1038
epoch: 1000
next table: 1060
cur table: 1078
epoch: 1000
next table: 1036
cur table: 1037
epoch: 1000
next table: 1057
cur table: 1060
epoch: 1000
next table: 1068
cur table: 1036
epoch: 1000
next table: 1063
cur table: 1068
epoch: 1000
next table: 1091
cur table: 1057
epoch: 1000
next table: 1045
cur table: 1063
epoch: 1000
next table: 1057
cur table: 1091
epoch: 1000
next table: 1043
cur table: 1045
epoch: 1000
next table: 1047
cur table: 1043
epoch: 1000
next table: 1044
cur table: 1047
epoch: 1000
next table: 1070
cur table: 1057
epoch: 1000
next table: 1038
cur table: 1044
epoch: 1000
next table: 1048
cur table: 1038
epoch: 1000
next table: 1091
cur table: 1070
epoch: 1000
next table: 1038
cur table: 1048
epoch: 1000
next table: 1048
cur table: 1038
epoch: 1000
next table: 1038
cur table: 1048
epoch: 1000
next table: 1041
cur table: 1038
epoch: 1000
next table: 1036
cur table: 1041
epoch: 1000
next table: 1035
cur table: 1036
epoch: 1000
next table: 1036
cur table: 1035
epoch: 1000
next table: 1201
cur table: 1091
epoch: 1000
next table: 1042
cur table: 1036
epoch: 1000
next table: 1038
cur table: 1042
epoch: 1000
next table: 1036
cur table: 1038
epoch: 1000
next table: 1035
cur table: 1036
epoch: 1000
next table: 1035
cur table: 1035
epoch: 1000
next table: 1031
cur table: 1035
epoch: 1000
next table: 1032
cur table: 1031
epoch: 1000
next table: 1044
cur table: 1032
epoch: 1000
next table: 1038
cur table: 1044
epoch: 1000
next table: 1043
cur table: 1038
epoch: 1000
next table: 1038
cur table: 1043
epoch: 1000
next table: 1037
cur table: 1038
epoch: 1000
next table: 1036
cur table: 1037
epoch: 1000
next table: 1029
cur table: 1036
epoch: 1000
next table: 1029
cur table: 1029
epoch: 1000
next table: 1462
cur table: 1201
epoch: 1000
next table: 1033
cur table: 1029
epoch: 1000
next table: 1044
cur table: 1033
epoch: 1000
next table: 1032
cur table: 1044
epoch: 1000
next table: 1033
cur table: 1032
epoch: 1000
next table: 1034
cur table: 1033
epoch: 1000
next table: 1152
cur table: 1462
epoch: 1000
next table: 1034
cur table: 1034
epoch: 1000
next table: 1047
cur table: 1034
epoch: 1000
next table: 1064
cur table: 1152
epoch: 1000
next table: 1031
cur table: 1047
epoch: 1000
next table: 1065
cur table: 1031
epoch: 1000
next table: 1088
cur table: 1064
epoch: 1000
next table: 1061
cur table: 1065
epoch: 1000
next table: 1060
cur table: 1088
epoch: 1000
next table: 1053
cur table: 1061
epoch: 1000
next table: 1031
cur table: 1053
epoch: 1000
next table: 1054
cur table: 1060
epoch: 1000
next table: 1033
cur table: 1031
epoch: 1000
next table: 1037
cur table: 1033
epoch: 1000
next table: 1057
cur table: 1054
epoch: 1000
next table: 1037
cur table: 1037
epoch: 1000
next table: 1041
cur table: 1037
epoch: 1000
next table: 1034
cur table: 1041
epoch: 1000
next table: 1097
cur table: 1057
epoch: 1000
next table: 1040
cur table: 1034
epoch: 1000
next table: 1040
cur table: 1040
epoch: 1000
next table: 1043
cur table: 1040
epoch: 1000
next table: 1040
cur table: 1043
epoch: 1000
next table: 1137
cur table: 1097
epoch: 1000
next table: 1026
cur table: 1040
epoch: 1000
next table: 1038
cur table: 1026
epoch: 1000
next table: 1032
cur table: 1038
epoch: 1000
next table: 1047
cur table: 1032
epoch: 1000
next table: 1035
cur table: 1047
epoch: 1000
next table: 1055
cur table: 1035
epoch: 1000
next table: 1035
cur table: 1055
epoch: 1000
next table: 1215
cur table: 1137
epoch: 1000
next table: 1030
cur table: 1035
epoch: 1000
next table: 1038
cur table: 1030
epoch: 1000
next table: 1030
cur table: 1038
epoch: 1000
next table: 1046
cur table: 1030
epoch: 1000
next table: 1047
cur table: 1046
epoch: 1000
next table: 1041
cur table: 1047
epoch: 1000
next table: 1032
cur table: 1041
epoch: 1000
next table: 1047
cur table: 1032
epoch: 1000
next table: 1043
cur table: 1047
epoch: 1000
next table: 1032
cur table: 1043
epoch: 1000
next table: 1030
cur table: 1032
epoch: 1000
next table: 1042
cur table: 1030
epoch: 1000
next table: 1390
cur table: 1215
epoch: 1000
next table: 1042
cur table: 1042
epoch: 1000
next table: 1031
cur table: 1042
epoch: 1000
next table: 1035
cur table: 1031
epoch: 1000
next table: 1040
cur table: 1035
epoch: 1000
next table: 1129
cur table: 1390
epoch: 1000
next table: 1036
cur table: 1040
epoch: 1000
next table: 1025
cur table: 1036
epoch: 1000
next table: 1091
cur table: 1129
epoch: 1000
next table: 1064
cur table: 1025
epoch: 1000
next table: 1059
cur table: 1064
epoch: 1000
next table: 1076
cur table: 1091
epoch: 1000
next table: 1058
cur table: 1059
epoch: 1000
next table: 1052
cur table: 1058
epoch: 1000
next table: 1077
cur table: 1076
epoch: 1000
next table: 1041
cur table: 1052
epoch: 1000
next table: 1054
cur table: 1041
epoch: 1000
next table: 1034
cur table: 1054
epoch: 1000
next table: 1084
cur table: 1077
epoch: 1000
next table: 1041
cur table: 1034
epoch: 1000
next table: 1028
cur table: 1041
epoch: 1000
next table: 1029
cur table: 1028
epoch: 1000
next table: 1092
cur table: 1084
epoch: 1000
next table: 1035
cur table: 1029
epoch: 1000
next table: 1042
cur table: 1035
epoch: 1000
next table: 1028
cur table: 1042
epoch: 1000
next table: 1036
cur table: 1028
epoch: 1000
next table: 1120
cur table: 1092
epoch: 1000
next table: 1026
cur table: 1036
epoch: 1000
next table: 1031
cur table: 1026
epoch: 1000
next table: 1034
cur table: 1031
epoch: 1000
next table: 1034
cur table: 1034
epoch: 1000
next table: 1028
cur table: 1034
epoch: 1000
next table: 1026
cur table: 1028
epoch: 1000
next table: 1030
cur table: 1026
epoch: 1000
next table: 1178
cur table: 1120
epoch: 1000
next table: 1027
cur table: 1030
epoch: 1000
next table: 1026
cur table: 1027
epoch: 1000
next table: 1031
cur table: 1026
epoch: 1000
next table: 1042
cur table: 1031
epoch: 1000
next table: 1030
cur table: 1042
epoch: 1000
next table: 1040
cur table: 1030
epoch: 1000
next table: 1048
cur table: 1040
epoch: 1000
next table: 1056
cur table: 1048
epoch: 1000
next table: 1033
cur table: 1056
epoch: 1000
next table: 1030
cur table: 1033
epoch: 1000
next table: 1053
cur table: 1030
epoch: 1000
next table: 1032
cur table: 1053
epoch: 1000
next table: 1438
cur table: 1178
epoch: 1000
next table: 1035
cur table: 1032
epoch: 1000
next table: 1037
cur table: 1035
epoch: 1000
next table: 1043
cur table: 1037
epoch: 1000
next table: 1031
cur table: 1043
epoch: 1000
next table: 1114
cur table: 1438
epoch: 1000
next table: 1033
cur table: 1031
epoch: 1000
next table: 1072
cur table: 1033
epoch: 1000
next table: 1120
cur table: 1114
epoch: 1000
next table: 1040
cur table: 1072
epoch: 1000
next table: 1041
cur table: 1040
epoch: 1000
next table: 1035
cur table: 1041
epoch: 1000
next table: 1081
cur table: 1120
epoch: 1000
next table: 1032
cur table: 1035
epoch: 1000
next table: 1045
cur table: 1032
epoch: 1000
next table: 1084
cur table: 1081
epoch: 1000
next table: 1046
cur table: 1045
epoch: 1000
next table: 1041
cur table: 1046
epoch: 1000
next table: 1032
cur table: 1041
epoch: 1000
next table: 1109
cur table: 1084
epoch: 1000
next table: 1034
cur table: 1032
epoch: 1000
next table: 1037
cur table: 1034
epoch: 1000
next table: 1036
cur table: 1037
epoch: 1000
next table: 1106
cur table: 1109
epoch: 1000
next table: 1036
cur table: 1036
epoch: 1000
next table: 1030
cur table: 1036
epoch: 1000
next table: 1045
cur table: 1030
epoch: 1000
next table: 1046
cur table: 1045
epoch: 1000
next table: 1117
cur table: 1106
epoch: 1000
next table: 1029
cur table: 1046
epoch: 1000
next table: 1024
cur table: 1029
epoch: 1000
next table: 1024
cur table: 1024
epoch: 1000
next table: 1030
cur table: 1024
epoch: 1000
next table: 1030
cur table: 1030
epoch: 1000
next table: 1136
cur table: 1117
epoch: 1000
next table: 1026
cur table: 1030
epoch: 1000
next table: 1026
cur table: 1026
epoch: 1000
next table: 1039
cur table: 1026
epoch: 1000
next table: 1038
cur table: 1039
epoch: 1000
next table: 1044
cur table: 1038
epoch: 1000
next table: 1036
cur table: 1044
epoch: 1000
next table: 1031
cur table: 1036
epoch: 1000
next table: 1046
cur table: 1031
epoch: 1000
next table: 1038
cur table: 1046
epoch: 1000
next table: 1025
cur table: 1038
epoch: 1000
next table: 1324
cur table: 1136
epoch: 1000
next table: 1037
cur table: 1025
epoch: 1000
next table: 1037
cur table: 1037
epoch: 1000
next table: 1029
cur table: 1037
epoch: 1000
next table: 1028
cur table: 1029
epoch: 1000
next table: 1035
cur table: 1028
epoch: 1000
next table: 1023
cur table: 1035
epoch: 1000
next table: 1170
cur table: 1324
epoch: 1000
next table: 1027
cur table: 1023
epoch: 1000
next table: 1084
cur table: 1027
epoch: 1000
next table: 1130
cur table: 1170
epoch: 1000
next table: 1048
cur table: 1084
epoch: 1000
next table: 1051
cur table: 1048
epoch: 1000
next table: 1040
cur table: 1051
epoch: 1000
next table: 1084
cur table: 1130
epoch: 1000
next table: 1033
cur table: 1040
epoch: 1000
next table: 1045
cur table: 1033
epoch: 1000
next table: 1084
cur table: 1084
epoch: 1000
next table: 1026
cur table: 1045
epoch: 1000
next table: 1032
cur table: 1026
epoch: 1000
next table: 1032
cur table: 1032
epoch: 1000
next table: 1073
cur table: 1084
epoch: 1000
next table: 1031
cur table: 1032
epoch: 1000
next table: 1040
cur table: 1031
epoch: 1000
next table: 1032
cur table: 1040
epoch: 1000
next table: 1091
cur table: 1073
epoch: 1000
next table: 1029
cur table: 1032
epoch: 1000
next table: 1035
cur table: 1029
epoch: 1000
next table: 1073
cur table: 1091
epoch: 1000
next table: 1030
cur table: 1035
epoch: 1000
next table: 1040
cur table: 1030
epoch: 1000
next table: 1040
cur table: 1040
epoch: 1000
next table: 1033
cur table: 1040
epoch: 1000
next table: 1118
cur table: 1073
epoch: 1000
next table: 1051
cur table: 1033
epoch: 1000
next table: 1032
cur table: 1051
epoch: 1000
next table: 1035
cur table: 1032
epoch: 1000
next table: 1103
cur table: 1118
epoch: 1000
next table: 1032
cur table: 1035
epoch: 1000
next table: 1031
cur table: 1032
epoch: 1000
next table: 1035
cur table: 1031
epoch: 1000
next table: 1035
cur table: 1035
epoch: 1000
next table: 1131
cur table: 1103
epoch: 1000
next table: 1034
cur table: 1035
epoch: 1000
next table: 1031
cur table: 1034
epoch: 1000
next table: 1032
cur table: 1031
epoch: 1000
next table: 1030
cur table: 1032
epoch: 1000
next table: 1027
cur table: 1030
epoch: 1000
next table: 1029
cur table: 1027
epoch: 1000
next table: 1151
cur table: 1131
epoch: 1000
next table: 1031
cur table: 1029
Heartbeat CPU 0 instructions: 20000001 cycles: 5699657 heartbeat IPC: 3.5113 cumulative IPC: 3.50898 (Simulation time: 0 hr 13 min 26 sec) 
epoch: 1000
next table: 1033
cur table: 1031
epoch: 1000
next table: 1031
cur table: 1033
epoch: 1000
next table: 1038
cur table: 1031
epoch: 1000
next table: 1048
cur table: 1038
epoch: 1000
next table: 1181
cur table: 1151
epoch: 1000
next table: 1030
cur table: 1048
epoch: 1000
next table: 1027
cur table: 1030
epoch: 1000
next table: 1073
cur table: 1027
epoch: 1000
next table: 1057
cur table: 1073
epoch: 1000
next table: 1140
cur table: 1181
epoch: 1000
next table: 1034
cur table: 1057
epoch: 1000
next table: 1045
cur table: 1034
epoch: 1000
next table: 1034
cur table: 1045
epoch: 1000
next table: 1110
cur table: 1140
epoch: 1000
next table: 1032
cur table: 1034
epoch: 1000
next table: 1022
cur table: 1032
epoch: 1000
next table: 1057
cur table: 1022
epoch: 1000
next table: 1028
cur table: 1057
epoch: 1000
next table: 1110
cur table: 1110
epoch: 1000
next table: 1036
cur table: 1028
epoch: 1000
next table: 1036
cur table: 1036
epoch: 1000
next table: 1028
cur table: 1036
epoch: 1000
next table: 1101
cur table: 1110
epoch: 1000
next table: 1025
cur table: 1028
epoch: 1000
next table: 1041
cur table: 1025
epoch: 1000
next table: 1039
cur table: 1041
epoch: 1000
next table: 1036
cur table: 1039
epoch: 1000
next table: 1136
cur table: 1101
epoch: 1000
next table: 1040
cur table: 1036
epoch: 1000
next table: 1024
cur table: 1040
epoch: 1000
next table: 1035
cur table: 1024
epoch: 1000
next table: 1035
cur table: 1035
epoch: 1000
next table: 1035
cur table: 1035
epoch: 1000
next table: 1153
cur table: 1136
epoch: 1000
next table: 1034
cur table: 1035
epoch: 1000
next table: 1034
cur table: 1034
epoch: 1000
next table: 1035
cur table: 1034
epoch: 1000
next table: 1032
cur table: 1035
epoch: 1000
next table: 1027
cur table: 1032
epoch: 1000
next table: 1029
cur table: 1027
epoch: 1000
next table: 1192
cur table: 1153
epoch: 1000
next table: 1029
cur table: 1029
epoch: 1000
next table: 1049
cur table: 1029
epoch: 1000
next table: 1036
cur table: 1049
epoch: 1000
next table: 1030
cur table: 1036
epoch: 1000
next table: 1025
cur table: 1030
epoch: 1000
next table: 1029
cur table: 1025
epoch: 1000
next table: 1032
cur table: 1029
epoch: 1000
next table: 1208
cur table: 1192
epoch: 1000
next table: 1042
cur table: 1032
epoch: 1000
next table: 1036
cur table: 1042
epoch: 1000
next table: 1030
cur table: 1036
epoch: 1000
next table: 1027
cur table: 1030
epoch: 1000
next table: 1168
cur table: 1208
epoch: 1000
next table: 1080
cur table: 1027
epoch: 1000
next table: 1042
cur table: 1080
epoch: 1000
next table: 1047
cur table: 1042
epoch: 1000
next table: 1115
cur table: 1168
epoch: 1000
next table: 1056
cur table: 1047
epoch: 1000
next table: 1059
cur table: 1056
epoch: 1000
next table: 1052
cur table: 1059
epoch: 1000
next table: 1034
cur table: 1052
epoch: 1000
next table: 1148
cur table: 1115
epoch: 1000
next table: 1030
cur table: 1034
epoch: 1000
next table: 1024
cur table: 1030
epoch: 1000
next table: 1035
cur table: 1024
epoch: 1000
next table: 1110
cur table: 1148
epoch: 1000
next table: 1062
cur table: 1035
epoch: 1000
next table: 1034
cur table: 1062
epoch: 1000
next table: 1030
cur table: 1034
epoch: 1000
next table: 1029
cur table: 1030
epoch: 1000
next table: 1097
cur table: 1110
epoch: 1000
next table: 1035
cur table: 1029
epoch: 1000
next table: 1030
cur table: 1035
epoch: 1000
next table: 1040
cur table: 1030
epoch: 1000
next table: 1041
cur table: 1040
epoch: 1000
next table: 1134
cur table: 1097
epoch: 1000
next table: 1029
cur table: 1041
epoch: 1000
next table: 1033
cur table: 1029
epoch: 1000
next table: 1038
cur table: 1033
epoch: 1000
next table: 1027
cur table: 1038
epoch: 1000
next table: 1036
cur table: 1027
epoch: 1000
next table: 1145
cur table: 1134
epoch: 1000
next table: 1030
cur table: 1036
epoch: 1000
next table: 1038
cur table: 1030
epoch: 1000
next table: 1027
cur table: 1038
epoch: 1000
next table: 1030
cur table: 1027
epoch: 1000
next table: 1045
cur table: 1030
epoch: 1000
next table: 1155
cur table: 1145
epoch: 1000
next table: 1029
cur table: 1045
epoch: 1000
next table: 1039
cur table: 1029
epoch: 1000
next table: 1033
cur table: 1039
epoch: 1000
next table: 1036
cur table: 1033
epoch: 1000
next table: 1037
cur table: 1036
epoch: 1000
next table: 1030
cur table: 1037
epoch: 1000
next table: 1187
cur table: 1155
epoch: 1000
next table: 1033
cur table: 1030
epoch: 1000
next table: 1047
cur table: 1033
epoch: 1000
next table: 1039
cur table: 1047
epoch: 1000
next table: 1033
cur table: 1039
epoch: 1000
next table: 1173
cur table: 1187
epoch: 1000
next table: 1091
cur table: 1033
epoch: 1000
next table: 1045
cur table: 1091
epoch: 1000
next table: 1048
cur table: 1045
epoch: 1000
next table: 1044
cur table: 1048
epoch: 1000
next table: 1163
cur table: 1173
epoch: 1000
next table: 1048
cur table: 1044
epoch: 1000
next table: 1032
cur table: 1048
epoch: 1000
next table: 1028
cur table: 1032
epoch: 1000
next table: 1030
cur table: 1028
epoch: 1000
next table: 1115
cur table: 1163
epoch: 1000
next table: 1035
cur table: 1030
epoch: 1000
next table: 1029
cur table: 1035
epoch: 1000
next table: 1037
cur table: 1029
epoch: 1000
next table: 1030
cur table: 1037
epoch: 1000
next table: 1108
cur table: 1115
epoch: 1000
next table: 1026
cur table: 1030
epoch: 1000
next table: 1031
cur table: 1026
epoch: 1000
next table: 1033
cur table: 1031
epoch: 1000
next table: 1094
cur table: 1108
epoch: 1000
next table: 1034
cur table: 1033
epoch: 1000
next table: 1029
cur table: 1034
epoch: 1000
next table: 1027
cur table: 1029
epoch: 1000
next table: 1024
cur table: 1027
epoch: 1000
next table: 1101
cur table: 1094
epoch: 1000
next table: 1028
cur table: 1024
epoch: 1000
next table: 1024
cur table: 1028
epoch: 1000
next table: 1025
cur table: 1024
epoch: 1000
next table: 1038
cur table: 1025
epoch: 1000
next table: 1108
cur table: 1101
epoch: 1000
next table: 1030
cur table: 1038
epoch: 1000
next table: 1028
cur table: 1030
epoch: 1000
next table: 1028
cur table: 1028
epoch: 1000
next table: 1025
cur table: 1028
epoch: 1000
next table: 1121
cur table: 1108
epoch: 1000
next table: 1034
cur table: 1025
epoch: 1000
next table: 1032
cur table: 1034
epoch: 1000
next table: 1032
cur table: 1032
epoch: 1000
next table: 1027
cur table: 1032
epoch: 1000
next table: 1028
cur table: 1027
epoch: 1000
next table: 1132
cur table: 1121
epoch: 1000
next table: 1025
cur table: 1028
epoch: 1000
next table: 1026
cur table: 1025
epoch: 1000
next table: 1035
cur table: 1026
epoch: 1000
next table: 1034
cur table: 1035
epoch: 1000
next table: 1027
cur table: 1034
epoch: 1000
next table: 1154
cur table: 1132
epoch: 1000
next table: 1036
cur table: 1027
epoch: 1000
next table: 1078
cur table: 1036
epoch: 1000
next table: 1039
cur table: 1078
epoch: 1000
next table: 1057
cur table: 1039
epoch: 1000
next table: 1173
cur table: 1154
epoch: 1000
next table: 1048
cur table: 1057
epoch: 1000
next table: 1055
cur table: 1048
epoch: 1000
next table: 1033
cur table: 1055
epoch: 1000
next table: 1035
cur table: 1033
epoch: 1000
next table: 1166
cur table: 1173
epoch: 1000
next table: 1041
cur table: 1035
epoch: 1000
next table: 1045
cur table: 1041
epoch: 1000
next table: 1026
cur table: 1045
epoch: 1000
next table: 1033
cur table: 1026
epoch: 1000
next table: 1027
cur table: 1033
epoch: 1000
next table: 1141
cur table: 1166
epoch: 1000
next table: 1031
cur table: 1027
epoch: 1000
next table: 1036
cur table: 1031
epoch: 1000
next table: 1044
cur table: 1036
epoch: 1000
next table: 1042
cur table: 1044
epoch: 1000
next table: 1158
cur table: 1141
epoch: 1000
next table: 1040
cur table: 1042
epoch: 1000
next table: 1038
cur table: 1040
epoch: 1000
next table: 1035
cur table: 1038
epoch: 1000
next table: 1025
cur table: 1035
epoch: 1000
next table: 1039
cur table: 1025
epoch: 1000
next table: 1157
cur table: 1158
epoch: 1000
next table: 1039
cur table: 1039
epoch: 1000
next table: 1030
cur table: 1039
epoch: 1000
next table: 1034
cur table: 1030
epoch: 1000
next table: 1120
cur table: 1157
epoch: 1000
next table: 1031
cur table: 1034
epoch: 1000
next table: 1028
cur table: 1031
epoch: 1000
next table: 1030
cur table: 1028
epoch: 1000
next table: 1027
cur table: 1030
epoch: 1000
next table: 1026
cur table: 1027
epoch: 1000
next table: 1126
cur table: 1120
epoch: 1000
next table: 1029
cur table: 1026
epoch: 1000
next table: 1032
cur table: 1029
epoch: 1000
next table: 1026
cur table: 1032
epoch: 1000
next table: 1029
cur table: 1026
epoch: 1000
next table: 1040
cur table: 1029
epoch: 1000
next table: 1147
cur table: 1126
epoch: 1000
next table: 1042
cur table: 1040
epoch: 1000
next table: 1038
cur table: 1042
epoch: 1000
next table: 1029
cur table: 1038
epoch: 1000
next table: 1040
cur table: 1029
epoch: 1000
next table: 1175
cur table: 1147
epoch: 1000
next table: 1081
cur table: 1040
epoch: 1000
next table: 1036
cur table: 1081
epoch: 1000
next table: 1043
cur table: 1036
epoch: 1000
next table: 1054
cur table: 1043
epoch: 1000
next table: 1158
cur table: 1175
epoch: 1000
next table: 1049
cur table: 1054
epoch: 1000
next table: 1025
cur table: 1049
epoch: 1000
next table: 1037
cur table: 1025
epoch: 1000
next table: 1047
cur table: 1037
epoch: 1000
next table: 1117
cur table: 1158
epoch: 1000
next table: 1033
cur table: 1047
epoch: 1000
next table: 1029
cur table: 1033
epoch: 1000
next table: 1046
cur table: 1029
epoch: 1000
next table: 1039
cur table: 1046
epoch: 1000
next table: 1032
cur table: 1039
epoch: 1000
next table: 1043
cur table: 1032
epoch: 1000
next table: 1178
cur table: 1117
epoch: 1000
next table: 1033
cur table: 1043
epoch: 1000
next table: 1055
cur table: 1033
epoch: 1000
next table: 1029
cur table: 1055
epoch: 1000
next table: 1030
cur table: 1029
epoch: 1000
next table: 1032
cur table: 1030
epoch: 1000
next table: 1173
cur table: 1178
epoch: 1000
next table: 1033
cur table: 1032
epoch: 1000
next table: 1033
cur table: 1033
epoch: 1000
next table: 1032
cur table: 1033
epoch: 1000
next table: 1041
cur table: 1032
epoch: 1000
next table: 1032
cur table: 1041
epoch: 1000
next table: 1159
cur table: 1173
epoch: 1000
next table: 1037
cur table: 1032
epoch: 1000
next table: 1034
cur table: 1037
epoch: 1000
next table: 1038
cur table: 1034
epoch: 1000
next table: 1033
cur table: 1038
epoch: 1000
next table: 1129
cur table: 1159
epoch: 1000
next table: 1043
cur table: 1033
epoch: 1000
next table: 1031
cur table: 1043
epoch: 1000
next table: 1042
cur table: 1031
epoch: 1000
next table: 1041
cur table: 1042
epoch: 1000
next table: 1047
cur table: 1041
epoch: 1000
next table: 1169
cur table: 1129
epoch: 1000
next table: 1032
cur table: 1047
epoch: 1000
next table: 1029
cur table: 1032
epoch: 1000
next table: 1036
cur table: 1029
epoch: 1000
next table: 1051
cur table: 1036
epoch: 1000
next table: 1043
cur table: 1051
epoch: 1000
next table: 1175
cur table: 1169
epoch: 1000
next table: 1085
cur table: 1043
epoch: 1000
next table: 1040
cur table: 1085
epoch: 1000
next table: 1038
cur table: 1040
epoch: 1000
next table: 1138
cur table: 1175
epoch: 1000
next table: 1044
cur table: 1038
epoch: 1000
next table: 1047
cur table: 1044
epoch: 1000
next table: 1026
cur table: 1047
epoch: 1000
next table: 1039
cur table: 1026
epoch: 1000
next table: 1128
cur table: 1138
epoch: 1000
next table: 1039
cur table: 1039
epoch: 1000
next table: 1033
cur table: 1039
epoch: 1000
next table: 1030
cur table: 1033
epoch: 1000
next table: 1043
cur table: 1030
epoch: 1000
next table: 1028
cur table: 1043
Heartbeat CPU 0 instructions: 30000002 cycles: 8538722 heartbeat IPC: 3.52229 cumulative IPC: 3.51341 (Simulation time: 0 hr 19 min 7 sec) 
epoch: 1000
next table: 1137
cur table: 1128
epoch: 1000
next table: 1035
cur table: 1028
epoch: 1000
next table: 1041
cur table: 1035
epoch: 1000
next table: 1033
cur table: 1041
epoch: 1000
next table: 1046
cur table: 1033
epoch: 1000
next table: 1042
cur table: 1046
epoch: 1000
next table: 1150
cur table: 1137
epoch: 1000
next table: 1033
cur table: 1042
epoch: 1000
next table: 1050
cur table: 1033
epoch: 1000
next table: 1028
cur table: 1050
epoch: 1000
next table: 1031
cur table: 1028
epoch: 1000
next table: 1042
cur table: 1031
epoch: 1000
next table: 1167
cur table: 1150
epoch: 1000
next table: 1032
cur table: 1042
epoch: 1000
next table: 1034
cur table: 1032
epoch: 1000
next table: 1030
cur table: 1034
epoch: 1000
next table: 1041
cur table: 1030
epoch: 1000
next table: 1140
cur table: 1167
epoch: 1000
next table: 1035
cur table: 1041
epoch: 1000
next table: 1031
cur table: 1035
epoch: 1000
next table: 1033
cur table: 1031
epoch: 1000
next table: 1041
cur table: 1033
epoch: 1000
next table: 1123
cur table: 1140
epoch: 1000
next table: 1034
cur table: 1041
epoch: 1000
next table: 1029
cur table: 1034
epoch: 1000
next table: 1032
cur table: 1029
epoch: 1000
next table: 1026
cur table: 1032
epoch: 1000
next table: 1109
cur table: 1123
epoch: 1000
next table: 1037
cur table: 1026
epoch: 1000
next table: 1025
cur table: 1037
epoch: 1000
next table: 1034
cur table: 1025
epoch: 1000
next table: 1046
cur table: 1034
epoch: 1000
next table: 1145
cur table: 1109
epoch: 1000
next table: 1062
cur table: 1046
epoch: 1000
next table: 1053
cur table: 1062
epoch: 1000
next table: 1037
cur table: 1053
epoch: 1000
next table: 1140
cur table: 1145
epoch: 1000
next table: 1047
cur table: 1037
epoch: 1000
next table: 1046
cur table: 1047
epoch: 1000
next table: 1031
cur table: 1046
epoch: 1000
next table: 1042
cur table: 1031
epoch: 1000
next table: 1127
cur table: 1140
epoch: 1000
next table: 1044
cur table: 1042
epoch: 1000
next table: 1028
cur table: 1044
epoch: 1000
next table: 1037
cur table: 1028
epoch: 1000
next table: 1039
cur table: 1037
epoch: 1000
next table: 1143
cur table: 1127
epoch: 1000
next table: 1035
cur table: 1039
epoch: 1000
next table: 1028
cur table: 1035
epoch: 1000
next table: 1035
cur table: 1028
epoch: 1000
next table: 1036
cur table: 1035
epoch: 1000
next table: 1032
cur table: 1036
epoch: 1000
next table: 1136
cur table: 1143
epoch: 1000
next table: 1028
cur table: 1032
epoch: 1000
next table: 1025
cur table: 1028
epoch: 1000
next table: 1031
cur table: 1025
epoch: 1000
next table: 1030
cur table: 1031
epoch: 1000
next table: 1025
cur table: 1030
epoch: 1000
next table: 1146
cur table: 1136
epoch: 1000
next table: 1038
cur table: 1025
epoch: 1000
next table: 1029
cur table: 1038
epoch: 1000
next table: 1034
cur table: 1029
epoch: 1000
next table: 1030
cur table: 1034
epoch: 1000
next table: 1035
cur table: 1030
epoch: 1000
next table: 1031
cur table: 1035
epoch: 1000
next table: 1179
cur table: 1146
epoch: 1000
next table: 1026
cur table: 1031
epoch: 1000
next table: 1029
cur table: 1026
epoch: 1000
next table: 1032
cur table: 1029
epoch: 1000
next table: 1038
cur table: 1032
epoch: 1000
next table: 1119
cur table: 1179
epoch: 1000
next table: 1034
cur table: 1038
epoch: 1000
next table: 1032
cur table: 1034
epoch: 1000
next table: 1036
cur table: 1032
epoch: 1000
next table: 1032
cur table: 1036
epoch: 1000
next table: 1146
cur table: 1119
epoch: 1000
next table: 1032
cur table: 1032
epoch: 1000
next table: 1026
cur table: 1032
epoch: 1000
next table: 1058
cur table: 1026
epoch: 1000
next table: 1072
cur table: 1058
epoch: 1000
next table: 1166
cur table: 1146
epoch: 1000
next table: 1040
cur table: 1072
epoch: 1000
next table: 1032
cur table: 1040
epoch: 1000
next table: 1038
cur table: 1032
epoch: 1000
next table: 1039
cur table: 1038
epoch: 1000
next table: 1133
cur table: 1166
epoch: 1000
next table: 1042
cur table: 1039
epoch: 1000
next table: 1029
cur table: 1042
epoch: 1000
next table: 1034
cur table: 1029
epoch: 1000
next table: 1027
cur table: 1034
epoch: 1000
next table: 1120
cur table: 1133
epoch: 1000
next table: 1039
cur table: 1027
epoch: 1000
next table: 1037
cur table: 1039
epoch: 1000
next table: 1029
cur table: 1037
epoch: 1000
next table: 1028
cur table: 1029
epoch: 1000
next table: 1032
cur table: 1028
epoch: 1000
next table: 1147
cur table: 1120
epoch: 1000
next table: 1041
cur table: 1032
epoch: 1000
next table: 1050
cur table: 1041
epoch: 1000
next table: 1026
cur table: 1050
epoch: 1000
next table: 1031
cur table: 1026
epoch: 1000
next table: 1149
cur table: 1147
epoch: 1000
next table: 1032
cur table: 1031
epoch: 1000
next table: 1026
cur table: 1032
epoch: 1000
next table: 1028
cur table: 1026
epoch: 1000
next table: 1024
cur table: 1028
epoch: 1000
next table: 1029
cur table: 1024
epoch: 1000
next table: 1029
cur table: 1029
epoch: 1000
next table: 1140
cur table: 1149
epoch: 1000
next table: 1029
cur table: 1029
epoch: 1000
next table: 1034
cur table: 1029
epoch: 1000
next table: 1023
cur table: 1034
epoch: 1000
next table: 1039
cur table: 1023
epoch: 1000
next table: 1051
cur table: 1039
epoch: 1000
next table: 1168
cur table: 1140
epoch: 1000
next table: 1031
cur table: 1051
epoch: 1000
next table: 1031
cur table: 1031
epoch: 1000
next table: 1027
cur table: 1031
epoch: 1000
next table: 1111
cur table: 1168
epoch: 1000
next table: 1028
cur table: 1027
epoch: 1000
next table: 1030
cur table: 1028
epoch: 1000
next table: 1036
cur table: 1030
epoch: 1000
next table: 1030
cur table: 1036
epoch: 1000
next table: 1024
cur table: 1030
epoch: 1000
next table: 1176
cur table: 1111
epoch: 1000
next table: 1063
cur table: 1024
epoch: 1000
next table: 1056
cur table: 1063
epoch: 1000
next table: 1035
cur table: 1056
epoch: 1000
next table: 1052
cur table: 1035
epoch: 1000
next table: 1034
cur table: 1052
epoch: 1000
next table: 1154
cur table: 1176
epoch: 1000
next table: 1053
cur table: 1034
epoch: 1000
next table: 1041
cur table: 1053
epoch: 1000
next table: 1032
cur table: 1041
epoch: 1000
next table: 1031
cur table: 1032
epoch: 1000
next table: 1126
cur table: 1154
epoch: 1000
next table: 1042
cur table: 1031
epoch: 1000
next table: 1038
cur table: 1042
epoch: 1000
next table: 1038
cur table: 1038
epoch: 1000
next table: 1033
cur table: 1038
epoch: 1000
next table: 1154
cur table: 1126
epoch: 1000
next table: 1044
cur table: 1033
epoch: 1000
next table: 1042
cur table: 1044
epoch: 1000
next table: 1040
cur table: 1042
epoch: 1000
next table: 1039
cur table: 1040
epoch: 1000
next table: 1040
cur table: 1039
epoch: 1000
next table: 1166
cur table: 1154
epoch: 1000
next table: 1040
cur table: 1040
epoch: 1000
next table: 1029
cur table: 1040
epoch: 1000
next table: 1042
cur table: 1029
epoch: 1000
next table: 1034
cur table: 1042
epoch: 1000
next table: 1055
cur table: 1034
epoch: 1000
next table: 1034
cur table: 1055
epoch: 1000
next table: 1175
cur table: 1166
epoch: 1000
next table: 1035
cur table: 1034
epoch: 1000
next table: 1036
cur table: 1035
epoch: 1000
next table: 1054
cur table: 1036
epoch: 1000
next table: 1035
cur table: 1054
epoch: 1000
next table: 1042
cur table: 1035
epoch: 1000
next table: 1155
cur table: 1175
epoch: 1000
next table: 1039
cur table: 1042
epoch: 1000
next table: 1035
cur table: 1039
epoch: 1000
next table: 1044
cur table: 1035
epoch: 1000
next table: 1039
cur table: 1044
epoch: 1000
next table: 1118
cur table: 1155
epoch: 1000
next table: 1036
cur table: 1039
epoch: 1000
next table: 1051
cur table: 1036
epoch: 1000
next table: 1040
cur table: 1051
epoch: 1000
next table: 1031
cur table: 1040
epoch: 1000
next table: 1162
cur table: 1118
epoch: 1000
next table: 1024
cur table: 1031
epoch: 1000
next table: 1055
cur table: 1024
epoch: 1000
next table: 1066
cur table: 1055
epoch: 1000
next table: 1040
cur table: 1066
epoch: 1000
next table: 1167
cur table: 1162
epoch: 1000
next table: 1032
cur table: 1040
epoch: 1000
next table: 1041
cur table: 1032
epoch: 1000
next table: 1049
cur table: 1041
epoch: 1000
next table: 1032
cur table: 1049
epoch: 1000
next table: 1120
cur table: 1167
epoch: 1000
next table: 1033
cur table: 1032
epoch: 1000
next table: 1038
cur table: 1033
epoch: 1000
next table: 1040
cur table: 1038
epoch: 1000
next table: 1033
cur table: 1040
epoch: 1000
next table: 1036
cur table: 1033
epoch: 1000
next table: 1157
cur table: 1120
epoch: 1000
next table: 1034
cur table: 1036
epoch: 1000
next table: 1028
cur table: 1034
epoch: 1000
next table: 1030
cur table: 1028
epoch: 1000
next table: 1032
cur table: 1030
epoch: 1000
next table: 1028
cur table: 1032
epoch: 1000
next table: 1131
cur table: 1157
epoch: 1000
next table: 1031
cur table: 1028
epoch: 1000
next table: 1029
cur table: 1031
epoch: 1000
next table: 1043
cur table: 1029
epoch: 1000
next table: 1031
cur table: 1043
epoch: 1000
next table: 1151
cur table: 1131
epoch: 1000
next table: 1027
cur table: 1031
epoch: 1000
next table: 1034
cur table: 1027
epoch: 1000
next table: 1039
cur table: 1034
epoch: 1000
next table: 1033
cur table: 1039
epoch: 1000
next table: 1045
cur table: 1033
epoch: 1000
next table: 1032
cur table: 1045
epoch: 1000
next table: 1029
cur table: 1032
epoch: 1000
next table: 1197
cur table: 1151
epoch: 1000
next table: 1035
cur table: 1029
epoch: 1000
next table: 1040
cur table: 1035
epoch: 1000
next table: 1033
cur table: 1040
epoch: 1000
next table: 1122
cur table: 1197
epoch: 1000
next table: 1027
cur table: 1033
epoch: 1000
next table: 1036
cur table: 1027
epoch: 1000
next table: 1029
cur table: 1036
epoch: 1000
next table: 1031
cur table: 1029
epoch: 1000
next table: 1031
cur table: 1031
epoch: 1000
next table: 1141
cur table: 1122
epoch: 1000
next table: 1040
cur table: 1031
epoch: 1000
next table: 1043
cur table: 1040
epoch: 1000
next table: 1065
cur table: 1043
epoch: 1000
next table: 1056
cur table: 1065
epoch: 1000
next table: 1183
cur table: 1141
epoch: 1000
next table: 1038
cur table: 1056
epoch: 1000
next table: 1033
cur table: 1038
epoch: 1000
next table: 1037
cur table: 1033
epoch: 1000
next table: 1045
cur table: 1037
epoch: 1000
next table: 1122
cur table: 1183
epoch: 1000
next table: 1033
cur table: 1045
epoch: 1000
next table: 1027
cur table: 1033
epoch: 1000
next table: 1032
cur table: 1027
epoch: 1000
next table: 1038
cur table: 1032
epoch: 1000
next table: 1039
cur table: 1038
epoch: 1000
next table: 1148
cur table: 1122
epoch: 1000
next table: 1035
cur table: 1039
epoch: 1000
next table: 1031
cur table: 1035
epoch: 1000
next table: 1033
cur table: 1031
epoch: 1000
next table: 1039
cur table: 1033
epoch: 1000
next table: 1052
cur table: 1039
epoch: 1000
next table: 1150
cur table: 1148
epoch: 1000
next table: 1043
cur table: 1052
epoch: 1000
next table: 1034
cur table: 1043
epoch: 1000
next table: 1030
cur table: 1034
epoch: 1000
next table: 1030
cur table: 1030
epoch: 1000
next table: 1132
cur table: 1150
epoch: 1000
next table: 1046
cur table: 1030
epoch: 1000
next table: 1039
cur table: 1046
epoch: 1000
next table: 1039
cur table: 1039
epoch: 1000
next table: 1034
cur table: 1039
epoch: 1000
next table: 1027
cur table: 1034
epoch: 1000
next table: 1032
cur table: 1027
epoch: 1000
next table: 1169
cur table: 1132
epoch: 1000
next table: 1033
cur table: 1032
epoch: 1000
next table: 1040
cur table: 1033
epoch: 1000
next table: 1031
cur table: 1040
epoch: 1000
next table: 1034
cur table: 1031
epoch: 1000
next table: 1131
cur table: 1169
epoch: 1000
next table: 1032
cur table: 1034
Heartbeat CPU 0 instructions: 40000003 cycles: 11385560 heartbeat IPC: 3.51267 cumulative IPC: 3.51322 (Simulation time: 0 hr 23 min 54 sec) 
epoch: 1000
next table: 1036
cur table: 1032
epoch: 1000
next table: 1048
cur table: 1036
epoch: 1000
next table: 1028
cur table: 1048
epoch: 1000
next table: 1029
cur table: 1028
epoch: 1000
next table: 1032
cur table: 1029
epoch: 1000
next table: 1163
cur table: 1131
epoch: 1000
next table: 1027
cur table: 1032
epoch: 1000
next table: 1029
cur table: 1027
epoch: 1000
next table: 1067
cur table: 1029
epoch: 1000
next table: 1060
cur table: 1067
epoch: 1000
next table: 1171
cur table: 1163
epoch: 1000
next table: 1042
cur table: 1060
epoch: 1000
next table: 1047
cur table: 1042
epoch: 1000
next table: 1032
cur table: 1047
epoch: 1000
next table: 1050
cur table: 1032
epoch: 1000
next table: 1137
cur table: 1171
epoch: 1000
next table: 1039
cur table: 1050
epoch: 1000
next table: 1040
cur table: 1039
epoch: 1000
next table: 1031
cur table: 1040
epoch: 1000
next table: 1027
cur table: 1031
epoch: 1000
next table: 1141
cur table: 1137
epoch: 1000
next table: 1034
cur table: 1027
epoch: 1000
next table: 1034
cur table: 1034
epoch: 1000
next table: 1029
cur table: 1034
epoch: 1000
next table: 1028
cur table: 1029
epoch: 1000
next table: 1028
cur table: 1028
epoch: 1000
next table: 1143
cur table: 1141
epoch: 1000
next table: 1031
cur table: 1028
epoch: 1000
next table: 1030
cur table: 1031
epoch: 1000
next table: 1048
cur table: 1030
epoch: 1000
next table: 1041
cur table: 1048
epoch: 1000
next table: 1033
cur table: 1041
epoch: 1000
next table: 1161
cur table: 1143
epoch: 1000
next table: 1030
cur table: 1033
epoch: 1000
next table: 1041
cur table: 1030
epoch: 1000
next table: 1046
cur table: 1041
epoch: 1000
next table: 1030
cur table: 1046
epoch: 1000
next table: 1026
cur table: 1030
epoch: 1000
next table: 1159
cur table: 1161
epoch: 1000
next table: 1029
cur table: 1026
epoch: 1000
next table: 1040
cur table: 1029
epoch: 1000
next table: 1025
cur table: 1040
epoch: 1000
next table: 1037
cur table: 1025
epoch: 1000
next table: 1027
cur table: 1037
epoch: 1000
next table: 1155
cur table: 1159
epoch: 1000
next table: 1027
cur table: 1027
epoch: 1000
next table: 1033
cur table: 1027
epoch: 1000
next table: 1025
cur table: 1033
epoch: 1000
next table: 1028
cur table: 1025
epoch: 1000
next table: 1028
cur table: 1028
epoch: 1000
next table: 1136
cur table: 1155
epoch: 1000
next table: 1029
cur table: 1028
epoch: 1000
next table: 1026
cur table: 1029
epoch: 1000
next table: 1028
cur table: 1026
epoch: 1000
next table: 1060
cur table: 1028
epoch: 1000
next table: 1144
cur table: 1136
epoch: 1000
next table: 1075
cur table: 1060
epoch: 1000
next table: 1050
cur table: 1075
epoch: 1000
next table: 1034
cur table: 1050
epoch: 1000
next table: 1149
cur table: 1144
epoch: 1000
next table: 1048
cur table: 1034
epoch: 1000
next table: 1048
cur table: 1048
epoch: 1000
next table: 1042
cur table: 1048
epoch: 1000
next table: 1038
cur table: 1042
epoch: 1000
next table: 1030
cur table: 1038
epoch: 1000
next table: 1151
cur table: 1149
epoch: 1000
next table: 1033
cur table: 1030
epoch: 1000
next table: 1041
cur table: 1033
epoch: 1000
next table: 1039
cur table: 1041
epoch: 1000
next table: 1037
cur table: 1039
epoch: 1000
next table: 1138
cur table: 1151
epoch: 1000
next table: 1031
cur table: 1037
epoch: 1000
next table: 1043
cur table: 1031
epoch: 1000
next table: 1028
cur table: 1043
epoch: 1000
next table: 1045
cur table: 1028
epoch: 1000
next table: 1034
cur table: 1045
epoch: 1000
next table: 1136
cur table: 1138
epoch: 1000
next table: 1041
cur table: 1034
epoch: 1000
next table: 1034
cur table: 1041
epoch: 1000
next table: 1036
cur table: 1034
epoch: 1000
next table: 1027
cur table: 1036
epoch: 1000
next table: 1037
cur table: 1027
epoch: 1000
next table: 1149
cur table: 1136
epoch: 1000
next table: 1039
cur table: 1037
epoch: 1000
next table: 1033
cur table: 1039
epoch: 1000
next table: 1030
cur table: 1033
epoch: 1000
next table: 1040
cur table: 1030
epoch: 1000
next table: 1030
cur table: 1040
epoch: 1000
next table: 1139
cur table: 1149
epoch: 1000
next table: 1037
cur table: 1030
epoch: 1000
next table: 1033
cur table: 1037
epoch: 1000
next table: 1030
cur table: 1033
epoch: 1000
next table: 1037
cur table: 1030
epoch: 1000
next table: 1119
cur table: 1139
epoch: 1000
next table: 1031
cur table: 1037
epoch: 1000
next table: 1027
cur table: 1031
epoch: 1000
next table: 1034
cur table: 1027
epoch: 1000
next table: 1039
cur table: 1034
epoch: 1000
next table: 1035
cur table: 1039
epoch: 1000
next table: 1150
cur table: 1119
epoch: 1000
next table: 1030
cur table: 1035
epoch: 1000
next table: 1062
cur table: 1030
epoch: 1000
next table: 1072
cur table: 1062
epoch: 1000
next table: 1055
cur table: 1072
epoch: 1000
next table: 1177
cur table: 1150
epoch: 1000
next table: 1037
cur table: 1055
epoch: 1000
next table: 1052
cur table: 1037
epoch: 1000
next table: 1039
cur table: 1052
epoch: 1000
next table: 1121
cur table: 1177
epoch: 1000
next table: 1034
cur table: 1039
epoch: 1000
next table: 1036
cur table: 1034
epoch: 1000
next table: 1030
cur table: 1036
epoch: 1000
next table: 1046
cur table: 1030
epoch: 1000
next table: 1046
cur table: 1046
epoch: 1000
next table: 1043
cur table: 1046
epoch: 1000
next table: 1177
cur table: 1121
epoch: 1000
next table: 1027
cur table: 1043
epoch: 1000
next table: 1032
cur table: 1027
epoch: 1000
next table: 1035
cur table: 1032
epoch: 1000
next table: 1061
cur table: 1035
epoch: 1000
next table: 1141
cur table: 1177
epoch: 1000
next table: 1042
cur table: 1061
epoch: 1000
next table: 1026
cur table: 1042
epoch: 1000
next table: 1028
cur table: 1026
epoch: 1000
next table: 1040
cur table: 1028
epoch: 1000
next table: 1031
cur table: 1040
epoch: 1000
next table: 1147
cur table: 1141
epoch: 1000
next table: 1030
cur table: 1031
epoch: 1000
next table: 1035
cur table: 1030
epoch: 1000
next table: 1033
cur table: 1035
epoch: 1000
next table: 1033
cur table: 1033
epoch: 1000
next table: 1031
cur table: 1033
epoch: 1000
next table: 1137
cur table: 1147
epoch: 1000
next table: 1026
cur table: 1031
epoch: 1000
next table: 1052
cur table: 1026
epoch: 1000
next table: 1046
cur table: 1052
epoch: 1000
next table: 1033
cur table: 1046
epoch: 1000
next table: 1153
cur table: 1137
epoch: 1000
next table: 1040
cur table: 1033
epoch: 1000
next table: 1029
cur table: 1040
epoch: 1000
next table: 1029
cur table: 1029
epoch: 1000
next table: 1039
cur table: 1029
epoch: 1000
next table: 1036
cur table: 1039
epoch: 1000
next table: 1150
cur table: 1153
epoch: 1000
next table: 1032
cur table: 1036
epoch: 1000
next table: 1036
cur table: 1032
epoch: 1000
next table: 1032
cur table: 1036
epoch: 1000
next table: 1064
cur table: 1032
epoch: 1000
next table: 1155
cur table: 1150
epoch: 1000
next table: 1053
cur table: 1064
epoch: 1000
next table: 1043
cur table: 1053
epoch: 1000
next table: 1040
cur table: 1043
epoch: 1000
next table: 1048
cur table: 1040
epoch: 1000
next table: 1131
cur table: 1155
epoch: 1000
next table: 1035
cur table: 1048
epoch: 1000
next table: 1039
cur table: 1035
epoch: 1000
next table: 1047
cur table: 1039
epoch: 1000
next table: 1040
cur table: 1047
epoch: 1000
next table: 1142
cur table: 1131
epoch: 1000
next table: 1026
cur table: 1040
epoch: 1000
next table: 1031
cur table: 1026
epoch: 1000
next table: 1036
cur table: 1031
epoch: 1000
next table: 1024
cur table: 1036
epoch: 1000
next table: 1036
cur table: 1024
epoch: 1000
next table: 1129
cur table: 1142
epoch: 1000
next table: 1040
cur table: 1036
epoch: 1000
next table: 1037
cur table: 1040
epoch: 1000
next table: 1052
cur table: 1037
epoch: 1000
next table: 1025
cur table: 1052
epoch: 1000
next table: 1122
cur table: 1129
epoch: 1000
next table: 1026
cur table: 1025
epoch: 1000
next table: 1034
cur table: 1026
epoch: 1000
next table: 1035
cur table: 1034
epoch: 1000
next table: 1030
cur table: 1035
epoch: 1000
next table: 1135
cur table: 1122
epoch: 1000
next table: 1043
cur table: 1030
epoch: 1000
next table: 1050
cur table: 1043
epoch: 1000
next table: 1027
cur table: 1050
epoch: 1000
next table: 1028
cur table: 1027
epoch: 1000
next table: 1030
cur table: 1028
epoch: 1000
next table: 1153
cur table: 1135
epoch: 1000
next table: 1038
cur table: 1030
epoch: 1000
next table: 1032
cur table: 1038
epoch: 1000
next table: 1040
cur table: 1032
epoch: 1000
next table: 1027
cur table: 1040
epoch: 1000
next table: 1133
cur table: 1153
epoch: 1000
next table: 1032
cur table: 1027
epoch: 1000
next table: 1029
cur table: 1032
epoch: 1000
next table: 1030
cur table: 1029
epoch: 1000
next table: 1046
cur table: 1030
epoch: 1000
next table: 1041
cur table: 1046
epoch: 1000
next table: 1033
cur table: 1041
epoch: 1000
next table: 1179
cur table: 1133
epoch: 1000
next table: 1032
cur table: 1033
epoch: 1000
next table: 1064
cur table: 1032
epoch: 1000
next table: 1055
cur table: 1064
epoch: 1000
next table: 1046
cur table: 1055
epoch: 1000
next table: 1160
cur table: 1179
epoch: 1000
next table: 1041
cur table: 1046
epoch: 1000
next table: 1052
cur table: 1041
epoch: 1000
next table: 1040
cur table: 1052
epoch: 1000
next table: 1033
cur table: 1040
epoch: 1000
next table: 1138
cur table: 1160
epoch: 1000
next table: 1043
cur table: 1033
epoch: 1000
next table: 1054
cur table: 1043
epoch: 1000
next table: 1032
cur table: 1054
epoch: 1000
next table: 1033
cur table: 1032
epoch: 1000
next table: 1042
cur table: 1033
epoch: 1000
next table: 1164
cur table: 1138
epoch: 1000
next table: 1046
cur table: 1042
epoch: 1000
next table: 1034
cur table: 1046
epoch: 1000
next table: 1037
cur table: 1034
epoch: 1000
next table: 1051
cur table: 1037
epoch: 1000
next table: 1160
cur table: 1164
epoch: 1000
next table: 1055
cur table: 1051
epoch: 1000
next table: 1029
cur table: 1055
epoch: 1000
next table: 1032
cur table: 1029
epoch: 1000
next table: 1037
cur table: 1032
epoch: 1000
next table: 1102
cur table: 1160
epoch: 1000
next table: 1034
cur table: 1037
epoch: 1000
next table: 1031
cur table: 1034
epoch: 1000
next table: 1032
cur table: 1031
epoch: 1000
next table: 1031
cur table: 1032
epoch: 1000
next table: 1040
cur table: 1031
epoch: 1000
next table: 1125
cur table: 1102
epoch: 1000
next table: 1032
cur table: 1040
epoch: 1000
next table: 1040
cur table: 1032
epoch: 1000
next table: 1043
cur table: 1040
epoch: 1000
next table: 1049
cur table: 1043
epoch: 1000
next table: 1096
cur table: 1125
epoch: 1000
next table: 1043
cur table: 1049
epoch: 1000
next table: 1042
cur table: 1043
epoch: 1000
next table: 1039
cur table: 1042
epoch: 1000
next table: 1040
cur table: 1039
epoch: 1000
next table: 1033
cur table: 1040
epoch: 1000
next table: 1027
cur table: 1033
epoch: 1000
next table: 1087
cur table: 1096
epoch: 1000
next table: 1054
cur table: 1027
epoch: 1000
next table: 1027
cur table: 1054
epoch: 1000
next table: 1030
cur table: 1027
epoch: 1000
next table: 1062
cur table: 1030
epoch: 1000
next table: 1144
cur table: 1087
epoch: 1000
next table: 1041
cur table: 1062
epoch: 1000
next table: 1035
cur table: 1041
epoch: 1000
next table: 1035
cur table: 1035
epoch: 1000
next table: 1029
cur table: 1035
epoch: 1000
next table: 1125
cur table: 1144
epoch: 1000
next table: 1041
cur table: 1029
epoch: 1000
next table: 1026
cur table: 1041
epoch: 1000
next table: 1035
cur table: 1026
epoch: 1000
next table: 1031
cur table: 1035
epoch: 1000
next table: 1115
cur table: 1125
epoch: 1000
next table: 1035
cur table: 1031
epoch: 1000
next table: 1029
cur table: 1035
Heartbeat CPU 0 instructions: 50000001 cycles: 14228457 heartbeat IPC: 3.51754 cumulative IPC: 3.51408 (Simulation time: 0 hr 28 min 0 sec) 

Warmup complete CPU 0 instructions: 50000001 cycles: 14228457 (Simulation time: 0 hr 28 min 0 sec) 

epoch: 1000
next table: 1031
cur table: 1043
epoch: 1000
next table: 1031
cur table: 1031
epoch: 1000
next table: 1044
cur table: 1031
epoch: 1000
next table: 1032
cur table: 1044
epoch: 1000
next table: 1025
cur table: 1032
epoch: 1000
next table: 1030
cur table: 1025
epoch: 1000
next table: 1028
cur table: 1030
epoch: 1000
next table: 1028
cur table: 1028
epoch: 1000
next table: 1103
cur table: 1147
epoch: 1000
next table: 1045
cur table: 1028
epoch: 1000
next table: 1032
cur table: 1045
epoch: 1000
next table: 1027
cur table: 1032
epoch: 1000
next table: 1029
cur table: 1027
epoch: 1000
next table: 1026
cur table: 1029
epoch: 1000
next table: 1137
cur table: 1103
epoch: 1000
next table: 1028
cur table: 1026
epoch: 1000
next table: 1033
cur table: 1028
epoch: 1000
next table: 1030
cur table: 1033
epoch: 1000
next table: 1034
cur table: 1030
epoch: 1000
next table: 1078
cur table: 1137
epoch: 1000
next table: 1027
cur table: 1034
epoch: 1000
next table: 1031
cur table: 1027
epoch: 1000
next table: 1030
cur table: 1031
epoch: 1000
next table: 1030
cur table: 1030
epoch: 1000
next table: 1027
cur table: 1030
epoch: 1000
next table: 1065
cur table: 1078
epoch: 1000
next table: 1035
cur table: 1027
epoch: 1000
next table: 1026
cur table: 1035
epoch: 1000
next table: 1038
cur table: 1026
epoch: 1000
next table: 1050
cur table: 1038
epoch: 1000
next table: 1148
cur table: 1065
epoch: 1000
next table: 1051
cur table: 1050
epoch: 1000
next table: 1035
cur table: 1051
epoch: 1000
next table: 1037
cur table: 1035
epoch: 1000
next table: 1040
cur table: 1037
epoch: 1000
next table: 1111
cur table: 1148
epoch: 1000
next table: 1031
cur table: 1040
epoch: 1000
next table: 1031
cur table: 1031
epoch: 1000
next table: 1034
cur table: 1031
epoch: 1000
next table: 1032
cur table: 1034
epoch: 1000
next table: 1039
cur table: 1032
epoch: 1000
next table: 1119
cur table: 1111
epoch: 1000
next table: 1026
cur table: 1039
epoch: 1000
next table: 1039
cur table: 1026
epoch: 1000
next table: 1037
cur table: 1039
epoch: 1000
next table: 1027
cur table: 1037
epoch: 1000
next table: 1114
cur table: 1119
epoch: 1000
next table: 1030
cur table: 1027
epoch: 1000
next table: 1032
cur table: 1030
epoch: 1000
next table: 1034
cur table: 1032
epoch: 1000
next table: 1049
cur table: 1034
epoch: 1000
next table: 1141
cur table: 1114
epoch: 1000
next table: 1050
cur table: 1049
epoch: 1000
next table: 1046
cur table: 1050
epoch: 1000
next table: 1054
cur table: 1046
epoch: 1000
next table: 1027
cur table: 1054
epoch: 1000
next table: 1033
cur table: 1027
epoch: 1000
next table: 1161
cur table: 1141
epoch: 1000
next table: 1023
cur table: 1033
epoch: 1000
next table: 1045
cur table: 1023
epoch: 1000
next table: 1037
cur table: 1045
epoch: 1000
next table: 1041
cur table: 1037
epoch: 1000
next table: 1030
cur table: 1041
epoch: 1000
next table: 1121
cur table: 1161
epoch: 1000
next table: 1038
cur table: 1030
epoch: 1000
next table: 1031
cur table: 1038
epoch: 1000
next table: 1025
cur table: 1031
epoch: 1000
next table: 1029
cur table: 1025
epoch: 1000
next table: 1046
cur table: 1121
epoch: 1000
next table: 1032
cur table: 1029
epoch: 1000
next table: 1028
cur table: 1032
epoch: 1000
next table: 1028
cur table: 1028
epoch: 1000
next table: 1034
cur table: 1028
epoch: 1000
next table: 1030
cur table: 1034
epoch: 1000
next table: 1121
cur table: 1046
epoch: 1000
next table: 1027
cur table: 1030
epoch: 1000
next table: 1061
cur table: 1027
epoch: 1000
next table: 1041
cur table: 1061
epoch: 1000
next table: 1046
cur table: 1041
epoch: 1000
next table: 1040
cur table: 1046
epoch: 1000
next table: 1167
cur table: 1121
epoch: 1000
next table: 1027
cur table: 1040
epoch: 1000
next table: 1050
cur table: 1027
epoch: 1000
next table: 1033
cur table: 1050
epoch: 1000
next table: 1030
cur table: 1033
epoch: 1000
next table: 1117
cur table: 1167
epoch: 1000
next table: 1040
cur table: 1030
epoch: 1000
next table: 1036
cur table: 1040
epoch: 1000
next table: 1043
cur table: 1036
epoch: 1000
next table: 1037
cur table: 1043
epoch: 1000
next table: 1030
cur table: 1037
epoch: 1000
next table: 1146
cur table: 1117
epoch: 1000
next table: 1028
cur table: 1030
epoch: 1000
next table: 1031
cur table: 1028
epoch: 1000
next table: 1036
cur table: 1031
epoch: 1000
next table: 1026
cur table: 1036
epoch: 1000
next table: 1101
cur table: 1146
epoch: 1000
next table: 1034
cur table: 1026
epoch: 1000
next table: 1029
cur table: 1034
epoch: 1000
next table: 1026
cur table: 1029
epoch: 1000
next table: 1030
cur table: 1026
epoch: 1000
next table: 1102
cur table: 1101
epoch: 1000
next table: 1035
cur table: 1030
epoch: 1000
next table: 1025
cur table: 1035
epoch: 1000
next table: 1039
cur table: 1025
epoch: 1000
next table: 1033
cur table: 1039
epoch: 1000
next table: 1036
cur table: 1033
epoch: 1000
next table: 1119
cur table: 1102
epoch: 1000
next table: 1032
cur table: 1036
epoch: 1000
next table: 1033
cur table: 1032
epoch: 1000
next table: 1028
cur table: 1033
epoch: 1000
next table: 1028
cur table: 1028
epoch: 1000
next table: 1070
cur table: 1119
epoch: 1000
next table: 1026
cur table: 1028
epoch: 1000
next table: 1030
cur table: 1026
epoch: 1000
next table: 1028
cur table: 1030
epoch: 1000
next table: 1032
cur table: 1028
epoch: 1000
next table: 1098
cur table: 1070
epoch: 1000
next table: 1046
cur table: 1032
epoch: 1000
next table: 1043
cur table: 1046
epoch: 1000
next table: 1027
cur table: 1043
epoch: 1000
next table: 1028
cur table: 1027
epoch: 1000
next table: 1070
cur table: 1028
epoch: 1000
next table: 1177
cur table: 1098
epoch: 1000
next table: 1044
cur table: 1070
epoch: 1000
next table: 1032
cur table: 1044
epoch: 1000
next table: 1036
cur table: 1032
epoch: 1000
next table: 1039
cur table: 1036
epoch: 1000
next table: 1103
cur table: 1177
epoch: 1000
next table: 1031
cur table: 1039
epoch: 1000
next table: 1029
cur table: 1031
epoch: 1000
next table: 1026
cur table: 1029
epoch: 1000
next table: 1043
cur table: 1026
epoch: 1000
next table: 1033
cur table: 1043
epoch: 1000
next table: 1120
cur table: 1103
epoch: 1000
next table: 1035
cur table: 1033
epoch: 1000
next table: 1039
cur table: 1035
epoch: 1000
next table: 1032
cur table: 1039
epoch: 1000
next table: 1028
cur table: 1032
epoch: 1000
next table: 1113
cur table: 1120
epoch: 1000
next table: 1028
cur table: 1028
epoch: 1000
next table: 1030
cur table: 1028
epoch: 1000
next table: 1045
cur table: 1030
epoch: 1000
next table: 1029
cur table: 1045
epoch: 1000
next table: 1036
cur table: 1029
epoch: 1000
next table: 1131
cur table: 1113
epoch: 1000
next table: 1028
cur table: 1036
epoch: 1000
next table: 1039
cur table: 1028
epoch: 1000
next table: 1045
cur table: 1039
epoch: 1000
next table: 1026
cur table: 1045
epoch: 1000
next table: 1026
cur table: 1026
epoch: 1000
next table: 1146
cur table: 1131
epoch: 1000
next table: 1051
cur table: 1026
epoch: 1000
next table: 1030
cur table: 1051
epoch: 1000
next table: 1024
cur table: 1030
epoch: 1000
next table: 1037
cur table: 1024
epoch: 1000
next table: 1038
cur table: 1037
epoch: 1000
next table: 1105
cur table: 1146
epoch: 1000
next table: 1028
cur table: 1038
epoch: 1000
next table: 1026
cur table: 1028
epoch: 1000
next table: 1038
cur table: 1026
epoch: 1000
next table: 1033
cur table: 1038
epoch: 1000
next table: 1082
cur table: 1105
epoch: 1000
next table: 1035
cur table: 1033
epoch: 1000
next table: 1038
cur table: 1035
epoch: 1000
next table: 1030
cur table: 1038
epoch: 1000
next table: 1041
cur table: 1030
epoch: 1000
next table: 1158
cur table: 1082
epoch: 1000
next table: 1065
cur table: 1041
epoch: 1000
next table: 1049
cur table: 1065
epoch: 1000
next table: 1039
cur table: 1049
epoch: 1000
next table: 1033
cur table: 1039
epoch: 1000
next table: 1032
cur table: 1033
epoch: 1000
next table: 1147
cur table: 1158
epoch: 1000
next table: 1034
cur table: 1032
epoch: 1000
next table: 1034
cur table: 1034
epoch: 1000
next table: 1026
cur table: 1034
epoch: 1000
next table: 1027
cur table: 1026
epoch: 1000
next table: 1099
cur table: 1147
epoch: 1000
next table: 1030
cur table: 1027
epoch: 1000
next table: 1029
cur table: 1030
epoch: 1000
next table: 1050
cur table: 1029
epoch: 1000
next table: 1040
cur table: 1050
epoch: 1000
next table: 1031
cur table: 1040
epoch: 1000
next table: 1144
cur table: 1099
epoch: 1000
next table: 1033
cur table: 1031
epoch: 1000
next table: 1036
cur table: 1033
epoch: 1000
next table: 1034
cur table: 1036
epoch: 1000
next table: 1028
cur table: 1034
epoch: 1000
next table: 1033
cur table: 1028
epoch: 1000
next table: 1119
cur table: 1144
epoch: 1000
next table: 1043
cur table: 1033
epoch: 1000
next table: 1027
cur table: 1043
epoch: 1000
next table: 1028
cur table: 1027
epoch: 1000
next table: 1029
cur table: 1028
epoch: 1000
next table: 1033
cur table: 1029
epoch: 1000
next table: 1145
cur table: 1119
epoch: 1000
next table: 1027
cur table: 1033
epoch: 1000
next table: 1028
cur table: 1027
epoch: 1000
next table: 1027
cur table: 1028
epoch: 1000
next table: 1044
cur table: 1027
epoch: 1000
next table: 1052
cur table: 1044
epoch: 1000
next table: 1148
cur table: 1145
epoch: 1000
next table: 1036
cur table: 1052
epoch: 1000
next table: 1027
cur table: 1036
epoch: 1000
next table: 1030
cur table: 1027
epoch: 1000
next table: 1036
cur table: 1030
epoch: 1000
next table: 1033
cur table: 1036
epoch: 1000
next table: 1089
cur table: 1148
epoch: 1000
next table: 1033
cur table: 1033
epoch: 1000
next table: 1043
cur table: 1033
epoch: 1000
next table: 1040
cur table: 1043
epoch: 1000
next table: 1029
cur table: 1040
epoch: 1000
next table: 1163
cur table: 1089
epoch: 1000
next table: 1075
cur table: 1029
epoch: 1000
next table: 1041
cur table: 1075
epoch: 1000
next table: 1034
cur table: 1041
epoch: 1000
next table: 1040
cur table: 1034
epoch: 1000
next table: 1034
cur table: 1040
epoch: 1000
next table: 1146
cur table: 1163
epoch: 1000
next table: 1035
cur table: 1034
epoch: 1000
next table: 1028
cur table: 1035
epoch: 1000
next table: 1028
cur table: 1028
epoch: 1000
next table: 1029
cur table: 1028
epoch: 1000
next table: 1025
cur table: 1029
epoch: 1000
next table: 1116
cur table: 1146
epoch: 1000
next table: 1033
cur table: 1025
epoch: 1000
next table: 1029
cur table: 1033
epoch: 1000
next table: 1030
cur table: 1029
epoch: 1000
next table: 1026
cur table: 1030
epoch: 1000
next table: 1117
cur table: 1116
epoch: 1000
next table: 1042
cur table: 1026
epoch: 1000
next table: 1037
cur table: 1042
epoch: 1000
next table: 1030
cur table: 1037
epoch: 1000
next table: 1025
cur table: 1030
epoch: 1000
next table: 1031
cur table: 1025
epoch: 1000
next table: 1118
cur table: 1117
epoch: 1000
next table: 1027
cur table: 1031
epoch: 1000
next table: 1035
cur table: 1027
epoch: 1000
next table: 1029
cur table: 1035
epoch: 1000
next table: 1032
cur table: 1029
epoch: 1000
next table: 1026
cur table: 1032
epoch: 1000
next table: 1129
cur table: 1118
epoch: 1000
next table: 1032
cur table: 1026
epoch: 1000
next table: 1031
cur table: 1032
epoch: 1000
next table: 1039
cur table: 1031
epoch: 1000
next table: 1038
cur table: 1039
Heartbeat CPU 0 instructions: 60000000 cycles: 28969803 heartbeat IPC: 0.678364 cumulative IPC: 0.678364 (Simulation time: 0 hr 30 min 50 sec) 
epoch: 1000
next table: 1033
cur table: 1038
epoch: 1000
next table: 1131
cur table: 1129
epoch: 1000
next table: 1057
cur table: 1033
epoch: 1000
next table: 1054
cur table: 1057
epoch: 1000
next table: 1044
cur table: 1054
epoch: 1000
next table: 1031
cur table: 1044
epoch: 1000
next table: 1027
cur table: 1031
epoch: 1000
next table: 1126
cur table: 1131
epoch: 1000
next table: 1027
cur table: 1027
epoch: 1000
next table: 1028
cur table: 1027
epoch: 1000
next table: 1030
cur table: 1028
epoch: 1000
next table: 1069
cur table: 1030
epoch: 1000
next table: 1125
cur table: 1126
epoch: 1000
next table: 1043
cur table: 1069
epoch: 1000
next table: 1031
cur table: 1043
epoch: 1000
next table: 1038
cur table: 1031
epoch: 1000
next table: 1027
cur table: 1038
epoch: 1000
next table: 1119
cur table: 1125
epoch: 1000
next table: 1031
cur table: 1027
epoch: 1000
next table: 1039
cur table: 1031
epoch: 1000
next table: 1034
cur table: 1039
epoch: 1000
next table: 1027
cur table: 1034
epoch: 1000
next table: 1048
cur table: 1027
epoch: 1000
next table: 1133
cur table: 1119
epoch: 1000
next table: 1032
cur table: 1048
epoch: 1000
next table: 1039
cur table: 1032
epoch: 1000
next table: 1031
cur table: 1039
epoch: 1000
next table: 1033
cur table: 1031
epoch: 1000
next table: 1024
cur table: 1033
epoch: 1000
next table: 1151
cur table: 1133
epoch: 1000
next table: 1035
cur table: 1024
epoch: 1000
next table: 1047
cur table: 1035
epoch: 1000
next table: 1028
cur table: 1047
epoch: 1000
next table: 1030
cur table: 1028
epoch: 1000
next table: 1030
cur table: 1030
epoch: 1000
next table: 1112
cur table: 1151
epoch: 1000
next table: 1032
cur table: 1030
epoch: 1000
next table: 1028
cur table: 1032
epoch: 1000
next table: 1032
cur table: 1028
epoch: 1000
next table: 1027
cur table: 1032
epoch: 1000
next table: 1125
cur table: 1112
epoch: 1000
next table: 1031
cur table: 1027
epoch: 1000
next table: 1031
cur table: 1031
epoch: 1000
next table: 1028
cur table: 1031
epoch: 1000
next table: 1031
cur table: 1028
epoch: 1000
next table: 1043
cur table: 1031
epoch: 1000
next table: 1033
cur table: 1043
epoch: 1000
next table: 1121
cur table: 1125
epoch: 1000
next table: 1027
cur table: 1033
epoch: 1000
next table: 1030
cur table: 1027
epoch: 1000
next table: 1032
cur table: 1030
epoch: 1000
next table: 1025
cur table: 1032
epoch: 1000
next table: 1033
cur table: 1025
epoch: 1000
next table: 1098
cur table: 1121
epoch: 1000
next table: 1028
cur table: 1033
epoch: 1000
next table: 1025
cur table: 1028
epoch: 1000
next table: 1038
cur table: 1025
epoch: 1000
next table: 1068
cur table: 1038
epoch: 1000
next table: 1138
cur table: 1098
epoch: 1000
next table: 1049
cur table: 1068
epoch: 1000
next table: 1034
cur table: 1049
epoch: 1000
next table: 1038
cur table: 1034
epoch: 1000
next table: 1035
cur table: 1038
epoch: 1000
next table: 1127
cur table: 1138
epoch: 1000
next table: 1035
cur table: 1035
epoch: 1000
next table: 1029
cur table: 1035
epoch: 1000
next table: 1028
cur table: 1029
epoch: 1000
next table: 1035
cur table: 1028
epoch: 1000
next table: 1024
cur table: 1035
epoch: 1000
next table: 1107
cur table: 1127
epoch: 1000
next table: 1038
cur table: 1024
epoch: 1000
next table: 1028
cur table: 1038
epoch: 1000
next table: 1033
cur table: 1028
epoch: 1000
next table: 1029
cur table: 1033
epoch: 1000
next table: 1049
cur table: 1029
epoch: 1000
next table: 1156
cur table: 1107
epoch: 1000
next table: 1038
cur table: 1049
epoch: 1000
next table: 1038
cur table: 1038
epoch: 1000
next table: 1025
cur table: 1038
epoch: 1000
next table: 1035
cur table: 1025
epoch: 1000
next table: 1104
cur table: 1156
epoch: 1000
next table: 1027
cur table: 1035
epoch: 1000
next table: 1027
cur table: 1027
epoch: 1000
next table: 1036
cur table: 1027
epoch: 1000
next table: 1028
cur table: 1036
epoch: 1000
next table: 1026
cur table: 1028
epoch: 1000
next table: 1122
cur table: 1104
epoch: 1000
next table: 1034
cur table: 1026
epoch: 1000
next table: 1027
cur table: 1034
epoch: 1000
next table: 1034
cur table: 1027
epoch: 1000
next table: 1028
cur table: 1034
epoch: 1000
next table: 1029
cur table: 1028
epoch: 1000
next table: 1101
cur table: 1122
epoch: 1000
next table: 1026
cur table: 1029
epoch: 1000
next table: 1027
cur table: 1026
epoch: 1000
next table: 1027
cur table: 1027
epoch: 1000
next table: 1030
cur table: 1027
epoch: 1000
next table: 1093
cur table: 1101
epoch: 1000
next table: 1028
cur table: 1030
epoch: 1000
next table: 1028
cur table: 1028
epoch: 1000
next table: 1035
cur table: 1028
epoch: 1000
next table: 1037
cur table: 1035
epoch: 1000
next table: 1059
cur table: 1037
epoch: 1000
next table: 1147
cur table: 1093
epoch: 1000
next table: 1040
cur table: 1059
epoch: 1000
next table: 1040
cur table: 1040
epoch: 1000
next table: 1038
cur table: 1040
epoch: 1000
next table: 1035
cur table: 1038
epoch: 1000
next table: 1034
cur table: 1035
epoch: 1000
next table: 1153
cur table: 1147
epoch: 1000
next table: 1036
cur table: 1034
epoch: 1000
next table: 1028
cur table: 1036
epoch: 1000
next table: 1025
cur table: 1028
epoch: 1000
next table: 1029
cur table: 1025
epoch: 1000
next table: 1034
cur table: 1029
epoch: 1000
next table: 1119
cur table: 1153
epoch: 1000
next table: 1040
cur table: 1034
epoch: 1000
next table: 1035
cur table: 1040
epoch: 1000
next table: 1029
cur table: 1035
epoch: 1000
next table: 1034
cur table: 1029
epoch: 1000
next table: 1036
cur table: 1034
epoch: 1000
next table: 1151
cur table: 1119
epoch: 1000
next table: 1024
cur table: 1036
epoch: 1000
next table: 1030
cur table: 1024
epoch: 1000
next table: 1029
cur table: 1030
epoch: 1000
next table: 1030
cur table: 1029
epoch: 1000
next table: 1029
cur table: 1030
epoch: 1000
next table: 1103
cur table: 1151
epoch: 1000
next table: 1028
cur table: 1029
epoch: 1000
next table: 1028
cur table: 1028
epoch: 1000
next table: 1046
cur table: 1028
epoch: 1000
next table: 1027
cur table: 1046
epoch: 1000
next table: 1121
cur table: 1103
epoch: 1000
next table: 1029
cur table: 1027
epoch: 1000
next table: 1030
cur table: 1029
epoch: 1000
next table: 1026
cur table: 1030
epoch: 1000
next table: 1031
cur table: 1026
epoch: 1000
next table: 1030
cur table: 1031
epoch: 1000
next table: 1103
cur table: 1121
epoch: 1000
next table: 1042
cur table: 1030
epoch: 1000
next table: 1036
cur table: 1042
epoch: 1000
next table: 1030
cur table: 1036
epoch: 1000
next table: 1025
cur table: 1030
epoch: 1000
next table: 1097
cur table: 1103
epoch: 1000
next table: 1034
cur table: 1025
epoch: 1000
next table: 1028
cur table: 1034
epoch: 1000
next table: 1026
cur table: 1028
epoch: 1000
next table: 1031
cur table: 1026
epoch: 1000
next table: 1069
cur table: 1031
epoch: 1000
next table: 1134
cur table: 1097
epoch: 1000
next table: 1049
cur table: 1069
epoch: 1000
next table: 1034
cur table: 1049
epoch: 1000
next table: 1040
cur table: 1034
epoch: 1000
next table: 1028
cur table: 1040
epoch: 1000
next table: 1037
cur table: 1028
epoch: 1000
next table: 1140
cur table: 1134
epoch: 1000
next table: 1028
cur table: 1037
epoch: 1000
next table: 1040
cur table: 1028
epoch: 1000
next table: 1038
cur table: 1040
epoch: 1000
next table: 1034
cur table: 1038
epoch: 1000
next table: 1048
cur table: 1034
epoch: 1000
next table: 1155
cur table: 1140
epoch: 1000
next table: 1029
cur table: 1048
epoch: 1000
next table: 1027
cur table: 1029
epoch: 1000
next table: 1033
cur table: 1027
epoch: 1000
next table: 1026
cur table: 1033
epoch: 1000
next table: 1027
cur table: 1026
epoch: 1000
next table: 1139
cur table: 1155
epoch: 1000
next table: 1034
cur table: 1027
epoch: 1000
next table: 1024
cur table: 1034
epoch: 1000
next table: 1031
cur table: 1024
epoch: 1000
next table: 1027
cur table: 1031
epoch: 1000
next table: 1028
cur table: 1027
epoch: 1000
next table: 1100
cur table: 1139
epoch: 1000
next table: 1035
cur table: 1028
epoch: 1000
next table: 1033
cur table: 1035
epoch: 1000
next table: 1031
cur table: 1033
epoch: 1000
next table: 1032
cur table: 1031
epoch: 1000
next table: 1123
cur table: 1100
epoch: 1000
next table: 1034
cur table: 1032
epoch: 1000
next table: 1026
cur table: 1034
epoch: 1000
next table: 1031
cur table: 1026
epoch: 1000
next table: 1032
cur table: 1031
epoch: 1000
next table: 1033
cur table: 1032
epoch: 1000
next table: 1082
cur table: 1123
epoch: 1000
next table: 1039
cur table: 1033
epoch: 1000
next table: 1028
cur table: 1039
epoch: 1000
next table: 1028
cur table: 1028
epoch: 1000
next table: 1087
cur table: 1082
epoch: 1000
next table: 1039
cur table: 1028
epoch: 1000
next table: 1043
cur table: 1039
epoch: 1000
next table: 1029
cur table: 1043
epoch: 1000
next table: 1025
cur table: 1029
epoch: 1000
next table: 1048
cur table: 1025
epoch: 1000
next table: 1128
cur table: 1087
epoch: 1000
next table: 1057
cur table: 1048
epoch: 1000
next table: 1039
cur table: 1057
epoch: 1000
next table: 1045
cur table: 1039
epoch: 1000
next table: 1041
cur table: 1045
epoch: 1000
next table: 1044
cur table: 1041
epoch: 1000
next table: 1171
cur table: 1128
epoch: 1000
next table: 1026
cur table: 1044
epoch: 1000
next table: 1026
cur table: 1026
epoch: 1000
next table: 1028
cur table: 1026
epoch: 1000
next table: 1031
cur table: 1028
epoch: 1000
next table: 1030
cur table: 1031
epoch: 1000
next table: 1115
cur table: 1171
epoch: 1000
next table: 1030
cur table: 1030
epoch: 1000
next table: 1039
cur table: 1030
epoch: 1000
next table: 1028
cur table: 1039
epoch: 1000
next table: 1026
cur table: 1028
epoch: 1000
next table: 1045
cur table: 1026
epoch: 1000
next table: 1150
cur table: 1115
epoch: 1000
next table: 1054
cur table: 1045
epoch: 1000
next table: 1029
cur table: 1054
epoch: 1000
next table: 1039
cur table: 1029
epoch: 1000
next table: 1043
cur table: 1039
epoch: 1000
next table: 1140
cur table: 1150
epoch: 1000
next table: 1041
cur table: 1043
epoch: 1000
next table: 1055
cur table: 1041
epoch: 1000
next table: 1041
cur table: 1055
epoch: 1000
next table: 1055
cur table: 1041
epoch: 1000
next table: 1026
cur table: 1055
epoch: 1000
next table: 1057
cur table: 1026
epoch: 1000
next table: 1194
cur table: 1140
epoch: 1000
next table: 1039
cur table: 1057
epoch: 1000
next table: 1034
cur table: 1039
epoch: 1000
next table: 1033
cur table: 1034
epoch: 1000
next table: 1029
cur table: 1033
epoch: 1000
next table: 1096
cur table: 1194
epoch: 1000
next table: 1026
cur table: 1029
epoch: 1000
next table: 1038
cur table: 1026
epoch: 1000
next table: 1037
cur table: 1038
epoch: 1000
[...]
epoch: 1000
next table: 1030
cur table: 1029
epoch: 1000
next table: 1028
cur table: 1030
epoch: 1000
next table: 1031
cur table: 1028
epoch: 1000
next table: 1037
cur table: 1031
epoch: 1000
next table: 1036
cur table: 1037
epoch: 1000
next table: 1144
cur table: 1138
epoch: 1000
next table: 1044
cur table: 1036
epoch: 1000
next table: 1048
cur table: 1044
epoch: 1000
next table: 1049
cur table: 1048
epoch: 1000
next table: 1025
cur table: 1049
epoch: 1000
next table: 1029
cur table: 1025
epoch: 1000
next table: 1168
cur table: 1144
epoch: 1000
next table: 1033
cur table: 1029
epoch: 1000
next table: 1040
cur table: 1033
epoch: 1000
next table: 1029
cur table: 1040
epoch: 1000
next table: 1030
cur table: 1029
epoch: 1000
next table: 1028
cur table: 1030
epoch: 1000
next table: 1119
cur table: 1168
epoch: 1000
next table: 1033
cur table: 1028
epoch: 1000
next table: 1035
cur table: 1033
epoch: 1000
next table: 1026
cur table: 1035
epoch: 1000
next table: 1075
cur table: 1119
epoch: 1000
next table: 1031
cur table: 1026
epoch: 1000
next table: 1028
cur table: 1031
epoch: 1000
next table: 1026
cur table: 1028
epoch: 1000
next table: 1033
cur table: 1026
epoch: 1000
next table: 1030
cur table: 1033
epoch: 1000
next table: 1102
cur table: 1075
epoch: 1000
next table: 1025
cur table: 1030
epoch: 1000
next table: 1028
cur table: 1025
epoch: 1000
next table: 1057
cur table: 1028
epoch: 1000
next table: 1049
cur table: 1057
epoch: 1000
next table: 1131
cur table: 1102
epoch: 1000
next table: 1038
cur table: 1049
epoch: 1000
next table: 1038
cur table: 1038
epoch: 1000
next table: 1038
cur table: 1038
epoch: 1000
next table: 1045
cur table: 1038
epoch: 1000
next table: 1115
cur table: 1131
epoch: 1000
next table: 1029
cur table: 1045
epoch: 1000
next table: 1028
cur table: 1029
epoch: 1000
next table: 1029
cur table: 1028
epoch: 1000
next table: 1027
cur table: 1029
epoch: 1000
next table: 1030
cur table: 1027
epoch: 1000
next table: 1134
cur table: 1115
epoch: 1000
next table: 1031
cur table: 1030
epoch: 1000
next table: 1029
cur table: 1031
epoch: 1000
next table: 1027
cur table: 1029
epoch: 1000
next table: 1025
cur table: 1027
epoch: 1000
next table: 1034
cur table: 1025
epoch: 1000
next table: 1039
cur table: 1034
epoch: 1000
next table: 1133
cur table: 1134
epoch: 1000
next table: 1027
cur table: 1039
epoch: 1000
next table: 1029
cur table: 1027
epoch: 1000
next table: 1026
cur table: 1029
epoch: 1000
next table: 1032
cur table: 1026
epoch: 1000
next table: 1039
cur table: 1032
Heartbeat CPU 0 instructions: 100000001 cycles: 87869837 heartbeat IPC: 0.67813 cumulative IPC: 0.678966 (Simulation time: 0 hr 52 min 48 sec) 
Finished CPU 0 instructions: 50000000 cycles: 73641380 cumulative IPC: 0.678966 (Simulation time: 0 hr 52 min 48 sec) 

ChampSim completed all CPUs

Region of Interest Statistics

CPU 0 cumulative IPC: 0.678966 instructions: 50000000 cycles: 73641380
ITLB TOTAL     ACCESS:    7286776  HIT:    7286776  MISS:          0  HIT %:        100  MISS %:          0   MPKI: 0
ITLB LOAD TRANSLATION ACCESS:    7286776  HIT:    7286776  MISS:          0  HIT %:        100  MISS %:          0   MPKI: 0
ITLB PREFETCH  REQUESTED:          0  ISSUED:          0  USEFUL:          0  USELESS:          0
ITLB USEFUL LOAD PREFETCHES:          0 PREFETCH ISSUED TO LOWER LEVEL:          0  ACCURACY: -nan
ITLB TIMELY PREFETCHES:          0 LATE PREFETCHES: 0 DROPPED PREFETCHES: 0
ITLB PREFETCHES SAME FILL-ORIGIN LEVEL: 0 DIFFERENT FILL-ORIGIN LEVEL: 0
ITLB AVERAGE MISS LATENCY: -nan cycles
ITLB RQ	ACCESS:    9258048	FORWARD:          0	MERGED:    1971273	TO_CACHE:    7286775

Revised Interactions: positive negative neutral
ITLB_interactions 0 0 0 -nan -nan -nan
DTLB TOTAL     ACCESS:    7517782  HIT:    7500299  MISS:      17483  HIT %:    99.7674  MISS %:   0.232555   MPKI: 0.34966
DTLB LOAD TRANSLATION ACCESS:    7517782  HIT:    7500299  MISS:      17483  HIT %:    99.7674  MISS %:   0.232555   MPKI: 0.34966
DTLB PREFETCH  REQUESTED:          0  ISSUED:          0  USEFUL:          0  USELESS:          0
DTLB USEFUL LOAD PREFETCHES:          0 PREFETCH ISSUED TO LOWER LEVEL:          0  ACCURACY: -nan
DTLB TIMELY PREFETCHES:          0 LATE PREFETCHES: 0 DROPPED PREFETCHES: 0
DTLB PREFETCHES SAME FILL-ORIGIN LEVEL: 0 DIFFERENT FILL-ORIGIN LEVEL: 0
DTLB AVERAGE MISS LATENCY: 9.8049 cycles
DTLB RQ	ACCESS:    8140010	FORWARD:          0	MERGED:     622191	TO_CACHE:    7517819

Revised Interactions: positive negative neutral
DTLB_interactions 0 0 0 -nan -nan -nan
STLB TOTAL     ACCESS:     613967  HIT:     613908  MISS:         59  HIT %:    99.9904  MISS %: 0.00960964   MPKI: 0.00118
STLB LOAD TRANSLATION ACCESS:      17483  HIT:      17424  MISS:         59  HIT %:    99.6625  MISS %:   0.337471   MPKI: 0.00118
STLB TRANSLATION FROM L1D PREFETCHER ACCESS:     596484  HIT:     596484  MISS:          0  HIT %:        100  MISS %:          0   MPKI: 0
STLB PREFETCH  REQUESTED:          0  ISSUED:          0  USEFUL:          0  USELESS:          0
STLB USEFUL LOAD PREFETCHES:          0 PREFETCH ISSUED TO LOWER LEVEL:          0  ACCURACY: -nan
STLB TIMELY PREFETCHES:          0 LATE PREFETCHES: 0 DROPPED PREFETCHES: 0
STLB PREFETCHES SAME FILL-ORIGIN LEVEL: 0 DIFFERENT FILL-ORIGIN LEVEL: 0
STLB AVERAGE MISS LATENCY: 238.356 cycles
STLB RQ	ACCESS:    1799645	FORWARD:          0	MERGED:    1185678	TO_CACHE:     613967

Revised Interactions: positive negative neutral
STLB_interactions 0 0 0 -nan -nan -nan
STLB Hit, L1D data hit: 0
STLB Hit, L2C data hit: 0
STLB Hit, LLC data hit: 0
STLB Hit, LLC data miss: 0
STLB STLB hints to L2: 0
L1D TOTAL     ACCESS:    9892551  HIT:    8848943  MISS:    1043608  HIT %:    89.4506  MISS %:    10.5494   MPKI: 20.8722
L1D LOAD      ACCESS:    7468420  HIT:    7433813  MISS:      34607  HIT %:    99.5366  MISS %:   0.463378   MPKI: 0.69214
L1D RFO       ACCESS:     655707  HIT:     655595  MISS:        112  HIT %:    99.9829  MISS %:  0.0170808   MPKI: 0.00224
L1D PREFETCH  ACCESS:    1768424  HIT:     759535  MISS:    1008889  HIT %:    42.9498  MISS %:    57.0502   MPKI: 20.1778
L1D PREFETCH  REQUESTED:    3566938  ISSUED:    3564328  USEFUL:     912358  USELESS:      96546
L1D USEFUL LOAD PREFETCHES:     912358 PREFETCH ISSUED TO LOWER LEVEL:    1018314  ACCURACY: 89.595
L1D TIMELY PREFETCHES:     912358 LATE PREFETCHES: 12891 DROPPED PREFETCHES: 0
L1D PREFETCHES SAME FILL-ORIGIN LEVEL: 1018314 DIFFERENT FILL-ORIGIN LEVEL: 0
L1D AVERAGE MISS LATENCY: 109.667 cycles
L1D RQ	ACCESS:   14751968	FORWARD:          0	MERGED:    7268029	TO_CACHE:    7483929
L1D WQ	ACCESS:     656273	FORWARD:         14	MERGED:        192	TO_CACHE:     656081
L1D PQ	ACCESS:    1782166	FORWARD:          0	MERGED:          0	TO_CACHE:    1782162

Revised Interactions: positive negative neutral
L1D_interactions 0 0 0 -nan -nan -nan
L1D UNIQUE REGIONS ACCESSED: 0
L1D REGIONS CONFLICTS: 0
L1D Cross Page Prefetch Requests: 0
L1D Same Page Prefetch Requests: 3558061
L1D ROI Sum of L1D PQ occupancy: 24159027
L1D PREFETCHES PUSHED FROM L2C: 0
L1I TOTAL     ACCESS:    9258049  HIT:    9258049  MISS:          0  HIT %:        100  MISS %:          0   MPKI: 0
L1I LOAD      ACCESS:    9258049  HIT:    9258049  MISS:          0  HIT %:        100  MISS %:          0   MPKI: 0
L1I PREFETCH  REQUESTED:          0  ISSUED:          0  USEFUL:          0  USELESS:          0
L1I USEFUL LOAD PREFETCHES:          0 PREFETCH ISSUED TO LOWER LEVEL:          0  ACCURACY: -nan
L1I TIMELY PREFETCHES:          0 LATE PREFETCHES: 0 DROPPED PREFETCHES: 0
L1I PREFETCHES SAME FILL-ORIGIN LEVEL: 0 DIFFERENT FILL-ORIGIN LEVEL: 0
L1I AVERAGE MISS LATENCY: -nan cycles
L1I RQ	ACCESS:   18345850	FORWARD:          0	MERGED:    9087802	TO_CACHE:    9258048

Revised Interactions: positive negative neutral
L1I_interactions 0 0 0 -nan -nan -nan
BTB TOTAL     ACCESS:    8407904  HIT:    8407491  MISS:        413  HIT %:    99.9951  MISS %: 0.00491204   MPKI: 0.00826
BTB BRANCH_DIRECT_JUMP	ACCESS:        432  HIT:        430  MISS:          2
BTB BRANCH_INDIRECT	ACCESS:          0  HIT:          0  MISS:          0
BTB BRANCH_CONDITIONAL	ACCESS:    7758493  HIT:    7758460  MISS:         33
BTB BRANCH_DIRECT_CALL	ACCESS:     162583  HIT:     162570  MISS:         13
BTB BRANCH_INDIRECT_CALL	ACCESS:     161907  HIT:     161901  MISS:          6
BTB BRANCH_RETURN	ACCESS:     324489  HIT:     324130  MISS:        359
BTB BRANCH_OTHER ACCESS:          0  HIT:          0  MISS:          0

L2C TOTAL     ACCESS:    2481675  HIT:    1455059  MISS:    1026616  HIT %:    58.6321  MISS %:    41.3679   MPKI: 20.5323
L2C LOAD      ACCESS:      34607  HIT:       7471  MISS:      27136  HIT %:    21.5881  MISS %:    78.4119   MPKI: 0.54272
L2C DATA LOAD MPKI: 0.54272
L2C INSTRUCTION LOAD MPKI: 0
L2C RFO       ACCESS:        111  HIT:          0  MISS:        111  HIT %:          0  MISS %:        100   MPKI: 0.00222
L2C PREFETCH  ACCESS:    2446487  HIT:    1447361  MISS:     999126  HIT %:    59.1608  MISS %:    40.8392   MPKI: 19.9825
L2C DATA PREFETCH MPKI: 19.9825
L2C INSTRUCTION PREFETCH MPKI: 0
L2C WRITEBACK ACCESS:        411  HIT:        216  MISS:        195  HIT %:    52.5547  MISS %:    47.4453   MPKI: 0.0039
L2C LOAD TRANSLATION ACCESS:         59  HIT:         11  MISS:         48  HIT %:    18.6441  MISS %:    81.3559   MPKI: 0.00096
L2C PREFETCH  REQUESTED:    2176515  ISSUED:    2160970  USEFUL:       1967  USELESS:     997228
L2C USEFUL LOAD PREFETCHES:       1967 PREFETCH ISSUED TO LOWER LEVEL:     999182  ACCURACY: 0.196861
L2C TIMELY PREFETCHES:       1967 LATE PREFETCHES: 56 DROPPED PREFETCHES: 0
L2C PREFETCHES SAME FILL-ORIGIN LEVEL: 561891 DIFFERENT FILL-ORIGIN LEVEL: 0
L2C AVERAGE MISS LATENCY: 49.2085 cycles
L2C RQ	ACCESS:      34777	FORWARD:          0	MERGED:          0	TO_CACHE:      34777
L2C WQ	ACCESS:        411	FORWARD:          0	MERGED:          0	TO_CACHE:        411
L2C PQ	ACCESS:    3169860	FORWARD:          0	MERGED:     650410	TO_CACHE:    2519450

Revised Interactions: positive negative neutral
L2C_interactions 1735 996023 11304 0.171942 98.7078 1.12025
L2C Instructions Evicting Data 0
L2C Translations Evicting Data 48
L2C Data Evicting Data 1026325
L2C Instructions Evicting Instructions 0
L2C Translations Evicting Instructions 0
L2C Data Evicting Instructions 0
L2C Instructions Evicting Translations 0
L2C Translations Evicting Translations 0
L2C Data Evicting Translations 48
L2C Dense regions hint from L2: 0
PSCL5 TOTAL     ACCESS:         59  HIT:         59  MISS:          0  HIT %:        100  MISS %:          0   MPKI: 0
PSCL5 LOAD TRANSLATION ACCESS:         59  HIT:         59  MISS:          0  HIT %:        100  MISS %:          0   MPKI: 0
PSCL5 PREFETCH  REQUESTED:          0  ISSUED:          0  USEFUL:          0  USELESS:          0
PSCL5 USEFUL LOAD PREFETCHES:          0 PREFETCH ISSUED TO LOWER LEVEL:          0  ACCURACY: -nan
PSCL5 TIMELY PREFETCHES:          0 LATE PREFETCHES: 0 DROPPED PREFETCHES: 0
PSCL5 PREFETCHES SAME FILL-ORIGIN LEVEL: 0 DIFFERENT FILL-ORIGIN LEVEL: 0

Revised Interactions: positive negative neutral
PSCL5_interactions 0 0 0 -nan -nan -nan
PSCL4 TOTAL     ACCESS:         59  HIT:         59  MISS:          0  HIT %:        100  MISS %:          0   MPKI: 0
PSCL4 LOAD TRANSLATION ACCESS:         59  HIT:         59  MISS:          0  HIT %:        100  MISS %:          0   MPKI: 0
PSCL4 PREFETCH  REQUESTED:          0  ISSUED:          0  USEFUL:          0  USELESS:          0
PSCL4 USEFUL LOAD PREFETCHES:          0 PREFETCH ISSUED TO LOWER LEVEL:          0  ACCURACY: -nan
PSCL4 TIMELY PREFETCHES:          0 LATE PREFETCHES: 0 DROPPED PREFETCHES: 0
PSCL4 PREFETCHES SAME FILL-ORIGIN LEVEL: 0 DIFFERENT FILL-ORIGIN LEVEL: 0

Revised Interactions: positive negative neutral
PSCL4_interactions 0 0 0 -nan -nan -nan
PSCL3 TOTAL     ACCESS:         59  HIT:         59  MISS:          0  HIT %:        100  MISS %:          0   MPKI: 0
PSCL3 LOAD TRANSLATION ACCESS:         59  HIT:         59  MISS:          0  HIT %:        100  MISS %:          0   MPKI: 0
PSCL3 PREFETCH  REQUESTED:          0  ISSUED:          0  USEFUL:          0  USELESS:          0
PSCL3 USEFUL LOAD PREFETCHES:          0 PREFETCH ISSUED TO LOWER LEVEL:          0  ACCURACY: -nan
PSCL3 TIMELY PREFETCHES:          0 LATE PREFETCHES: 0 DROPPED PREFETCHES: 0
PSCL3 PREFETCHES SAME FILL-ORIGIN LEVEL: 0 DIFFERENT FILL-ORIGIN LEVEL: 0

Revised Interactions: positive negative neutral
PSCL3_interactions 0 0 0 -nan -nan -nan
PSCL2 TOTAL     ACCESS:         59  HIT:         59  MISS:          0  HIT %:        100  MISS %:          0   MPKI: 0
PSCL2 LOAD TRANSLATION ACCESS:         59  HIT:         59  MISS:          0  HIT %:        100  MISS %:          0   MPKI: 0
PSCL2 PREFETCH  REQUESTED:          0  ISSUED:          0  USEFUL:          0  USELESS:          0
PSCL2 USEFUL LOAD PREFETCHES:          0 PREFETCH ISSUED TO LOWER LEVEL:          0  ACCURACY: -nan
PSCL2 TIMELY PREFETCHES:          0 LATE PREFETCHES: 0 DROPPED PREFETCHES: 0
PSCL2 PREFETCHES SAME FILL-ORIGIN LEVEL: 0 DIFFERENT FILL-ORIGIN LEVEL: 0

Revised Interactions: positive negative neutral
PSCL2_interactions 0 0 0 -nan -nan -nan
LLC TOTAL     ACCESS:    1026817  HIT:     807839  MISS:     218978  HIT %:    78.6741  MISS %:    21.3259   MPKI: 4.37956
LLC LOAD      ACCESS:      27080  HIT:      25294  MISS:       1786  HIT %:    93.4047  MISS %:    6.59527   MPKI: 0.03572
LLC RFO       ACCESS:        111  HIT:        107  MISS:          4  HIT %:    96.3964  MISS %:     3.6036   MPKI: 8e-05
LLC PREFETCH  ACCESS:     999182  HIT:     782048  MISS:     217134  HIT %:    78.2688  MISS %:    21.7312   MPKI: 4.34268
LLC WRITEBACK ACCESS:        396  HIT:        360  MISS:         36  HIT %:    90.9091  MISS %:    9.09091   MPKI: 0.00072
LLC LOAD TRANSLATION ACCESS:         48  HIT:         30  MISS:         18  HIT %:       62.5  MISS %:       37.5   MPKI: 0.00036
LLC PREFETCH  REQUESTED:          0  ISSUED:          0  USEFUL:        602  USELESS:     216704
LLC USEFUL LOAD PREFETCHES:        602 PREFETCH ISSUED TO LOWER LEVEL:     217134  ACCURACY: 0.277248
LLC TIMELY PREFETCHES:        602 LATE PREFETCHES: 0 DROPPED PREFETCHES: 0
LLC PREFETCHES SAME FILL-ORIGIN LEVEL: 0 DIFFERENT FILL-ORIGIN LEVEL: 0
LLC AVERAGE MISS LATENCY: 90.0026 cycles
LLC RQ	ACCESS:      27239	FORWARD:          0	MERGED:          0	TO_CACHE:      27239
LLC WQ	ACCESS:        396	FORWARD:          0	MERGED:          0	TO_CACHE:        396
LLC PQ	ACCESS:     999182	FORWARD:          0	MERGED:          0	TO_CACHE:     999182

Revised Interactions: positive negative neutral
LLC_interactions 33 215168 823 0.0152761 99.6037 0.380976
LLC Dense regions hint to LLC: 0

RAW hits: 487
Loads Generated: 14752458
Loads sent to L1D: 14751968
Stores Generated: 656270
Stores sent to L1D: 656273
Major fault: 0 Minor fault: 764
Allocated PAGES: 764

stream: 
stream:times selected: 4171650
stream:pref_filled: 410111
stream:pref_useful: 362128
stream:pref_late: 26228
stream:misses: 77155
stream:misses_by_poll: 0

CS: 
CS:times selected: 2884601
CS:pref_filled: 1045796
CS:pref_useful: 911578
CS:pref_late: 45
CS:misses: 21849
CS:misses_by_poll: 3407

CPLX: 
CPLX:times selected: 1286703
CPLX:pref_filled: 556715
CPLX:pref_useful: 543276
CPLX:pref_late: 67
CPLX:misses: 21710
CPLX:misses_by_poll: 1247

NL_L1: 
NL:times selected: 92
NL:pref_filled: 53
NL:pref_useful: 28
NL:pref_late: 9
NL:misses: 29
NL:misses_by_poll: 0

total selections: 8343046
total_filled: 1008889
total_useful: 912358
total_late: 26352
total_polluted: 4654
total_misses_after_warmup: 50116
conflicts: 490
Degree Incremented Times: 199430
Degree Decremented Times: 0

L1 IP Table Write Accesses: 7275091
L1 IP Table Read Accesses: 7274601
L1 RST Write Accesses: 2047065
L1 RST Read Accesses: 4094130
L1 CSPT Write Accesses: 2047065
L1 CSPT Read Accesses: 3305727
L1 RR Filter Tag Write Accesses: 1784776
L1 RR Filter Tag Read Accesses: 334124198
L1 IP Table Tag Write Accesses: 7483929
L1 IP Table Tag Read Accesses: 7483929
L1 RST Tag Write Accesses: 0
L1 RST Tag Read Accesses: 19086564
L1 RR Filter Write Accesses: 0
L1 RR Filter Read Accesses: 16579777
test: 438378
L2 IP Table Read Accesses: 1880114
L2 IP Table Write Accesses: 1845620
L2 IP Table Tag Read Accesses: 940136
L2 IP Table Tag Write Accesses: 940136

DRAM Statistics
 CHANNEL 0
 RQ ROW_BUFFER_HIT:     196321  ROW_BUFFER_MISS:      22621
 DBUS_CONGESTED:          0
 WQ ROW_BUFFER_HIT:          3  ROW_BUFFER_MISS:        175  FULL:          0

 AVG_CONGESTED_CYCLE: -
 All warmup complete: 2
Channel 0 Bank busy for read cycles: 0
Channel 0 Bank busy for write cycles: 0
Channel 0
Rank 0
0banks busy for read cycles: 66939851
0banks busy for write cycles: 168
1banks busy for read cycles: 3603584
1banks busy for write cycles: 24553
2banks busy for read cycles: 1424124
2banks busy for write cycles: 1046
3banks busy for read cycles: 707047
3banks busy for write cycles: 296
4banks busy for read cycles: 452935
4banks busy for write cycles: 0
5banks busy for read cycles: 247921
5banks busy for write cycles: 0
6banks busy for read cycles: 132681
6banks busy for write cycles: 0
7banks busy for read cycles: 68491
7banks busy for write cycles: 0
8banks busy for read cycles: 38684
8banks busy for write cycles: 0

CPU 0 Branch Prediction Accuracy: 96.5206% MPKI: 9.70308 Average ROB Occupancy at Mispredict: 37.4427
Branch types
NOT_BRANCH: 36055991 72.112%
BRANCH_DIRECT_JUMP: 432 0.000864%
BRANCH_INDIRECT: 0 0%
BRANCH_CONDITIONAL: 13294330 26.5887%
BRANCH_DIRECT_CALL: 162583 0.325166%
BRANCH_INDIRECT_CALL: 161907 0.323814%
BRANCH_RETURN: 324489 0.648978%
BRANCH_OTHER: 0 0%

@sumon_overall_L1D    912358     12891     12891     96546   1008889   3564328   3566938
@Sumon_Early_by_class_L1D    176463    512988    222875         5
@Sumon_Late_by_class_L1D      9980        42        10         5

@Sumon_Early_by_cycle_L1D     24172      4094    156298     10624    143233    499294     53379       573      1658     19030         2         1
@Sumon_Late_by_cycle_L1D      4736      1402      1685      1310       904         0
@Sumon_Early_stream_L1D     22724      3763    124668      1461      3502       126       356       448      1185     18227         2         1
@Sumon_Early_CS_L1D      1341       272     27345      6331    104157    366789      5824        84       325       520         0         0
@Sumon_Early_CPLX_L1D       105        57      4275      2831     35571    132365     47199        41       148       283         0         0
@Sumon_Late_stream_L1D      4730      1387      1666      1302       895         0
@Sumon_Late_CS_L1D         1        15        14         7         5         0
@Sumon_Late_CPLX_L1D         5         0         0         1         4         0
@sumon_overall_L2C      1967        56         0    997228    999126   2160970   2176515
@Sumon_Early_by_class_L2C      1081       824        58         0
@Sumon_Late_by_class_L2C        51         1         0         0

@Sumon_Early_by_cycle_L2C       257        14       407        47       225       441       253         0         0        19         1       303
@Sumon_Late_by_cycle_L2C         2        13        23         8        10         0
@Sumon_Early_stream_L2C       251        13       379        41       205         2         2         0         0        17         1       170
@Sumon_Early_CS_L2C         3         0        28         6        20       439       251         0         0         2         0        75
@Sumon_Early_CPLX_L2C         0         0         0         0         0         0         0         0         0         0         0        58
@Sumon_Late_stream_L2C         0        12        23         8         8         0
@Sumon_Late_CS_L2C         0         1         0         0         0         0
@Sumon_Late_CPLX_L2C         0         0         0         0         0         0
DRAM PAGES: 1048576
Allocated PAGES: 764
