
*** ChampSim Multicore Out-of-Order Simulator ***

Warmup Instructions: 50000000
Simulation Instructions: 50000000
Number of CPUs: 1
LLC sets: 2048
LLC ways: 16
Off-chip DRAM Size: 4096 MB Channels: 1 Width: 64-bit Data Rate: 6400 MT/s
CPU 0 runs ../../biswa/SPEC2017Traces/649.fotonik3d_s-1176B.champsimtrace.xz
.xz
CPU 0 Bimodal branch predictor
BTB has LRU replacement policy
ITLB has LRU replacement policy
DTLB has LRU replacement policy
STLB has LRU replacement policy
L1I has LRU replacement policy
IP Table Entries: 256
L1D has LRU replacement policy
IP_Table L2 entries: 256
Initialize DRRIP state for L2C
Initialize SRRIP state
epoch: 1000
next table: 1040
cur table: 1523
epoch: 1000
next table: 1046
cur table: 1040
epoch: 1000
next table: 1038
cur table: 1046
epoch: 1000
next table: 1072
cur table: 1038
epoch: 1000
next table: 1038
cur table: 1072
epoch: 1000
next table: 1048
cur table: 1038
epoch: 1000
next table: 1081
cur table: 1048
epoch: 1000
next table: 1074
cur table: 1081
epoch: 1000
next table: 1040
cur table: 1074
epoch: 1000
next table: 1044
cur table: 1040
epoch: 1000
next table: 1040
cur table: 1044
epoch: 1000
next table: 1073
cur table: 1040
epoch: 1000
next table: 1040
cur table: 1073
epoch: 1000
next table: 1044
cur table: 1040
epoch: 1000
next table: 1080
cur table: 1044
epoch: 1000
next table: 1073
cur table: 1080
epoch: 1000
next table: 1040
cur table: 1073
epoch: 1000
next table: 1045
cur table: 1040
epoch: 1000
next table: 1040
cur table: 1045
epoch: 1000
next table: 1071
cur table: 1040
epoch: 1000
next table: 1038
cur table: 1071
epoch: 1000
next table: 1048
cur table: 1038
epoch: 1000
next table: 1082
cur table: 1048
epoch: 1000
next table: 1072
cur table: 1082
epoch: 1000
next table: 1019
cur table: 1682
epoch: 1000
next table: 1040
cur table: 1072
epoch: 1000
next table: 1018
cur table: 1019
epoch: 1000
next table: 1044
cur table: 1040
epoch: 1000
next table: 1019
cur table: 1018
epoch: 1000
next table: 1040
cur table: 1044
epoch: 1000
next table: 1020
cur table: 1019
epoch: 1000
next table: 1072
cur table: 1040
epoch: 1000
next table: 1017
cur table: 1020
epoch: 1000
next table: 1039
cur table: 1072
epoch: 1000
next table: 1018
cur table: 1017
epoch: 1000
next table: 1044
cur table: 1039
epoch: 1000
next table: 1017
cur table: 1018
epoch: 1000
next table: 1040
cur table: 1044
epoch: 1000
next table: 1020
cur table: 1017
epoch: 1000
next table: 1113
cur table: 1040
epoch: 1000
next table: 1019
cur table: 1020
epoch: 1000
next table: 1042
cur table: 1113
epoch: 1000
next table: 1019
cur table: 1019
epoch: 1000
next table: 1046
cur table: 1042
epoch: 1000
next table: 1020
cur table: 1019
epoch: 1000
next table: 1042
cur table: 1046
epoch: 1000
next table: 1017
cur table: 1020
epoch: 1000
next table: 1074
cur table: 1042
epoch: 1000
next table: 1018
cur table: 1017
epoch: 1000
next table: 1037
cur table: 1074
epoch: 1000
next table: 1018
cur table: 1018
epoch: 1000
next table: 1046
cur table: 1037
epoch: 1000
next table: 1018
cur table: 1018
epoch: 1000
next table: 1040
cur table: 1046
epoch: 1000
next table: 1018
cur table: 1018
epoch: 1000
next table: 1120
cur table: 1040
epoch: 1000
next table: 1018
cur table: 1018
epoch: 1000
next table: 1038
cur table: 1120
epoch: 1000
next table: 1018
cur table: 1018
epoch: 1000
next table: 1045
cur table: 1038
epoch: 1000
next table: 1018
cur table: 1018
epoch: 1000
next table: 1040
cur table: 1045
epoch: 1000
next table: 1033
cur table: 1018
epoch: 1000
next table: 1077
cur table: 1040
epoch: 1000
next table: 1018
cur table: 1033
epoch: 1000
next table: 1038
cur table: 1077
epoch: 1000
next table: 1017
cur table: 1018
epoch: 1000
next table: 1046
cur table: 1038
epoch: 1000
next table: 1018
cur table: 1017
epoch: 1000
next table: 1038
cur table: 1046
epoch: 1000
next table: 1020
cur table: 1018
epoch: 1000
next table: 1074
cur table: 1038
epoch: 1000
next table: 1016
cur table: 1020
epoch: 1000
next table: 1037
cur table: 1074
epoch: 1000
next table: 1019
cur table: 1016
epoch: 1000
next table: 1049
cur table: 1037
epoch: 1000
next table: 1017
cur table: 1019
epoch: 1000
next table: 1038
cur table: 1049
epoch: 1000
next table: 1019
cur table: 1017
epoch: 1000
next table: 1075
cur table: 1038
epoch: 1000
next table: 1018
cur table: 1019
epoch: 1000
next table: 1038
cur table: 1075
epoch: 1000
next table: 1020
cur table: 1018
epoch: 1000
next table: 1048
cur table: 1038
epoch: 1000
next table: 1018
cur table: 1020
epoch: 1000
next table: 1039
cur table: 1048
epoch: 1000
next table: 1019
cur table: 1018
epoch: 1000
next table: 1074
cur table: 1039
epoch: 1000
next table: 1017
cur table: 1019
epoch: 1000
next table: 1038
cur table: 1074
epoch: 1000
next table: 1018
cur table: 1017
epoch: 1000
next table: 1047
cur table: 1038
epoch: 1000
next table: 1018
cur table: 1018
epoch: 1000
next table: 1039
cur table: 1047
epoch: 1000
next table: 1019
cur table: 1018
epoch: 1000
next table: 1073
cur table: 1039
epoch: 1000
next table: 1018
cur table: 1019
epoch: 1000
next table: 1038
cur table: 1073
epoch: 1000
next table: 1017
cur table: 1018
epoch: 1000
next table: 1046
cur table: 1038
epoch: 1000
next table: 1018
cur table: 1017
epoch: 1000
next table: 1038
cur table: 1046
epoch: 1000
next table: 1017
cur table: 1018
epoch: 1000
next table: 1075
cur table: 1038
epoch: 1000
next table: 1018
cur table: 1017
epoch: 1000
next table: 1038
cur table: 1075
epoch: 1000
next table: 1018
cur table: 1018
epoch: 1000
next table: 1049
cur table: 1038
epoch: 1000
next table: 1018
cur table: 1018
epoch: 1000
next table: 1038
cur table: 1049
epoch: 1000
next table: 1017
cur table: 1018
epoch: 1000
next table: 1072
cur table: 1038
epoch: 1000
next table: 1018
cur table: 1017
epoch: 1000
next table: 1038
cur table: 1072
epoch: 1000
next table: 1017
cur table: 1018
epoch: 1000
next table: 1046
cur table: 1038
epoch: 1000
next table: 1018
cur table: 1017
epoch: 1000
next table: 1037
cur table: 1046
epoch: 1000
next table: 1017
cur table: 1018
epoch: 1000
next table: 1075
cur table: 1037
epoch: 1000
next table: 1019
cur table: 1017
epoch: 1000
next table: 1039
cur table: 1075
epoch: 1000
next table: 1017
cur table: 1019
epoch: 1000
next table: 1047
cur table: 1039
epoch: 1000
next table: 1019
cur table: 1017
epoch: 1000
next table: 1038
cur table: 1047
epoch: 1000
next table: 1017
cur table: 1019
epoch: 1000
next table: 1073
cur table: 1038
epoch: 1000
next table: 1018
cur table: 1017
epoch: 1000
next table: 1040
cur table: 1073
epoch: 1000
next table: 1017
cur table: 1018
epoch: 1000
next table: 1043
cur table: 1040
epoch: 1000
next table: 1018
cur table: 1017
epoch: 1000
next table: 1038
cur table: 1043
epoch: 1000
next table: 1019
cur table: 1018
epoch: 1000
next table: 1075
cur table: 1038
epoch: 1000
next table: 1017
cur table: 1019
epoch: 1000
next table: 1040
cur table: 1075
Heartbeat CPU 0 instructions: 10000000 cycles: 2902850 heartbeat IPC: 3.44489 cumulative IPC: 3.44489 (Simulation time: 0 hr 7 min 24 sec) 
epoch: 1000
next table: 1017
cur table: 1017
epoch: 1000
next table: 1046
cur table: 1040
epoch: 1000
next table: 1018
cur table: 1017
epoch: 1000
next table: 1040
cur table: 1046
epoch: 1000
next table: 1019
cur table: 1018
epoch: 1000
next table: 1072
cur table: 1040
epoch: 1000
next table: 1016
cur table: 1019
epoch: 1000
next table: 1039
cur table: 1072
epoch: 1000
next table: 1018
cur table: 1016
epoch: 1000
next table: 1044
cur table: 1039
epoch: 1000
next table: 1017
cur table: 1018
epoch: 1000
next table: 1040
cur table: 1044
epoch: 1000
next table: 1018
cur table: 1017
epoch: 1000
next table: 1109
cur table: 1040
epoch: 1000
next table: 1017
cur table: 1018
epoch: 1000
next table: 1039
cur table: 1109
epoch: 1000
next table: 1018
cur table: 1017
epoch: 1000
next table: 1045
cur table: 1039
epoch: 1000
next table: 1017
cur table: 1018
epoch: 1000
next table: 1040
cur table: 1045
epoch: 1000
next table: 1072
cur table: 1040
epoch: 1000
next table: 1020
cur table: 1017
epoch: 1000
next table: 1041
cur table: 1072
epoch: 1000
next table: 1019
cur table: 1020
epoch: 1000
next table: 1045
cur table: 1041
epoch: 1000
next table: 1018
cur table: 1019
epoch: 1000
next table: 1040
cur table: 1045
epoch: 1000
next table: 1018
cur table: 1018
epoch: 1000
next table: 1113
cur table: 1040
epoch: 1000
next table: 1017
cur table: 1018
epoch: 1000
next table: 1041
cur table: 1113
epoch: 1000
next table: 1020
cur table: 1017
epoch: 1000
next table: 1047
cur table: 1041
epoch: 1000
next table: 1018
cur table: 1020
epoch: 1000
next table: 1040
cur table: 1047
epoch: 1000
next table: 1018
cur table: 1018
epoch: 1000
next table: 1071
cur table: 1040
epoch: 1000
next table: 1017
cur table: 1018
epoch: 1000
next table: 1040
cur table: 1071
epoch: 1000
next table: 1018
cur table: 1017
epoch: 1000
next table: 1044
cur table: 1040
epoch: 1000
next table: 1017
cur table: 1018
epoch: 1000
next table: 1040
cur table: 1044
epoch: 1000
next table: 1018
cur table: 1017
epoch: 1000
next table: 1075
cur table: 1040
epoch: 1000
next table: 1017
cur table: 1018
epoch: 1000
next table: 1074
cur table: 1075
epoch: 1000
next table: 1018
cur table: 1017
epoch: 1000
next table: 1045
cur table: 1074
epoch: 1000
next table: 1017
cur table: 1018
epoch: 1000
next table: 1039
cur table: 1045
epoch: 1000
next table: 1018
cur table: 1017
epoch: 1000
next table: 1072
cur table: 1039
epoch: 1000
next table: 1017
cur table: 1018
epoch: 1000
next table: 1040
cur table: 1072
epoch: 1000
next table: 1018
cur table: 1017
epoch: 1000
next table: 1044
cur table: 1040
epoch: 1000
next table: 1017
cur table: 1018
epoch: 1000
next table: 1040
cur table: 1044
epoch: 1000
next table: 1018
cur table: 1017
epoch: 1000
next table: 1073
cur table: 1040
epoch: 1000
next table: 1020
cur table: 1018
epoch: 1000
next table: 1082
cur table: 1073
epoch: 1000
next table: 1017
cur table: 1020
epoch: 1000
next table: 1047
cur table: 1082
epoch: 1000
next table: 1020
cur table: 1017
epoch: 1000
next table: 1041
cur table: 1047
epoch: 1000
next table: 1018
cur table: 1020
epoch: 1000
next table: 1073
cur table: 1041
epoch: 1000
next table: 1019
cur table: 1018
epoch: 1000
next table: 1039
cur table: 1073
epoch: 1000
next table: 1017
cur table: 1019
epoch: 1000
next table: 1044
cur table: 1039
epoch: 1000
next table: 1018
cur table: 1017
epoch: 1000
next table: 1040
cur table: 1044
epoch: 1000
next table: 1016
cur table: 1018
epoch: 1000
next table: 1072
cur table: 1040
epoch: 1000
next table: 1019
cur table: 1016
epoch: 1000
next table: 1080
cur table: 1072
epoch: 1000
next table: 1016
cur table: 1019
epoch: 1000
next table: 1045
cur table: 1080
epoch: 1000
next table: 1018
cur table: 1016
epoch: 1000
next table: 1040
cur table: 1045
epoch: 1000
next table: 1017
cur table: 1018
epoch: 1000
next table: 1071
cur table: 1040
epoch: 1000
next table: 1019
cur table: 1017
epoch: 1000
next table: 1040
cur table: 1071
epoch: 1000
next table: 1018
cur table: 1019
epoch: 1000
next table: 1044
cur table: 1040
epoch: 1000
next table: 1017
cur table: 1018
epoch: 1000
next table: 1040
cur table: 1044
epoch: 1000
next table: 1018
cur table: 1017
epoch: 1000
next table: 1073
cur table: 1040
epoch: 1000
next table: 1016
cur table: 1018
epoch: 1000
next table: 1086
cur table: 1073
epoch: 1000
next table: 1018
cur table: 1016
epoch: 1000
next table: 1086
cur table: 1086
epoch: 1000
next table: 1019
cur table: 1018
epoch: 1000
next table: 1040
cur table: 1086
epoch: 1000
next table: 1018
cur table: 1019
epoch: 1000
next table: 1070
cur table: 1040
epoch: 1000
next table: 1016
cur table: 1018
epoch: 1000
next table: 1040
cur table: 1070
epoch: 1000
next table: 1018
cur table: 1016
epoch: 1000
next table: 1044
cur table: 1040
epoch: 1000
next table: 1017
cur table: 1018
epoch: 1000
next table: 1040
cur table: 1044
epoch: 1000
next table: 1018
cur table: 1017
epoch: 1000
next table: 1073
cur table: 1040
epoch: 1000
next table: 1018
cur table: 1018
epoch: 1000
next table: 1080
cur table: 1073
epoch: 1000
next table: 1018
cur table: 1018
epoch: 1000
next table: 1080
cur table: 1080
epoch: 1000
next table: 1017
cur table: 1018
epoch: 1000
next table: 1045
cur table: 1080
epoch: 1000
next table: 1018
cur table: 1017
epoch: 1000
next table: 1070
cur table: 1045
epoch: 1000
next table: 1017
cur table: 1018
epoch: 1000
next table: 1041
cur table: 1070
epoch: 1000
next table: 1020
cur table: 1017
epoch: 1000
next table: 1045
cur table: 1041
epoch: 1000
next table: 1018
cur table: 1020
epoch: 1000
next table: 1039
cur table: 1045
epoch: 1000
next table: 1017
cur table: 1018
epoch: 1000
next table: 1075
cur table: 1039
epoch: 1000
next table: 1019
cur table: 1017
epoch: 1000
next table: 1038
cur table: 1075
epoch: 1000
next table: 1017
cur table: 1019
epoch: 1000
next table: 1088
cur table: 1038
epoch: 1000
next table: 1018
cur table: 1017
epoch: 1000
next table: 1082
cur table: 1088
epoch: 1000
next table: 1018
cur table: 1018
epoch: 1000
next table: 1073
cur table: 1082
epoch: 1000
next table: 1020
cur table: 1018
epoch: 1000
next table: 1040
cur table: 1073
epoch: 1000
next table: 1017
cur table: 1020
epoch: 1000
next table: 1043
cur table: 1040
epoch: 1000
next table: 1018
cur table: 1017
epoch: 1000
next table: 1040
cur table: 1043
epoch: 1000
next table: 1017
cur table: 1018
epoch: 1000
next table: 1072
cur table: 1040
epoch: 1000
next table: 1018
cur table: 1017
epoch: 1000
next table: 1039
cur table: 1072
epoch: 1000
next table: 1017
cur table: 1018
epoch: 1000
next table: 1086
cur table: 1039
epoch: 1000
next table: 1018
cur table: 1017
epoch: 1000
next table: 1082
cur table: 1086
epoch: 1000
next table: 1018
cur table: 1018
epoch: 1000
next table: 1071
cur table: 1082
epoch: 1000
next table: 1020
cur table: 1018
epoch: 1000
next table: 1040
cur table: 1071
epoch: 1000
next table: 1016
cur table: 1020
epoch: 1000
next table: 1044
cur table: 1040
epoch: 1000
next table: 1018
cur table: 1016
epoch: 1000
next table: 1040
cur table: 1044
epoch: 1000
next table: 1017
cur table: 1018
epoch: 1000
next table: 1072
cur table: 1040
epoch: 1000
next table: 1019
cur table: 1017
epoch: 1000
next table: 1041
cur table: 1072
epoch: 1000
next table: 1019
cur table: 1019
epoch: 1000
next table: 1093
cur table: 1041
epoch: 1000
next table: 1020
cur table: 1019
epoch: 1000
next table: 1082
cur table: 1093
epoch: 1000
next table: 1019
cur table: 1020
epoch: 1000
next table: 1073
cur table: 1082
epoch: 1000
next table: 1019
cur table: 1019
epoch: 1000
next table: 1041
cur table: 1073
epoch: 1000
next table: 1019
cur table: 1019
epoch: 1000
next table: 1044
cur table: 1041
epoch: 1000
next table: 1017
cur table: 1019
epoch: 1000
next table: 1040
cur table: 1044
epoch: 1000
next table: 1018
cur table: 1017
epoch: 1000
next table: 1071
cur table: 1040
epoch: 1000
next table: 1017
cur table: 1018
epoch: 1000
next table: 1040
cur table: 1071
Heartbeat CPU 0 instructions: 20000002 cycles: 5805626 heartbeat IPC: 3.44498 cumulative IPC: 3.44493 (Simulation time: 0 hr 13 min 37 sec) 
epoch: 1000
next table: 1019
cur table: 1017
epoch: 1000
next table: 1085
cur table: 1040
epoch: 1000
next table: 1018
cur table: 1019
epoch: 1000
next table: 1080
cur table: 1085
epoch: 1000
next table: 1018
cur table: 1018
epoch: 1000
next table: 1072
cur table: 1080
epoch: 1000
next table: 1016
cur table: 1018
epoch: 1000
next table: 1040
cur table: 1072
epoch: 1000
next table: 1018
cur table: 1016
epoch: 1000
next table: 1046
cur table: 1040
epoch: 1000
next table: 1019
cur table: 1018
epoch: 1000
next table: 1040
cur table: 1046
epoch: 1000
next table: 1019
cur table: 1019
epoch: 1000
next table: 1072
cur table: 1040
epoch: 1000
next table: 1017
cur table: 1019
epoch: 1000
next table: 1040
cur table: 1072
epoch: 1000
next table: 1018
cur table: 1017
epoch: 1000
next table: 1044
cur table: 1040
epoch: 1000
next table: 1017
cur table: 1018
epoch: 1000
next table: 1040
cur table: 1044
epoch: 1000
next table: 1018
cur table: 1017
epoch: 1000
next table: 1120
cur table: 1040
epoch: 1000
next table: 1017
cur table: 1018
epoch: 1000
next table: 1042
cur table: 1120
epoch: 1000
next table: 1020
cur table: 1017
epoch: 1000
next table: 1044
cur table: 1042
epoch: 1000
next table: 1018
cur table: 1020
epoch: 1000
next table: 1041
cur table: 1044
epoch: 1000
next table: 1019
cur table: 1018
epoch: 1000
next table: 1073
cur table: 1041
epoch: 1000
next table: 1019
cur table: 1019
epoch: 1000
next table: 1039
cur table: 1073
epoch: 1000
next table: 1017
cur table: 1019
epoch: 1000
next table: 1045
cur table: 1039
epoch: 1000
next table: 1017
cur table: 1017
epoch: 1000
next table: 1040
cur table: 1045
epoch: 1000
next table: 1018
cur table: 1017
epoch: 1000
next table: 1110
cur table: 1040
epoch: 1000
next table: 1020
cur table: 1018
epoch: 1000
next table: 1040
cur table: 1110
epoch: 1000
next table: 1017
cur table: 1020
epoch: 1000
next table: 1046
cur table: 1040
epoch: 1000
next table: 1019
cur table: 1017
epoch: 1000
next table: 1040
cur table: 1046
epoch: 1000
next table: 1016
cur table: 1019
epoch: 1000
next table: 1073
cur table: 1040
epoch: 1000
next table: 1019
cur table: 1016
epoch: 1000
next table: 1040
cur table: 1073
epoch: 1000
next table: 1016
cur table: 1019
epoch: 1000
next table: 1044
cur table: 1040
epoch: 1000
next table: 1018
cur table: 1016
epoch: 1000
next table: 1040
cur table: 1044
epoch: 1000
next table: 1017
cur table: 1018
epoch: 1000
next table: 1112
cur table: 1040
epoch: 1000
next table: 1018
cur table: 1017
epoch: 1000
next table: 1040
cur table: 1112
epoch: 1000
next table: 1017
cur table: 1018
epoch: 1000
next table: 1044
cur table: 1040
epoch: 1000
next table: 1018
cur table: 1017
epoch: 1000
next table: 1041
cur table: 1044
epoch: 1000
next table: 1018
cur table: 1018
epoch: 1000
next table: 1072
cur table: 1041
epoch: 1000
next table: 1018
cur table: 1018
epoch: 1000
next table: 1040
cur table: 1072
epoch: 1000
next table: 1018
cur table: 1018
epoch: 1000
next table: 1045
cur table: 1040
epoch: 1000
next table: 1019
cur table: 1018
epoch: 1000
next table: 1041
cur table: 1045
epoch: 1000
next table: 1018
cur table: 1019
epoch: 1000
next table: 1076
cur table: 1041
epoch: 1000
next table: 1019
cur table: 1018
epoch: 1000
next table: 1073
cur table: 1076
epoch: 1000
next table: 1018
cur table: 1019
epoch: 1000
next table: 1040
cur table: 1073
epoch: 1000
next table: 1018
cur table: 1018
epoch: 1000
next table: 1045
cur table: 1040
epoch: 1000
next table: 1018
cur table: 1018
epoch: 1000
next table: 1040
cur table: 1045
epoch: 1000
next table: 1020
cur table: 1018
epoch: 1000
next table: 1073
cur table: 1040
epoch: 1000
next table: 1018
cur table: 1020
epoch: 1000
next table: 1039
cur table: 1073
epoch: 1000
next table: 1018
cur table: 1018
epoch: 1000
next table: 1045
cur table: 1039
epoch: 1000
next table: 1018
cur table: 1018
epoch: 1000
next table: 1079
cur table: 1045
epoch: 1000
next table: 1025
cur table: 1018
epoch: 1000
next table: 1075
cur table: 1079
epoch: 1000
next table: 1018
cur table: 1025
epoch: 1000
next table: 1038
cur table: 1075
epoch: 1000
next table: 1017
cur table: 1018
epoch: 1000
next table: 1046
cur table: 1038
epoch: 1000
next table: 1018
cur table: 1017
epoch: 1000
next table: 1038
cur table: 1046
epoch: 1000
next table: 1017
cur table: 1018
epoch: 1000
next table: 1073
cur table: 1038
epoch: 1000
next table: 1018
cur table: 1017
epoch: 1000
next table: 1038
cur table: 1073
epoch: 1000
next table: 1017
cur table: 1018
epoch: 1000
next table: 1047
cur table: 1038
epoch: 1000
next table: 1019
cur table: 1017
epoch: 1000
next table: 1038
cur table: 1047
epoch: 1000
next table: 1019
cur table: 1019
epoch: 1000
next table: 1074
cur table: 1038
epoch: 1000
next table: 1019
cur table: 1019
epoch: 1000
next table: 1039
cur table: 1074
epoch: 1000
next table: 1020
cur table: 1019
epoch: 1000
next table: 1049
cur table: 1039
epoch: 1000
next table: 1018
cur table: 1020
epoch: 1000
next table: 1038
cur table: 1049
epoch: 1000
next table: 1018
cur table: 1018
epoch: 1000
next table: 1074
cur table: 1038
epoch: 1000
next table: 1018
cur table: 1018
epoch: 1000
next table: 1039
cur table: 1074
epoch: 1000
next table: 1017
cur table: 1018
epoch: 1000
next table: 1046
cur table: 1039
epoch: 1000
next table: 1018
cur table: 1017
epoch: 1000
next table: 1037
cur table: 1046
epoch: 1000
next table: 1018
cur table: 1018
epoch: 1000
next table: 1074
cur table: 1037
epoch: 1000
next table: 1019
cur table: 1018
epoch: 1000
next table: 1038
cur table: 1074
epoch: 1000
next table: 1017
cur table: 1019
epoch: 1000
next table: 1045
cur table: 1038
epoch: 1000
next table: 1018
cur table: 1017
epoch: 1000
next table: 1038
cur table: 1045
epoch: 1000
next table: 1019
cur table: 1018
epoch: 1000
next table: 1074
cur table: 1038
epoch: 1000
next table: 1017
cur table: 1019
epoch: 1000
next table: 1038
cur table: 1074
epoch: 1000
next table: 1018
cur table: 1017
epoch: 1000
next table: 1046
cur table: 1038
epoch: 1000
next table: 1017
cur table: 1018
epoch: 1000
next table: 1038
cur table: 1046
epoch: 1000
next table: 1032
cur table: 1017
epoch: 1000
next table: 1077
cur table: 1038
epoch: 1000
next table: 1018
cur table: 1032
epoch: 1000
next table: 1040
cur table: 1077
epoch: 1000
next table: 1018
cur table: 1018
epoch: 1000
next table: 1046
cur table: 1040
epoch: 1000
next table: 1017
cur table: 1018
epoch: 1000
next table: 1038
cur table: 1046
epoch: 1000
next table: 1019
cur table: 1017
epoch: 1000
next table: 1074
cur table: 1038
epoch: 1000
next table: 1019
cur table: 1019
epoch: 1000
next table: 1038
cur table: 1074
epoch: 1000
next table: 1017
cur table: 1019
epoch: 1000
next table: 1048
cur table: 1038
epoch: 1000
next table: 1019
cur table: 1017
epoch: 1000
next table: 1039
cur table: 1048
epoch: 1000
next table: 1021
cur table: 1019
epoch: 1000
next table: 1074
cur table: 1039
epoch: 1000
next table: 1018
cur table: 1021
epoch: 1000
next table: 1038
cur table: 1074
epoch: 1000
next table: 1017
cur table: 1018
epoch: 1000
next table: 1045
cur table: 1038
epoch: 1000
next table: 1018
cur table: 1017
epoch: 1000
next table: 1038
cur table: 1045
epoch: 1000
next table: 1017
cur table: 1018
epoch: 1000
next table: 1074
cur table: 1038
epoch: 1000
next table: 1019
cur table: 1017
epoch: 1000
next table: 1037
cur table: 1074
epoch: 1000
next table: 1017
cur table: 1019
epoch: 1000
next table: 1047
cur table: 1037
epoch: 1000
next table: 1018
cur table: 1017
epoch: 1000
next table: 1038
cur table: 1047
epoch: 1000
next table: 1017
cur table: 1018
epoch: 1000
next table: 1073
cur table: 1038
epoch: 1000
next table: 1019
cur table: 1017
epoch: 1000
next table: 1037
cur table: 1073
epoch: 1000
next table: 1018
cur table: 1019
epoch: 1000
next table: 1048
cur table: 1037
epoch: 1000
next table: 1018
cur table: 1018
epoch: 1000
next table: 1038
cur table: 1048
epoch: 1000
next table: 1016
cur table: 1018
epoch: 1000
next table: 1074
cur table: 1038
Heartbeat CPU 0 instructions: 30000001 cycles: 8708386 heartbeat IPC: 3.445 cumulative IPC: 3.44496 (Simulation time: 0 hr 19 min 19 sec) 
epoch: 1000
next table: 1020
cur table: 1016
epoch: 1000
next table: 1038
cur table: 1074
epoch: 1000
next table: 1018
cur table: 1020
epoch: 1000
next table: 1045
cur table: 1038
epoch: 1000
next table: 1016
cur table: 1018
epoch: 1000
next table: 1040
cur table: 1045
epoch: 1000
next table: 1018
cur table: 1016
epoch: 1000
next table: 1101
cur table: 1040
epoch: 1000
next table: 1017
cur table: 1018
epoch: 1000
next table: 1040
cur table: 1101
epoch: 1000
next table: 1018
cur table: 1017
epoch: 1000
next table: 1044
cur table: 1040
epoch: 1000
next table: 1017
cur table: 1018
epoch: 1000
next table: 1040
cur table: 1044
epoch: 1000
next table: 1018
cur table: 1017
epoch: 1000
next table: 1073
cur table: 1040
epoch: 1000
next table: 1019
cur table: 1018
epoch: 1000
next table: 1040
cur table: 1073
epoch: 1000
next table: 1018
cur table: 1019
epoch: 1000
next table: 1045
cur table: 1040
epoch: 1000
next table: 1017
cur table: 1018
epoch: 1000
next table: 1039
cur table: 1045
epoch: 1000
next table: 1018
cur table: 1017
epoch: 1000
next table: 1119
cur table: 1039
epoch: 1000
next table: 1019
cur table: 1018
epoch: 1000
next table: 1041
cur table: 1119
epoch: 1000
next table: 1020
cur table: 1019
epoch: 1000
next table: 1047
cur table: 1041
epoch: 1000
next table: 1019
cur table: 1020
epoch: 1000
next table: 1040
cur table: 1047
epoch: 1000
next table: 1018
cur table: 1019
epoch: 1000
next table: 1073
cur table: 1040
epoch: 1000
next table: 1017
cur table: 1018
epoch: 1000
next table: 1039
cur table: 1073
epoch: 1000
next table: 1018
cur table: 1017
epoch: 1000
next table: 1045
cur table: 1039
epoch: 1000
next table: 1017
cur table: 1018
epoch: 1000
next table: 1040
cur table: 1045
epoch: 1000
next table: 1018
cur table: 1017
epoch: 1000
next table: 1110
cur table: 1040
epoch: 1000
next table: 1018
cur table: 1018
epoch: 1000
next table: 1039
cur table: 1110
epoch: 1000
next table: 1018
cur table: 1018
epoch: 1000
next table: 1044
cur table: 1039
epoch: 1000
next table: 1017
cur table: 1018
epoch: 1000
next table: 1040
cur table: 1044
epoch: 1000
next table: 1018
cur table: 1017
epoch: 1000
next table: 1071
cur table: 1040
epoch: 1000
next table: 1018
cur table: 1018
epoch: 1000
next table: 1040
cur table: 1071
epoch: 1000
next table: 1017
cur table: 1018
epoch: 1000
next table: 1045
cur table: 1040
epoch: 1000
next table: 1018
cur table: 1017
epoch: 1000
next table: 1040
cur table: 1045
epoch: 1000
next table: 1018
cur table: 1018
epoch: 1000
next table: 1071
cur table: 1040
epoch: 1000
next table: 1018
cur table: 1018
epoch: 1000
next table: 1085
cur table: 1071
epoch: 1000
next table: 1018
cur table: 1018
epoch: 1000
next table: 1046
cur table: 1085
epoch: 1000
next table: 1018
cur table: 1018
epoch: 1000
next table: 1040
cur table: 1046
epoch: 1000
next table: 1017
cur table: 1018
epoch: 1000
next table: 1071
cur table: 1040
epoch: 1000
next table: 1019
cur table: 1017
epoch: 1000
next table: 1042
cur table: 1071
epoch: 1000
next table: 1018
cur table: 1019
epoch: 1000
next table: 1047
cur table: 1042
epoch: 1000
next table: 1020
cur table: 1018
epoch: 1000
next table: 1041
cur table: 1047
epoch: 1000
next table: 1019
cur table: 1020
epoch: 1000
next table: 1073
cur table: 1041
epoch: 1000
next table: 1020
cur table: 1019
epoch: 1000
next table: 1079
cur table: 1073
epoch: 1000
next table: 1019
cur table: 1020
epoch: 1000
next table: 1045
cur table: 1079
epoch: 1000
next table: 1016
cur table: 1019
epoch: 1000
next table: 1038
cur table: 1045
epoch: 1000
next table: 1017
cur table: 1016
epoch: 1000
next table: 1075
cur table: 1038
epoch: 1000
next table: 1019
cur table: 1017
epoch: 1000
next table: 1038
cur table: 1075
epoch: 1000
next table: 1018
cur table: 1019
epoch: 1000
next table: 1048
cur table: 1038
epoch: 1000
next table: 1018
cur table: 1018
epoch: 1000
next table: 1039
cur table: 1048
epoch: 1000
next table: 1018
cur table: 1018
epoch: 1000
next table: 1075
cur table: 1039
epoch: 1000
next table: 1017
cur table: 1018
epoch: 1000
next table: 1082
cur table: 1075
epoch: 1000
next table: 1018
cur table: 1017
epoch: 1000
next table: 1081
cur table: 1082
epoch: 1000
next table: 1017
cur table: 1018
epoch: 1000
next table: 1039
cur table: 1081
epoch: 1000
next table: 1019
cur table: 1017
epoch: 1000
next table: 1074
cur table: 1039
epoch: 1000
next table: 1016
cur table: 1019
epoch: 1000
next table: 1039
cur table: 1074
epoch: 1000
next table: 1018
cur table: 1016
epoch: 1000
next table: 1045
cur table: 1039
epoch: 1000
next table: 1017
cur table: 1018
epoch: 1000
next table: 1038
cur table: 1045
epoch: 1000
next table: 1018
cur table: 1017
epoch: 1000
next table: 1073
cur table: 1038
epoch: 1000
next table: 1020
cur table: 1018
epoch: 1000
next table: 1086
cur table: 1073
epoch: 1000
next table: 1019
cur table: 1020
epoch: 1000
next table: 1084
cur table: 1086
epoch: 1000
next table: 1018
cur table: 1019
epoch: 1000
next table: 1040
cur table: 1084
epoch: 1000
next table: 1019
cur table: 1018
epoch: 1000
next table: 1074
cur table: 1040
epoch: 1000
next table: 1019
cur table: 1019
epoch: 1000
next table: 1038
cur table: 1074
epoch: 1000
next table: 1018
cur table: 1019
epoch: 1000
next table: 1049
cur table: 1038
epoch: 1000
next table: 1018
cur table: 1018
epoch: 1000
next table: 1038
cur table: 1049
epoch: 1000
next table: 1018
cur table: 1018
epoch: 1000
next table: 1072
cur table: 1038
epoch: 1000
next table: 1018
cur table: 1018
epoch: 1000
next table: 1075
cur table: 1072
epoch: 1000
next table: 1017
cur table: 1018
epoch: 1000
next table: 1061
cur table: 1075
epoch: 1000
next table: 1017
cur table: 1017
epoch: 1000
next table: 1071
cur table: 1061
epoch: 1000
next table: 1018
cur table: 1017
epoch: 1000
next table: 1075
cur table: 1071
epoch: 1000
next table: 1018
cur table: 1018
epoch: 1000
next table: 1038
cur table: 1075
epoch: 1000
next table: 1017
cur table: 1018
epoch: 1000
next table: 1046
cur table: 1038
epoch: 1000
next table: 1018
cur table: 1017
epoch: 1000
next table: 1037
cur table: 1046
epoch: 1000
next table: 1017
cur table: 1018
epoch: 1000
next table: 1073
cur table: 1037
epoch: 1000
next table: 1019
cur table: 1017
epoch: 1000
next table: 1038
cur table: 1073
epoch: 1000
next table: 1017
cur table: 1019
epoch: 1000
next table: 1087
cur table: 1038
epoch: 1000
next table: 1020
cur table: 1017
epoch: 1000
next table: 1081
cur table: 1087
epoch: 1000
next table: 1016
cur table: 1020
epoch: 1000
next table: 1075
cur table: 1081
epoch: 1000
next table: 1021
cur table: 1016
epoch: 1000
next table: 1038
cur table: 1075
epoch: 1000
next table: 1016
cur table: 1021
epoch: 1000
next table: 1048
cur table: 1038
epoch: 1000
next table: 1020
cur table: 1016
epoch: 1000
next table: 1039
cur table: 1048
epoch: 1000
next table: 1018
cur table: 1020
epoch: 1000
next table: 1076
cur table: 1039
epoch: 1000
next table: 1020
cur table: 1018
epoch: 1000
next table: 1038
cur table: 1076
epoch: 1000
next table: 1018
cur table: 1020
epoch: 1000
next table: 1086
cur table: 1038
epoch: 1000
next table: 1017
cur table: 1018
epoch: 1000
next table: 1081
cur table: 1086
epoch: 1000
next table: 1017
cur table: 1017
epoch: 1000
next table: 1074
cur table: 1081
epoch: 1000
next table: 1020
cur table: 1017
epoch: 1000
next table: 1038
cur table: 1074
epoch: 1000
next table: 1018
cur table: 1020
epoch: 1000
next table: 1047
cur table: 1038
epoch: 1000
next table: 1017
cur table: 1018
epoch: 1000
next table: 1038
cur table: 1047
epoch: 1000
next table: 1018
cur table: 1017
epoch: 1000
next table: 1072
cur table: 1038
epoch: 1000
next table: 1020
cur table: 1018
epoch: 1000
next table: 1038
cur table: 1072
epoch: 1000
next table: 1018
cur table: 1020
epoch: 1000
next table: 1090
cur table: 1038
epoch: 1000
next table: 1017
cur table: 1018
epoch: 1000
next table: 1078
cur table: 1090
epoch: 1000
next table: 1018
cur table: 1017
epoch: 1000
next table: 1073
cur table: 1078
Heartbeat CPU 0 instructions: 40000003 cycles: 11611178 heartbeat IPC: 3.44496 cumulative IPC: 3.44496 (Simulation time: 0 hr 24 min 16 sec) 
epoch: 1000
next table: 1018
cur table: 1018
epoch: 1000
next table: 1038
cur table: 1073
epoch: 1000
next table: 1018
cur table: 1018
epoch: 1000
next table: 1049
cur table: 1038
epoch: 1000
next table: 1019
cur table: 1018
epoch: 1000
next table: 1038
cur table: 1049
epoch: 1000
next table: 1018
cur table: 1019
epoch: 1000
next table: 1072
cur table: 1038
epoch: 1000
next table: 1019
cur table: 1018
epoch: 1000
next table: 1040
cur table: 1072
epoch: 1000
next table: 1019
cur table: 1019
epoch: 1000
next table: 1047
cur table: 1040
epoch: 1000
next table: 1019
cur table: 1019
epoch: 1000
next table: 1079
cur table: 1047
epoch: 1000
next table: 1018
cur table: 1019
epoch: 1000
next table: 1074
cur table: 1079
epoch: 1000
next table: 1019
cur table: 1018
epoch: 1000
next table: 1038
cur table: 1074
epoch: 1000
next table: 1018
cur table: 1019
epoch: 1000
next table: 1046
cur table: 1038
epoch: 1000
next table: 1017
cur table: 1018
epoch: 1000
next table: 1037
cur table: 1046
epoch: 1000
next table: 1018
cur table: 1017
epoch: 1000
next table: 1074
cur table: 1037
epoch: 1000
next table: 1018
cur table: 1018
epoch: 1000
next table: 1038
cur table: 1074
epoch: 1000
next table: 1018
cur table: 1018
epoch: 1000
next table: 1045
cur table: 1038
epoch: 1000
next table: 1017
cur table: 1018
epoch: 1000
next table: 1038
cur table: 1045
epoch: 1000
next table: 1018
cur table: 1017
epoch: 1000
next table: 1114
cur table: 1038
epoch: 1000
next table: 1021
cur table: 1018
epoch: 1000
next table: 1040
cur table: 1114
epoch: 1000
next table: 1017
cur table: 1021
epoch: 1000
next table: 1046
cur table: 1040
epoch: 1000
next table: 1019
cur table: 1017
epoch: 1000
next table: 1038
cur table: 1046
epoch: 1000
next table: 1016
cur table: 1019
epoch: 1000
next table: 1076
cur table: 1038
epoch: 1000
next table: 1019
cur table: 1016
epoch: 1000
next table: 1039
cur table: 1076
epoch: 1000
next table: 1016
cur table: 1019
epoch: 1000
next table: 1044
cur table: 1039
epoch: 1000
next table: 1018
cur table: 1016
epoch: 1000
next table: 1038
cur table: 1044
epoch: 1000
next table: 1017
cur table: 1018
epoch: 1000
next table: 1113
cur table: 1038
epoch: 1000
next table: 1018
cur table: 1017
epoch: 1000
next table: 1040
cur table: 1113
epoch: 1000
next table: 1018
cur table: 1018
epoch: 1000
next table: 1046
cur table: 1040
epoch: 1000
next table: 1019
cur table: 1018
epoch: 1000
next table: 1041
cur table: 1046
epoch: 1000
next table: 1018
cur table: 1019
epoch: 1000
next table: 1073
cur table: 1041
epoch: 1000
next table: 1020
cur table: 1018
epoch: 1000
next table: 1038
cur table: 1073
epoch: 1000
next table: 1017
cur table: 1020
epoch: 1000
next table: 1046
cur table: 1038
epoch: 1000
next table: 1018
cur table: 1017
epoch: 1000
next table: 1038
cur table: 1046
epoch: 1000
next table: 1017
cur table: 1018
epoch: 1000
next table: 1114
cur table: 1038
epoch: 1000
next table: 1018
cur table: 1017
epoch: 1000
next table: 1038
cur table: 1114
epoch: 1000
next table: 1018
cur table: 1018
epoch: 1000
next table: 1049
cur table: 1038
epoch: 1000
next table: 1018
cur table: 1018
epoch: 1000
next table: 1037
cur table: 1049
epoch: 1000
next table: 1017
cur table: 1018
epoch: 1000
next table: 1073
cur table: 1037
epoch: 1000
next table: 1018
cur table: 1017
epoch: 1000
next table: 1038
cur table: 1073
epoch: 1000
next table: 1018
cur table: 1018
epoch: 1000
next table: 1046
cur table: 1038
epoch: 1000
next table: 1017
cur table: 1018
epoch: 1000
next table: 1037
cur table: 1046
epoch: 1000
next table: 1018
cur table: 1017
epoch: 1000
next table: 1116
cur table: 1037
epoch: 1000
next table: 1017
cur table: 1018
epoch: 1000
next table: 1038
cur table: 1116
epoch: 1000
next table: 1018
cur table: 1017
epoch: 1000
next table: 1046
cur table: 1038
epoch: 1000
next table: 1017
cur table: 1018
epoch: 1000
next table: 1038
cur table: 1046
epoch: 1000
next table: 1018
cur table: 1017
epoch: 1000
next table: 1073
cur table: 1038
epoch: 1000
next table: 1016
cur table: 1018
epoch: 1000
next table: 1038
cur table: 1073
epoch: 1000
next table: 1018
cur table: 1016
epoch: 1000
next table: 1045
cur table: 1038
epoch: 1000
next table: 1017
cur table: 1018
epoch: 1000
next table: 1038
cur table: 1045
epoch: 1000
next table: 1018
cur table: 1017
epoch: 1000
next table: 1076
cur table: 1038
epoch: 1000
next table: 1018
cur table: 1018
epoch: 1000
next table: 1040
cur table: 1076
epoch: 1000
next table: 1018
cur table: 1018
epoch: 1000
next table: 1046
cur table: 1040
epoch: 1000
next table: 1018
cur table: 1018
epoch: 1000
next table: 1038
cur table: 1046
epoch: 1000
next table: 1018
cur table: 1018
epoch: 1000
next table: 1075
cur table: 1038
epoch: 1000
next table: 1019
cur table: 1018
epoch: 1000
next table: 1041
cur table: 1075
epoch: 1000
next table: 1020
cur table: 1019
epoch: 1000
next table: 1045
cur table: 1041
epoch: 1000
next table: 1016
cur table: 1020
epoch: 1000
next table: 1039
cur table: 1045
epoch: 1000
next table: 1019
cur table: 1016
epoch: 1000
next table: 1074
cur table: 1039
epoch: 1000
next table: 1019
cur table: 1019
epoch: 1000
next table: 1040
cur table: 1074
epoch: 1000
next table: 1017
cur table: 1019
epoch: 1000
next table: 1045
cur table: 1040
epoch: 1000
next table: 1017
cur table: 1017
epoch: 1000
next table: 1038
cur table: 1045
epoch: 1000
next table: 1018
cur table: 1017
epoch: 1000
next table: 1074
cur table: 1038
epoch: 1000
next table: 1021
cur table: 1018
epoch: 1000
next table: 1040
cur table: 1074
epoch: 1000
next table: 1017
cur table: 1021
epoch: 1000
next table: 1044
cur table: 1040
epoch: 1000
next table: 1018
cur table: 1017
epoch: 1000
next table: 1040
cur table: 1044
epoch: 1000
next table: 1017
cur table: 1018
epoch: 1000
next table: 1071
cur table: 1040
epoch: 1000
next table: 1020
cur table: 1017
epoch: 1000
next table: 1041
cur table: 1071
epoch: 1000
next table: 1017
cur table: 1020
epoch: 1000
next table: 1047
cur table: 1041
epoch: 1000
next table: 1019
cur table: 1017
epoch: 1000
next table: 1038
cur table: 1047
epoch: 1000
next table: 1017
cur table: 1019
epoch: 1000
next table: 1072
cur table: 1038
epoch: 1000
next table: 1019
cur table: 1017
epoch: 1000
next table: 1040
cur table: 1072
epoch: 1000
next table: 1017
cur table: 1019
epoch: 1000
next table: 1038
cur table: 1040
epoch: 1000
next table: 1018
cur table: 1017
epoch: 1000
next table: 1043
cur table: 1038
epoch: 1000
next table: 1018
cur table: 1018
epoch: 1000
next table: 1040
cur table: 1043
epoch: 1000
next table: 1020
cur table: 1018
epoch: 1000
next table: 1075
cur table: 1040
epoch: 1000
next table: 1019
cur table: 1020
epoch: 1000
next table: 1040
cur table: 1075
epoch: 1000
next table: 1019
cur table: 1019
epoch: 1000
next table: 1048
cur table: 1040
epoch: 1000
next table: 1019
cur table: 1019
epoch: 1000
next table: 1039
cur table: 1048
epoch: 1000
next table: 1019
cur table: 1019
epoch: 1000
next table: 1074
cur table: 1039
epoch: 1000
next table: 1019
cur table: 1019
epoch: 1000
next table: 1038
cur table: 1074
epoch: 1000
next table: 1017
cur table: 1019
epoch: 1000
next table: 1046
cur table: 1038
epoch: 1000
next table: 1018
cur table: 1017
epoch: 1000
next table: 1038
cur table: 1046
epoch: 1000
next table: 1019
cur table: 1018
epoch: 1000
next table: 1074
cur table: 1038
epoch: 1000
next table: 1019
cur table: 1019
epoch: 1000
next table: 1037
cur table: 1074
epoch: 1000
next table: 1018
cur table: 1019
epoch: 1000
next table: 1048
cur table: 1037
epoch: 1000
next table: 1018
cur table: 1018
epoch: 1000
next table: 1038
cur table: 1048
epoch: 1000
next table: 1031
cur table: 1018
epoch: 1000
next table: 1077
cur table: 1038
epoch: 1000
next table: 1018
cur table: 1031
epoch: 1000
next table: 1038
cur table: 1077
epoch: 1000
next table: 1016
cur table: 1018
epoch: 1000
next table: 1046
cur table: 1038
epoch: 1000
next table: 1018
cur table: 1016
epoch: 1000
next table: 1038
cur table: 1046
Heartbeat CPU 0 instructions: 50000001 cycles: 14513935 heartbeat IPC: 3.445 cumulative IPC: 3.44497 (Simulation time: 0 hr 28 min 41 sec) 

Warmup complete CPU 0 instructions: 50000001 cycles: 14513935 (Simulation time: 0 hr 28 min 41 sec) 

epoch: 1000
next table: 1018
cur table: 1018
epoch: 1000
next table: 1046
cur table: 1041
epoch: 1000
next table: 1020
cur table: 1018
epoch: 1000
next table: 1042
cur table: 1046
epoch: 1000
next table: 1073
cur table: 1042
epoch: 1000
next table: 1020
cur table: 1020
epoch: 1000
next table: 1041
cur table: 1073
epoch: 1000
next table: 1019
cur table: 1020
epoch: 1000
next table: 1046
cur table: 1041
epoch: 1000
next table: 1017
cur table: 1019
epoch: 1000
next table: 1040
cur table: 1046
epoch: 1000
next table: 1018
cur table: 1017
epoch: 1000
next table: 1074
cur table: 1040
epoch: 1000
next table: 1020
cur table: 1018
epoch: 1000
next table: 1083
cur table: 1074
epoch: 1000
next table: 1020
cur table: 1020
epoch: 1000
next table: 1046
cur table: 1083
epoch: 1000
next table: 1018
cur table: 1020
epoch: 1000
next table: 1041
cur table: 1046
epoch: 1000
next table: 1019
cur table: 1018
epoch: 1000
next table: 1072
cur table: 1041
epoch: 1000
next table: 1019
cur table: 1019
epoch: 1000
next table: 1042
cur table: 1072
epoch: 1000
next table: 1020
cur table: 1019
epoch: 1000
next table: 1039
cur table: 1042
epoch: 1000
next table: 1018
cur table: 1020
epoch: 1000
next table: 1045
cur table: 1039
epoch: 1000
next table: 1020
cur table: 1018
epoch: 1000
next table: 1041
cur table: 1045
epoch: 1000
next table: 1018
cur table: 1020
epoch: 1000
next table: 1120
cur table: 1041
epoch: 1000
next table: 1019
cur table: 1018
epoch: 1000
next table: 1039
cur table: 1120
epoch: 1000
next table: 1019
cur table: 1019
epoch: 1000
next table: 1047
cur table: 1039
epoch: 1000
next table: 1020
cur table: 1019
epoch: 1000
next table: 1040
cur table: 1047
epoch: 1000
next table: 1017
cur table: 1020
epoch: 1000
next table: 1076
cur table: 1040
epoch: 1000
next table: 1019
cur table: 1017
epoch: 1000
next table: 1039
cur table: 1076
epoch: 1000
next table: 1020
cur table: 1019
epoch: 1000
next table: 1048
cur table: 1039
epoch: 1000
next table: 1020
cur table: 1020
epoch: 1000
next table: 1041
cur table: 1048
epoch: 1000
next table: 1019
cur table: 1020
epoch: 1000
next table: 1113
cur table: 1041
epoch: 1000
next table: 1017
cur table: 1019
epoch: 1000
next table: 1042
cur table: 1113
epoch: 1000
next table: 1020
cur table: 1017
epoch: 1000
next table: 1047
cur table: 1042
epoch: 1000
next table: 1019
cur table: 1020
epoch: 1000
next table: 1042
cur table: 1047
epoch: 1000
next table: 1020
cur table: 1019
epoch: 1000
next table: 1072
cur table: 1042
epoch: 1000
next table: 1018
cur table: 1020
epoch: 1000
next table: 1041
cur table: 1072
epoch: 1000
next table: 1019
cur table: 1018
epoch: 1000
next table: 1045
cur table: 1041
epoch: 1000
next table: 1018
cur table: 1019
epoch: 1000
next table: 1042
cur table: 1045
epoch: 1000
next table: 1020
cur table: 1018
epoch: 1000
next table: 1114
cur table: 1042
epoch: 1000
next table: 1019
cur table: 1020
epoch: 1000
next table: 1040
cur table: 1114
epoch: 1000
next table: 1018
cur table: 1019
epoch: 1000
next table: 1045
cur table: 1040
epoch: 1000
next table: 1017
cur table: 1018
epoch: 1000
next table: 1041
cur table: 1045
epoch: 1000
next table: 1020
cur table: 1017
epoch: 1000
next table: 1074
cur table: 1041
epoch: 1000
next table: 1021
cur table: 1020
epoch: 1000
next table: 1042
cur table: 1074
epoch: 1000
next table: 1018
cur table: 1021
epoch: 1000
next table: 1047
cur table: 1042
epoch: 1000
next table: 1018
cur table: 1018
epoch: 1000
next table: 1039
cur table: 1047
epoch: 1000
next table: 1018
cur table: 1018
epoch: 1000
next table: 1077
cur table: 1039
epoch: 1000
next table: 1023
cur table: 1018
epoch: 1000
next table: 1079
cur table: 1077
epoch: 1000
next table: 1017
cur table: 1023
epoch: 1000
next table: 1083
cur table: 1079
epoch: 1000
next table: 1020
cur table: 1017
epoch: 1000
next table: 1041
cur table: 1083
epoch: 1000
next table: 1018
cur table: 1020
epoch: 1000
next table: 1072
cur table: 1041
epoch: 1000
next table: 1017
cur table: 1018
epoch: 1000
next table: 1042
cur table: 1072
epoch: 1000
next table: 1019
cur table: 1017
epoch: 1000
next table: 1045
cur table: 1042
epoch: 1000
next table: 1020
cur table: 1019
epoch: 1000
next table: 1041
cur table: 1045
epoch: 1000
next table: 1018
cur table: 1020
epoch: 1000
next table: 1076
cur table: 1041
epoch: 1000
next table: 1019
cur table: 1018
epoch: 1000
next table: 1078
cur table: 1076
epoch: 1000
next table: 1019
cur table: 1019
epoch: 1000
next table: 1088
cur table: 1078
epoch: 1000
next table: 1021
cur table: 1019
epoch: 1000
next table: 1042
cur table: 1088
epoch: 1000
next table: 1019
cur table: 1021
epoch: 1000
next table: 1077
cur table: 1042
epoch: 1000
next table: 1019
cur table: 1019
epoch: 1000
next table: 1038
cur table: 1077
epoch: 1000
next table: 1019
cur table: 1019
epoch: 1000
next table: 1047
cur table: 1038
epoch: 1000
next table: 1019
cur table: 1019
epoch: 1000
next table: 1042
cur table: 1047
epoch: 1000
next table: 1020
cur table: 1019
epoch: 1000
next table: 1075
cur table: 1042
epoch: 1000
next table: 1019
cur table: 1020
epoch: 1000
next table: 1079
cur table: 1075
epoch: 1000
next table: 1020
cur table: 1019
epoch: 1000
next table: 1088
cur table: 1079
epoch: 1000
next table: 1017
cur table: 1020
epoch: 1000
next table: 1042
cur table: 1088
epoch: 1000
next table: 1020
cur table: 1017
epoch: 1000
next table: 1076
cur table: 1042
epoch: 1000
next table: 1019
cur table: 1020
epoch: 1000
next table: 1039
cur table: 1076
epoch: 1000
next table: 1019
cur table: 1019
epoch: 1000
next table: 1047
cur table: 1039
epoch: 1000
next table: 1018
cur table: 1019
epoch: 1000
next table: 1039
cur table: 1047
epoch: 1000
next table: 1019
cur table: 1018
epoch: 1000
next table: 1076
cur table: 1039
epoch: 1000
next table: 1019
cur table: 1019
epoch: 1000
next table: 1083
cur table: 1076
epoch: 1000
next table: 1020
cur table: 1019
epoch: 1000
next table: 1091
cur table: 1083
epoch: 1000
next table: 1020
cur table: 1020
epoch: 1000
next table: 1038
cur table: 1091
epoch: 1000
next table: 1018
cur table: 1020
epoch: 1000
next table: 1076
cur table: 1038
epoch: 1000
next table: 1019
cur table: 1018
epoch: 1000
next table: 1039
cur table: 1076
epoch: 1000
next table: 1020
cur table: 1019
epoch: 1000
next table: 1050
cur table: 1039
epoch: 1000
next table: 1020
cur table: 1020
epoch: 1000
next table: 1039
cur table: 1050
epoch: 1000
next table: 1019
cur table: 1020
epoch: 1000
next table: 1075
cur table: 1039
epoch: 1000
next table: 1018
cur table: 1019
epoch: 1000
next table: 1074
cur table: 1075
epoch: 1000
next table: 1020
cur table: 1018
epoch: 1000
next table: 1062
cur table: 1074
epoch: 1000
next table: 1017
cur table: 1020
epoch: 1000
next table: 1078
cur table: 1062
epoch: 1000
next table: 1020
cur table: 1017
epoch: 1000
next table: 1075
cur table: 1078
epoch: 1000
next table: 1020
cur table: 1020
epoch: 1000
next table: 1038
cur table: 1075
epoch: 1000
next table: 1016
cur table: 1020
epoch: 1000
next table: 1046
cur table: 1038
epoch: 1000
next table: 1019
cur table: 1016
epoch: 1000
next table: 1040
cur table: 1046
epoch: 1000
next table: 1019
cur table: 1019
epoch: 1000
next table: 1078
cur table: 1040
epoch: 1000
next table: 1020
cur table: 1019
epoch: 1000
next table: 1038
cur table: 1078
epoch: 1000
next table: 1018
cur table: 1020
epoch: 1000
next table: 1089
cur table: 1038
epoch: 1000
next table: 1020
cur table: 1018
epoch: 1000
next table: 1081
cur table: 1089
epoch: 1000
next table: 1019
cur table: 1020
epoch: 1000
next table: 1076
cur table: 1081
epoch: 1000
next table: 1019
cur table: 1019
epoch: 1000
next table: 1038
cur table: 1076
epoch: 1000
next table: 1018
cur table: 1019
epoch: 1000
next table: 1049
cur table: 1038
epoch: 1000
next table: 1021
cur table: 1018
Heartbeat CPU 0 instructions: 60000003 cycles: 24492633 heartbeat IPC: 1.00213 cumulative IPC: 1.00213 (Simulation time: 0 hr 31 min 46 sec) 
epoch: 1000
next table: 1039
cur table: 1049
epoch: 1000
next table: 1018
cur table: 1021
epoch: 1000
next table: 1075
cur table: 1039
epoch: 1000
next table: 1019
cur table: 1018
epoch: 1000
next table: 1040
cur table: 1075
epoch: 1000
next table: 1019
cur table: 1019
epoch: 1000
next table: 1047
cur table: 1040
epoch: 1000
next table: 1020
cur table: 1019
epoch: 1000
next table: 1086
cur table: 1047
epoch: 1000
next table: 1017
cur table: 1020
epoch: 1000
next table: 1074
cur table: 1086
epoch: 1000
next table: 1020
cur table: 1017
epoch: 1000
next table: 1040
cur table: 1074
epoch: 1000
next table: 1020
cur table: 1020
epoch: 1000
next table: 1048
cur table: 1040
epoch: 1000
next table: 1019
cur table: 1020
epoch: 1000
next table: 1039
cur table: 1048
epoch: 1000
next table: 1018
cur table: 1019
epoch: 1000
next table: 1073
cur table: 1039
epoch: 1000
next table: 1019
cur table: 1018
epoch: 1000
next table: 1040
cur table: 1073
epoch: 1000
next table: 1020
cur table: 1019
epoch: 1000
next table: 1049
cur table: 1040
epoch: 1000
next table: 1019
cur table: 1020
epoch: 1000
next table: 1083
cur table: 1049
epoch: 1000
next table: 1020
cur table: 1019
epoch: 1000
next table: 1077
cur table: 1083
epoch: 1000
next table: 1021
cur table: 1020
epoch: 1000
next table: 1038
cur table: 1077
epoch: 1000
next table: 1019
cur table: 1021
epoch: 1000
next table: 1047
cur table: 1038
epoch: 1000
next table: 1019
cur table: 1019
epoch: 1000
next table: 1041
cur table: 1047
epoch: 1000
next table: 1020
cur table: 1019
epoch: 1000
next table: 1077
cur table: 1041
epoch: 1000
next table: 1023
cur table: 1020
epoch: 1000
next table: 1039
cur table: 1077
epoch: 1000
next table: 1018
cur table: 1023
epoch: 1000
next table: 1044
cur table: 1039
epoch: 1000
next table: 1017
cur table: 1018
epoch: 1000
next table: 1082
cur table: 1044
epoch: 1000
next table: 1020
cur table: 1017
epoch: 1000
next table: 1076
cur table: 1082
epoch: 1000
next table: 1020
cur table: 1020
epoch: 1000
next table: 1040
cur table: 1076
epoch: 1000
next table: 1019
cur table: 1020
epoch: 1000
next table: 1046
cur table: 1040
epoch: 1000
next table: 1017
cur table: 1019
epoch: 1000
next table: 1039
cur table: 1046
epoch: 1000
next table: 1019
cur table: 1017
epoch: 1000
next table: 1076
cur table: 1039
epoch: 1000
next table: 1023
cur table: 1019
epoch: 1000
next table: 1039
cur table: 1076
epoch: 1000
next table: 1019
cur table: 1023
epoch: 1000
next table: 1047
cur table: 1039
epoch: 1000
next table: 1019
cur table: 1019
epoch: 1000
next table: 1038
cur table: 1047
epoch: 1000
next table: 1018
cur table: 1019
epoch: 1000
next table: 1116
cur table: 1038
epoch: 1000
next table: 1020
cur table: 1018
epoch: 1000
next table: 1042
cur table: 1116
epoch: 1000
next table: 1019
cur table: 1020
epoch: 1000
next table: 1047
cur table: 1042
epoch: 1000
next table: 1021
cur table: 1019
epoch: 1000
next table: 1039
cur table: 1047
epoch: 1000
next table: 1018
cur table: 1021
epoch: 1000
next table: 1073
cur table: 1039
epoch: 1000
next table: 1019
cur table: 1018
epoch: 1000
next table: 1040
cur table: 1073
epoch: 1000
next table: 1019
cur table: 1019
epoch: 1000
next table: 1049
cur table: 1040
epoch: 1000
next table: 1020
cur table: 1019
epoch: 1000
next table: 1040
cur table: 1049
epoch: 1000
next table: 1019
cur table: 1020
epoch: 1000
next table: 1115
cur table: 1040
epoch: 1000
next table: 1020
cur table: 1019
epoch: 1000
next table: 1039
cur table: 1115
epoch: 1000
next table: 1018
cur table: 1020
epoch: 1000
next table: 1048
cur table: 1039
epoch: 1000
next table: 1020
cur table: 1018
epoch: 1000
next table: 1040
cur table: 1048
epoch: 1000
next table: 1019
cur table: 1020
epoch: 1000
next table: 1074
cur table: 1040
epoch: 1000
next table: 1019
cur table: 1019
epoch: 1000
next table: 1040
cur table: 1074
epoch: 1000
next table: 1018
cur table: 1019
epoch: 1000
next table: 1047
cur table: 1040
epoch: 1000
next table: 1020
cur table: 1018
epoch: 1000
next table: 1042
cur table: 1047
epoch: 1000
next table: 1020
cur table: 1020
epoch: 1000
next table: 1073
cur table: 1042
epoch: 1000
next table: 1019
cur table: 1020
epoch: 1000
next table: 1041
cur table: 1073
epoch: 1000
next table: 1019
cur table: 1019
epoch: 1000
next table: 1045
cur table: 1041
epoch: 1000
next table: 1018
cur table: 1019
epoch: 1000
next table: 1040
cur table: 1045
epoch: 1000
next table: 1019
cur table: 1018
epoch: 1000
next table: 1074
cur table: 1040
epoch: 1000
next table: 1022
cur table: 1019
epoch: 1000
next table: 1042
cur table: 1074
epoch: 1000
next table: 1020
cur table: 1022
epoch: 1000
next table: 1047
cur table: 1042
epoch: 1000
next table: 1019
cur table: 1020
epoch: 1000
next table: 1041
cur table: 1047
epoch: 1000
next table: 1019
cur table: 1019
epoch: 1000
next table: 1072
cur table: 1041
epoch: 1000
next table: 1019
cur table: 1019
epoch: 1000
next table: 1042
cur table: 1072
epoch: 1000
next table: 1020
cur table: 1019
epoch: 1000
next table: 1046
cur table: 1042
epoch: 1000
next table: 1019
cur table: 1020
epoch: 1000
next table: 1041
cur table: 1046
epoch: 1000
next table: 1019
cur table: 1019
epoch: 1000
next table: 1073
cur table: 1041
epoch: 1000
next table: 1018
cur table: 1019
epoch: 1000
next table: 1041
cur table: 1073
epoch: 1000
next table: 1020
cur table: 1018
epoch: 1000
next table: 1048
cur table: 1041
epoch: 1000
next table: 1018
cur table: 1020
epoch: 1000
next table: 1042
cur table: 1048
epoch: 1000
next table: 1020
cur table: 1018
epoch: 1000
next table: 1074
cur table: 1042
epoch: 1000
next table: 1020
cur table: 1020
epoch: 1000
next table: 1041
cur table: 1074
epoch: 1000
next table: 1018
cur table: 1020
epoch: 1000
next table: 1045
cur table: 1041
epoch: 1000
next table: 1019
cur table: 1018
epoch: 1000
next table: 1042
cur table: 1045
epoch: 1000
next table: 1020
cur table: 1019
epoch: 1000
next table: 1076
cur table: 1042
epoch: 1000
next table: 1020
cur table: 1020
epoch: 1000
next table: 1039
cur table: 1076
epoch: 1000
next table: 1017
cur table: 1020
epoch: 1000
next table: 1046
cur table: 1039
epoch: 1000
next table: 1019
cur table: 1017
epoch: 1000
next table: 1042
cur table: 1046
epoch: 1000
next table: 1019
cur table: 1019
epoch: 1000
next table: 1074
cur table: 1042
epoch: 1000
next table: 1020
cur table: 1019
epoch: 1000
next table: 1040
cur table: 1074
epoch: 1000
next table: 1018
cur table: 1020
epoch: 1000
next table: 1044
cur table: 1040
epoch: 1000
next table: 1018
cur table: 1018
epoch: 1000
next table: 1041
cur table: 1044
epoch: 1000
next table: 1018
cur table: 1018
epoch: 1000
next table: 1077
cur table: 1041
epoch: 1000
next table: 1024
cur table: 1018
epoch: 1000
next table: 1042
cur table: 1077
epoch: 1000
next table: 1019
cur table: 1024
epoch: 1000
next table: 1048
cur table: 1042
epoch: 1000
next table: 1020
cur table: 1019
epoch: 1000
next table: 1040
cur table: 1048
epoch: 1000
next table: 1017
cur table: 1020
epoch: 1000
next table: 1074
cur table: 1040
epoch: 1000
next table: 1021
cur table: 1017
epoch: 1000
next table: 1042
cur table: 1074
epoch: 1000
next table: 1019
cur table: 1021
epoch: 1000
next table: 1045
cur table: 1042
epoch: 1000
next table: 1020
cur table: 1019
epoch: 1000
next table: 1040
cur table: 1045
epoch: 1000
next table: 1018
cur table: 1020
epoch: 1000
next table: 1075
cur table: 1040
epoch: 1000
next table: 1019
cur table: 1018
epoch: 1000
next table: 1041
cur table: 1075
epoch: 1000
next table: 1019
cur table: 1019
epoch: 1000
next table: 1047
cur table: 1041
epoch: 1000
next table: 1020
cur table: 1019
epoch: 1000
next table: 1041
cur table: 1047
epoch: 1000
next table: 1019
cur table: 1020
epoch: 1000
next table: 1091
cur table: 1041
epoch: 1000
next table: 1017
cur table: 1019
epoch: 1000
next table: 1040
cur table: 1091
epoch: 1000
next table: 1019
cur table: 1017
epoch: 1000
next table: 1045
cur table: 1040
epoch: 1000
next table: 1018
cur table: 1019
Heartbeat CPU 0 instructions: 70000000 cycles: 34471535 heartbeat IPC: 1.00211 cumulative IPC: 1.00212 (Simulation time: 0 hr 37 min 9 sec) 
epoch: 1000
next table: 1041
cur table: 1045
epoch: 1000
next table: 1020
cur table: 1018
epoch: 1000
next table: 1074
cur table: 1041
epoch: 1000
next table: 1019
cur table: 1020
epoch: 1000
next table: 1041
cur table: 1074
epoch: 1000
next table: 1019
cur table: 1019
epoch: 1000
next table: 1047
cur table: 1041
epoch: 1000
next table: 1019
cur table: 1019
epoch: 1000
next table: 1042
cur table: 1047
epoch: 1000
next table: 1019
cur table: 1019
epoch: 1000
next table: 1116
cur table: 1042
epoch: 1000
next table: 1021
cur table: 1019
epoch: 1000
next table: 1041
cur table: 1116
epoch: 1000
next table: 1018
cur table: 1021
epoch: 1000
next table: 1043
cur table: 1041
epoch: 1000
next table: 1016
cur table: 1018
epoch: 1000
next table: 1041
cur table: 1043
epoch: 1000
next table: 1019
cur table: 1016
epoch: 1000
next table: 1075
cur table: 1041
epoch: 1000
next table: 1019
cur table: 1019
epoch: 1000
next table: 1041
cur table: 1075
epoch: 1000
next table: 1020
cur table: 1019
epoch: 1000
next table: 1046
cur table: 1041
epoch: 1000
next table: 1018
cur table: 1020
epoch: 1000
next table: 1040
cur table: 1046
epoch: 1000
next table: 1018
cur table: 1018
epoch: 1000
next table: 1075
cur table: 1040
epoch: 1000
next table: 1032
cur table: 1018
epoch: 1000
next table: 1089
cur table: 1075
epoch: 1000
next table: 1021
cur table: 1032
epoch: 1000
next table: 1046
cur table: 1089
epoch: 1000
next table: 1020
cur table: 1021
epoch: 1000
next table: 1041
cur table: 1046
epoch: 1000
next table: 1018
cur table: 1020
epoch: 1000
next table: 1076
cur table: 1041
epoch: 1000
next table: 1020
cur table: 1018
epoch: 1000
next table: 1042
cur table: 1076
epoch: 1000
next table: 1020
cur table: 1020
epoch: 1000
next table: 1048
cur table: 1042
epoch: 1000
next table: 1020
cur table: 1020
epoch: 1000
next table: 1041
cur table: 1048
epoch: 1000
next table: 1019
cur table: 1020
epoch: 1000
next table: 1072
cur table: 1041
epoch: 1000
next table: 1018
cur table: 1019
epoch: 1000
next table: 1080
cur table: 1072
epoch: 1000
next table: 1019
cur table: 1018
epoch: 1000
next table: 1045
cur table: 1080
epoch: 1000
next table: 1019
cur table: 1019
epoch: 1000
next table: 1042
cur table: 1045
epoch: 1000
next table: 1020
cur table: 1019
epoch: 1000
next table: 1075
cur table: 1042
epoch: 1000
next table: 1019
cur table: 1020
epoch: 1000
next table: 1041
cur table: 1075
epoch: 1000
next table: 1018
cur table: 1019
epoch: 1000
next table: 1045
cur table: 1041
epoch: 1000
next table: 1018
cur table: 1018
epoch: 1000
next table: 1041
cur table: 1045
epoch: 1000
next table: 1020
cur table: 1018
epoch: 1000
next table: 1075
cur table: 1041
epoch: 1000
next table: 1020
cur table: 1020
epoch: 1000
next table: 1087
cur table: 1075
epoch: 1000
next table: 1019
cur table: 1020
epoch: 1000
next table: 1046
cur table: 1087
epoch: 1000
next table: 1017
cur table: 1019
epoch: 1000
next table: 1038
cur table: 1046
epoch: 1000
next table: 1019
cur table: 1017
epoch: 1000
next table: 1075
cur table: 1038
epoch: 1000
next table: 1020
cur table: 1019
epoch: 1000
next table: 1042
cur table: 1075
epoch: 1000
next table: 1020
cur table: 1020
epoch: 1000
next table: 1048
cur table: 1042
epoch: 1000
next table: 1019
cur table: 1020
epoch: 1000
next table: 1041
cur table: 1048
epoch: 1000
next table: 1019
cur table: 1019
epoch: 1000
next table: 1074
cur table: 1041
epoch: 1000
next table: 1019
cur table: 1019
epoch: 1000
next table: 1086
cur table: 1074
epoch: 1000
next table: 1020
cur table: 1019
epoch: 1000
next table: 1071
cur table: 1086
epoch: 1000
next table: 1016
cur table: 1020
epoch: 1000
next table: 1041
cur table: 1071
epoch: 1000
next table: 1019
cur table: 1016
epoch: 1000
next table: 1073
cur table: 1041
epoch: 1000
next table: 1016
cur table: 1019
epoch: 1000
next table: 1042
cur table: 1073
epoch: 1000
next table: 1020
cur table: 1016
epoch: 1000
next table: 1047
cur table: 1042
epoch: 1000
next table: 1019
cur table: 1020
epoch: 1000
next table: 1041
cur table: 1047
epoch: 1000
next table: 1020
cur table: 1019
epoch: 1000
next table: 1072
cur table: 1041
epoch: 1000
next table: 1017
cur table: 1020
epoch: 1000
next table: 1042
cur table: 1072
epoch: 1000
next table: 1019
cur table: 1017
epoch: 1000
next table: 1090
cur table: 1042
epoch: 1000
next table: 1020
cur table: 1019
epoch: 1000
next table: 1082
cur table: 1090
epoch: 1000
next table: 1019
cur table: 1020
epoch: 1000
next table: 1075
cur table: 1082
epoch: 1000
next table: 1021
cur table: 1019
epoch: 1000
next table: 1040
cur table: 1075
epoch: 1000
next table: 1017
cur table: 1021
epoch: 1000
next table: 1047
cur table: 1040
epoch: 1000
next table: 1019
cur table: 1017
epoch: 1000
next table: 1041
cur table: 1047
epoch: 1000
next table: 1020
cur table: 1019
epoch: 1000
next table: 1074
cur table: 1041
epoch: 1000
next table: 1021
cur table: 1020
epoch: 1000
next table: 1041
cur table: 1074
epoch: 1000
next table: 1018
cur table: 1021
epoch: 1000
next table: 1086
cur table: 1041
epoch: 1000
next table: 1018
cur table: 1018
epoch: 1000
next table: 1086
cur table: 1086
epoch: 1000
next table: 1018
cur table: 1018
epoch: 1000
next table: 1075
cur table: 1086
epoch: 1000
next table: 1021
cur table: 1018
epoch: 1000
next table: 1041
cur table: 1075
epoch: 1000
next table: 1019
cur table: 1021
epoch: 1000
next table: 1046
cur table: 1041
epoch: 1000
next table: 1019
cur table: 1019
epoch: 1000
next table: 1041
cur table: 1046
epoch: 1000
next table: 1017
cur table: 1019
epoch: 1000
next table: 1073
cur table: 1041
epoch: 1000
next table: 1022
cur table: 1017
epoch: 1000
next table: 1042
cur table: 1073
epoch: 1000
next table: 1019
cur table: 1022
epoch: 1000
next table: 1097
cur table: 1042
epoch: 1000
next table: 1020
cur table: 1019
epoch: 1000
next table: 1082
cur table: 1097
epoch: 1000
next table: 1019
cur table: 1020
epoch: 1000
next table: 1073
cur table: 1082
epoch: 1000
next table: 1020
cur table: 1019
epoch: 1000
next table: 1041
cur table: 1073
epoch: 1000
next table: 1020
cur table: 1020
epoch: 1000
next table: 1049
cur table: 1041
epoch: 1000
next table: 1020
cur table: 1020
epoch: 1000
next table: 1042
cur table: 1049
epoch: 1000
next table: 1018
cur table: 1020
epoch: 1000
next table: 1073
cur table: 1042
epoch: 1000
next table: 1019
cur table: 1018
epoch: 1000
next table: 1041
cur table: 1073
epoch: 1000
next table: 1020
cur table: 1019
epoch: 1000
next table: 1087
cur table: 1041
epoch: 1000
next table: 1019
cur table: 1020
epoch: 1000
next table: 1083
cur table: 1087
epoch: 1000
next table: 1022
cur table: 1019
epoch: 1000
next table: 1066
cur table: 1083
epoch: 1000
next table: 1018
cur table: 1022
epoch: 1000
next table: 1047
cur table: 1066
epoch: 1000
next table: 1019
cur table: 1018
epoch: 1000
next table: 1040
cur table: 1047
epoch: 1000
next table: 1017
cur table: 1019
epoch: 1000
next table: 1048
cur table: 1040
epoch: 1000
next table: 1020
cur table: 1017
epoch: 1000
next table: 1040
cur table: 1048
epoch: 1000
next table: 1019
cur table: 1020
epoch: 1000
next table: 1077
cur table: 1040
epoch: 1000
next table: 1019
cur table: 1019
epoch: 1000
next table: 1086
cur table: 1077
epoch: 1000
next table: 1019
cur table: 1019
epoch: 1000
next table: 1080
cur table: 1086
epoch: 1000
next table: 1019
cur table: 1019
epoch: 1000
next table: 1046
cur table: 1080
epoch: 1000
next table: 1018
cur table: 1019
epoch: 1000
next table: 1076
cur table: 1046
epoch: 1000
next table: 1020
cur table: 1018
epoch: 1000
next table: 1039
cur table: 1076
epoch: 1000
next table: 1017
cur table: 1020
epoch: 1000
next table: 1045
cur table: 1039
epoch: 1000
next table: 1018
cur table: 1017
epoch: 1000
next table: 1039
cur table: 1045
epoch: 1000
next table: 1017
cur table: 1018
epoch: 1000
next table: 1074
cur table: 1039
epoch: 1000
next table: 1020
cur table: 1017
epoch: 1000
next table: 1040
cur table: 1074
epoch: 1000
next table: 1019
cur table: 1020
epoch: 1000
next table: 1048
cur table: 1040
Heartbeat CPU 0 instructions: 80000001 cycles: 44451669 heartbeat IPC: 1.00199 cumulative IPC: 1.00208 (Simulation time: 0 hr 42 min 59 sec) 
epoch: 1000
next table: 1019
cur table: 1019
epoch: 1000
next table: 1079
cur table: 1048
epoch: 1000
next table: 1018
cur table: 1019
epoch: 1000
next table: 1073
cur table: 1079
epoch: 1000
next table: 1019
cur table: 1018
epoch: 1000
next table: 1042
cur table: 1073
epoch: 1000
next table: 1019
cur table: 1019
epoch: 1000
next table: 1047
cur table: 1042
epoch: 1000
next table: 1020
cur table: 1019
epoch: 1000
next table: 1039
cur table: 1047
epoch: 1000
next table: 1019
cur table: 1020
epoch: 1000
next table: 1075
cur table: 1039
epoch: 1000
next table: 1018
cur table: 1019
epoch: 1000
next table: 1040
cur table: 1075
epoch: 1000
next table: 1021
cur table: 1018
epoch: 1000
next table: 1050
cur table: 1040
epoch: 1000
next table: 1019
cur table: 1021
epoch: 1000
next table: 1086
cur table: 1050
epoch: 1000
next table: 1021
cur table: 1019
epoch: 1000
next table: 1076
cur table: 1086
epoch: 1000
next table: 1017
cur table: 1021
epoch: 1000
next table: 1039
cur table: 1076
epoch: 1000
next table: 1019
cur table: 1017
epoch: 1000
next table: 1048
cur table: 1039
epoch: 1000
next table: 1019
cur table: 1019
epoch: 1000
next table: 1040
cur table: 1048
epoch: 1000
next table: 1022
cur table: 1019
epoch: 1000
next table: 1076
cur table: 1040
epoch: 1000
next table: 1018
cur table: 1022
epoch: 1000
next table: 1041
cur table: 1076
epoch: 1000
next table: 1019
cur table: 1018
epoch: 1000
next table: 1045
cur table: 1041
epoch: 1000
next table: 1019
cur table: 1019
epoch: 1000
next table: 1082
cur table: 1045
epoch: 1000
next table: 1020
cur table: 1019
epoch: 1000
next table: 1076
cur table: 1082
epoch: 1000
next table: 1018
cur table: 1020
epoch: 1000
next table: 1040
cur table: 1076
epoch: 1000
next table: 1018
cur table: 1018
epoch: 1000
next table: 1044
cur table: 1040
epoch: 1000
next table: 1016
cur table: 1018
epoch: 1000
next table: 1040
cur table: 1044
epoch: 1000
next table: 1024
cur table: 1016
epoch: 1000
next table: 1076
cur table: 1040
epoch: 1000
next table: 1020
cur table: 1024
epoch: 1000
next table: 1039
cur table: 1076
epoch: 1000
next table: 1017
cur table: 1020
epoch: 1000
next table: 1048
cur table: 1039
epoch: 1000
next table: 1018
cur table: 1017
epoch: 1000
next table: 1084
cur table: 1048
epoch: 1000
next table: 1019
cur table: 1018
epoch: 1000
next table: 1078
cur table: 1084
epoch: 1000
next table: 1020
cur table: 1019
epoch: 1000
next table: 1038
cur table: 1078
epoch: 1000
next table: 1019
cur table: 1020
epoch: 1000
next table: 1049
cur table: 1038
epoch: 1000
next table: 1020
cur table: 1019
epoch: 1000
next table: 1039
cur table: 1049
epoch: 1000
next table: 1017
cur table: 1020
epoch: 1000
next table: 1073
cur table: 1039
epoch: 1000
next table: 1019
cur table: 1017
epoch: 1000
next table: 1040
cur table: 1073
epoch: 1000
next table: 1019
cur table: 1019
epoch: 1000
next table: 1048
cur table: 1040
epoch: 1000
next table: 1020
cur table: 1019
epoch: 1000
next table: 1040
cur table: 1048
epoch: 1000
next table: 1018
cur table: 1020
epoch: 1000
next table: 1116
cur table: 1040
epoch: 1000
next table: 1018
cur table: 1018
epoch: 1000
next table: 1041
cur table: 1116
epoch: 1000
next table: 1019
cur table: 1018
epoch: 1000
next table: 1048
cur table: 1041
epoch: 1000
next table: 1020
cur table: 1019
epoch: 1000
next table: 1042
cur table: 1048
epoch: 1000
next table: 1020
cur table: 1020
epoch: 1000
next table: 1073
cur table: 1042
epoch: 1000
next table: 1019
cur table: 1020
epoch: 1000
next table: 1040
cur table: 1073
epoch: 1000
next table: 1020
cur table: 1019
epoch: 1000
next table: 1047
cur table: 1040
epoch: 1000
next table: 1019
cur table: 1020
epoch: 1000
next table: 1040
cur table: 1047
epoch: 1000
next table: 1018
cur table: 1019
epoch: 1000
next table: 1075
cur table: 1040
epoch: 1000
next table: 1020
cur table: 1018
epoch: 1000
next table: 1041
cur table: 1075
epoch: 1000
next table: 1018
cur table: 1020
epoch: 1000
next table: 1046
cur table: 1041
epoch: 1000
next table: 1019
cur table: 1018
epoch: 1000
next table: 1039
cur table: 1046
epoch: 1000
next table: 1020
cur table: 1019
epoch: 1000
next table: 1078
cur table: 1039
epoch: 1000
next table: 1019
cur table: 1020
epoch: 1000
next table: 1041
cur table: 1078
epoch: 1000
next table: 1019
cur table: 1019
epoch: 1000
next table: 1045
cur table: 1041
epoch: 1000
next table: 1019
cur table: 1019
epoch: 1000
next table: 1039
cur table: 1045
epoch: 1000
next table: 1020
cur table: 1019
epoch: 1000
next table: 1075
cur table: 1039
epoch: 1000
next table: 1019
cur table: 1020
epoch: 1000
next table: 1040
cur table: 1075
epoch: 1000
next table: 1020
cur table: 1019
epoch: 1000
next table: 1047
cur table: 1040
epoch: 1000
next table: 1018
cur table: 1020
epoch: 1000
next table: 1038
cur table: 1047
epoch: 1000
next table: 1019
cur table: 1018
epoch: 1000
next table: 1076
cur table: 1038
epoch: 1000
next table: 1019
cur table: 1019
epoch: 1000
next table: 1042
cur table: 1076
epoch: 1000
next table: 1021
cur table: 1019
epoch: 1000
next table: 1047
cur table: 1042
epoch: 1000
next table: 1017
cur table: 1021
epoch: 1000
next table: 1039
cur table: 1047
epoch: 1000
next table: 1021
cur table: 1017
epoch: 1000
next table: 1074
cur table: 1039
epoch: 1000
next table: 1021
cur table: 1021
epoch: 1000
next table: 1042
cur table: 1074
epoch: 1000
next table: 1017
cur table: 1021
epoch: 1000
next table: 1046
cur table: 1042
epoch: 1000
next table: 1019
cur table: 1017
epoch: 1000
next table: 1042
cur table: 1046
epoch: 1000
next table: 1021
cur table: 1019
epoch: 1000
next table: 1074
cur table: 1042
epoch: 1000
next table: 1019
cur table: 1021
epoch: 1000
next table: 1039
cur table: 1074
epoch: 1000
next table: 1018
cur table: 1019
epoch: 1000
next table: 1045
cur table: 1039
epoch: 1000
next table: 1019
cur table: 1018
epoch: 1000
next table: 1042
cur table: 1045
epoch: 1000
next table: 1020
cur table: 1019
epoch: 1000
next table: 1073
cur table: 1042
epoch: 1000
next table: 1021
cur table: 1020
epoch: 1000
next table: 1041
cur table: 1073
epoch: 1000
next table: 1017
cur table: 1021
epoch: 1000
next table: 1045
cur table: 1041
epoch: 1000
next table: 1018
cur table: 1017
epoch: 1000
next table: 1041
cur table: 1045
epoch: 1000
next table: 1021
cur table: 1018
epoch: 1000
next table: 1074
cur table: 1041
epoch: 1000
next table: 1020
cur table: 1021
epoch: 1000
next table: 1042
cur table: 1074
epoch: 1000
next table: 1019
cur table: 1020
epoch: 1000
next table: 1047
cur table: 1042
epoch: 1000
next table: 1019
cur table: 1019
epoch: 1000
next table: 1040
cur table: 1047
epoch: 1000
next table: 1021
cur table: 1019
epoch: 1000
next table: 1075
cur table: 1040
epoch: 1000
next table: 1020
cur table: 1021
epoch: 1000
next table: 1042
cur table: 1075
epoch: 1000
next table: 1019
cur table: 1020
epoch: 1000
next table: 1047
cur table: 1042
epoch: 1000
next table: 1020
cur table: 1019
epoch: 1000
next table: 1041
cur table: 1047
epoch: 1000
next table: 1019
cur table: 1020
epoch: 1000
next table: 1073
cur table: 1041
epoch: 1000
next table: 1019
cur table: 1019
epoch: 1000
next table: 1042
cur table: 1073
epoch: 1000
next table: 1019
cur table: 1019
epoch: 1000
next table: 1046
cur table: 1042
epoch: 1000
next table: 1020
cur table: 1019
epoch: 1000
next table: 1041
cur table: 1046
epoch: 1000
next table: 1016
cur table: 1020
epoch: 1000
next table: 1072
cur table: 1041
epoch: 1000
next table: 1019
cur table: 1016
epoch: 1000
next table: 1042
cur table: 1072
epoch: 1000
next table: 1020
cur table: 1019
epoch: 1000
next table: 1047
cur table: 1042
epoch: 1000
next table: 1019
cur table: 1020
epoch: 1000
next table: 1041
cur table: 1047
epoch: 1000
next table: 1020
cur table: 1019
epoch: 1000
next table: 1072
cur table: 1041
epoch: 1000
next table: 1017
cur table: 1020
epoch: 1000
next table: 1041
cur table: 1072
epoch: 1000
next table: 1019
cur table: 1017
Heartbeat CPU 0 instructions: 90000000 cycles: 54430287 heartbeat IPC: 1.00214 cumulative IPC: 1.0021 (Simulation time: 0 hr 48 min 50 sec) 
epoch: 1000
next table: 1046
cur table: 1041
epoch: 1000
next table: 1020
cur table: 1019
epoch: 1000
next table: 1042
cur table: 1046
epoch: 1000
next table: 1020
cur table: 1020
epoch: 1000
next table: 1117
cur table: 1042
epoch: 1000
next table: 1018
cur table: 1020
epoch: 1000
next table: 1040
cur table: 1117
epoch: 1000
next table: 1018
cur table: 1018
epoch: 1000
next table: 1044
cur table: 1040
epoch: 1000
next table: 1016
cur table: 1018
epoch: 1000
next table: 1041
cur table: 1044
epoch: 1000
next table: 1022
cur table: 1016
epoch: 1000
next table: 1074
cur table: 1041
epoch: 1000
next table: 1017
cur table: 1022
epoch: 1000
next table: 1041
cur table: 1074
epoch: 1000
next table: 1019
cur table: 1017
epoch: 1000
next table: 1045
cur table: 1041
epoch: 1000
next table: 1018
cur table: 1019
epoch: 1000
next table: 1040
cur table: 1045
epoch: 1000
next table: 1019
cur table: 1018
epoch: 1000
next table: 1123
cur table: 1040
epoch: 1000
next table: 1020
cur table: 1019
epoch: 1000
next table: 1039
cur table: 1123
epoch: 1000
next table: 1019
cur table: 1020
epoch: 1000
next table: 1049
cur table: 1039
epoch: 1000
next table: 1020
cur table: 1019
epoch: 1000
next table: 1039
cur table: 1049
epoch: 1000
next table: 1018
cur table: 1020
epoch: 1000
next table: 1074
cur table: 1039
epoch: 1000
next table: 1019
cur table: 1018
epoch: 1000
next table: 1039
cur table: 1074
epoch: 1000
next table: 1020
cur table: 1019
epoch: 1000
next table: 1050
cur table: 1039
epoch: 1000
next table: 1020
cur table: 1020
epoch: 1000
next table: 1040
cur table: 1050
epoch: 1000
next table: 1019
cur table: 1020
epoch: 1000
next table: 1096
cur table: 1040
epoch: 1000
next table: 1018
cur table: 1019
epoch: 1000
next table: 1059
cur table: 1096
epoch: 1000
next table: 1019
cur table: 1018
epoch: 1000
next table: 1049
cur table: 1059
epoch: 1000
next table: 1020
cur table: 1019
epoch: 1000
next table: 1040
cur table: 1049
epoch: 1000
next table: 1018
cur table: 1020
epoch: 1000
next table: 1076
cur table: 1040
epoch: 1000
next table: 1019
cur table: 1018
epoch: 1000
next table: 1039
cur table: 1076
epoch: 1000
next table: 1019
cur table: 1019
epoch: 1000
next table: 1047
cur table: 1039
epoch: 1000
next table: 1019
cur table: 1019
epoch: 1000
next table: 1040
cur table: 1047
epoch: 1000
next table: 1019
cur table: 1019
epoch: 1000
next table: 1074
cur table: 1040
epoch: 1000
next table: 1020
cur table: 1019
epoch: 1000
next table: 1083
cur table: 1074
epoch: 1000
next table: 1019
cur table: 1020
epoch: 1000
next table: 1050
cur table: 1083
epoch: 1000
next table: 1019
cur table: 1019
epoch: 1000
next table: 1040
cur table: 1050
epoch: 1000
next table: 1034
cur table: 1019
epoch: 1000
next table: 1080
cur table: 1040
epoch: 1000
next table: 1019
cur table: 1034
epoch: 1000
next table: 1038
cur table: 1080
epoch: 1000
next table: 1018
cur table: 1019
epoch: 1000
next table: 1046
cur table: 1038
epoch: 1000
next table: 1017
cur table: 1018
epoch: 1000
next table: 1038
cur table: 1046
epoch: 1000
next table: 1020
cur table: 1017
epoch: 1000
next table: 1077
cur table: 1038
epoch: 1000
next table: 1019
cur table: 1020
epoch: 1000
next table: 1080
cur table: 1077
epoch: 1000
next table: 1019
cur table: 1019
epoch: 1000
next table: 1058
cur table: 1080
epoch: 1000
next table: 1017
cur table: 1019
epoch: 1000
next table: 1041
cur table: 1058
epoch: 1000
next table: 1018
cur table: 1017
epoch: 1000
next table: 1072
cur table: 1041
epoch: 1000
next table: 1017
cur table: 1018
epoch: 1000
next table: 1042
cur table: 1072
epoch: 1000
next table: 1020
cur table: 1017
epoch: 1000
next table: 1046
cur table: 1042
epoch: 1000
next table: 1019
cur table: 1020
epoch: 1000
next table: 1042
cur table: 1046
epoch: 1000
next table: 1019
cur table: 1019
epoch: 1000
next table: 1073
cur table: 1042
epoch: 1000
next table: 1017
cur table: 1019
epoch: 1000
next table: 1081
cur table: 1073
epoch: 1000
next table: 1020
cur table: 1017
epoch: 1000
next table: 1092
cur table: 1081
epoch: 1000
next table: 1020
cur table: 1020
epoch: 1000
next table: 1041
cur table: 1092
epoch: 1000
next table: 1020
cur table: 1020
epoch: 1000
next table: 1076
cur table: 1041
epoch: 1000
next table: 1019
cur table: 1020
epoch: 1000
next table: 1038
cur table: 1076
epoch: 1000
next table: 1018
cur table: 1019
epoch: 1000
next table: 1047
cur table: 1038
epoch: 1000
next table: 1019
cur table: 1018
epoch: 1000
next table: 1039
cur table: 1047
epoch: 1000
next table: 1019
cur table: 1019
epoch: 1000
next table: 1078
cur table: 1039
epoch: 1000
next table: 1021
cur table: 1019
epoch: 1000
next table: 1077
cur table: 1078
epoch: 1000
next table: 1017
cur table: 1021
epoch: 1000
next table: 1066
cur table: 1077
epoch: 1000
next table: 1018
cur table: 1017
epoch: 1000
next table: 1065
cur table: 1066
epoch: 1000
next table: 1019
cur table: 1018
epoch: 1000
next table: 1076
cur table: 1065
epoch: 1000
next table: 1020
cur table: 1019
epoch: 1000
next table: 1040
cur table: 1076
epoch: 1000
next table: 1018
cur table: 1020
epoch: 1000
next table: 1046
cur table: 1040
epoch: 1000
next table: 1019
cur table: 1018
epoch: 1000
next table: 1039
cur table: 1046
epoch: 1000
next table: 1019
cur table: 1019
epoch: 1000
next table: 1077
cur table: 1039
epoch: 1000
next table: 1020
cur table: 1019
epoch: 1000
next table: 1039
cur table: 1077
epoch: 1000
next table: 1018
cur table: 1020
epoch: 1000
next table: 1093
cur table: 1039
epoch: 1000
next table: 1020
cur table: 1018
epoch: 1000
next table: 1081
cur table: 1093
epoch: 1000
next table: 1018
cur table: 1020
epoch: 1000
next table: 1077
cur table: 1081
epoch: 1000
next table: 1021
cur table: 1018
epoch: 1000
next table: 1039
cur table: 1077
epoch: 1000
next table: 1020
cur table: 1021
epoch: 1000
next table: 1048
cur table: 1039
epoch: 1000
next table: 1019
cur table: 1020
epoch: 1000
next table: 1039
cur table: 1048
epoch: 1000
next table: 1018
cur table: 1019
epoch: 1000
next table: 1076
cur table: 1039
epoch: 1000
next table: 1018
cur table: 1018
epoch: 1000
next table: 1039
cur table: 1076
epoch: 1000
next table: 1020
cur table: 1018
epoch: 1000
next table: 1088
cur table: 1039
epoch: 1000
next table: 1019
cur table: 1020
epoch: 1000
next table: 1083
cur table: 1088
epoch: 1000
next table: 1019
cur table: 1019
epoch: 1000
next table: 1076
cur table: 1083
epoch: 1000
next table: 1017
cur table: 1019
epoch: 1000
next table: 1038
cur table: 1076
epoch: 1000
next table: 1020
cur table: 1017
epoch: 1000
next table: 1048
cur table: 1038
epoch: 1000
next table: 1017
cur table: 1020
epoch: 1000
next table: 1040
cur table: 1048
epoch: 1000
next table: 1020
cur table: 1017
epoch: 1000
next table: 1075
cur table: 1040
epoch: 1000
next table: 1019
cur table: 1020
epoch: 1000
next table: 1039
cur table: 1075
epoch: 1000
next table: 1018
cur table: 1019
epoch: 1000
next table: 1090
cur table: 1039
epoch: 1000
next table: 1019
cur table: 1018
epoch: 1000
next table: 1083
cur table: 1090
epoch: 1000
next table: 1020
cur table: 1019
epoch: 1000
next table: 1075
cur table: 1083
epoch: 1000
next table: 1019
cur table: 1020
epoch: 1000
next table: 1040
cur table: 1075
epoch: 1000
next table: 1019
cur table: 1019
epoch: 1000
next table: 1046
cur table: 1040
epoch: 1000
next table: 1017
cur table: 1019
epoch: 1000
next table: 1037
cur table: 1046
epoch: 1000
next table: 1019
cur table: 1017
epoch: 1000
next table: 1076
cur table: 1037
epoch: 1000
next table: 1019
cur table: 1019
epoch: 1000
next table: 1040
cur table: 1076
epoch: 1000
next table: 1019
cur table: 1019
epoch: 1000
next table: 1049
cur table: 1040
epoch: 1000
next table: 1019
cur table: 1019
epoch: 1000
next table: 1080
cur table: 1049
epoch: 1000
next table: 1019
cur table: 1019
epoch: 1000
next table: 1076
cur table: 1080
epoch: 1000
next table: 1019
cur table: 1019
epoch: 1000
next table: 1040
cur table: 1076
epoch: 1000
next table: 1019
cur table: 1019
Heartbeat CPU 0 instructions: 100000000 cycles: 64411146 heartbeat IPC: 1.00192 cumulative IPC: 1.00206 (Simulation time: 0 hr 54 min 12 sec) 
Finished CPU 0 instructions: 50000003 cycles: 49897212 cumulative IPC: 1.00206 (Simulation time: 0 hr 54 min 12 sec) 

ChampSim completed all CPUs

Region of Interest Statistics

CPU 0 cumulative IPC: 1.00206 instructions: 50000003 cycles: 49897212
ITLB TOTAL     ACCESS:    7017674  HIT:    7017674  MISS:          0  HIT %:        100  MISS %:          0   MPKI: 0
ITLB LOAD TRANSLATION ACCESS:    7017674  HIT:    7017674  MISS:          0  HIT %:        100  MISS %:          0   MPKI: 0
ITLB PREFETCH  REQUESTED:          0  ISSUED:          0  USEFUL:          0  USELESS:          0
ITLB USEFUL LOAD PREFETCHES:          0 PREFETCH ISSUED TO LOWER LEVEL:          0  ACCURACY: -nan
ITLB TIMELY PREFETCHES:          0 LATE PREFETCHES: 0 DROPPED PREFETCHES: 0
ITLB PREFETCHES SAME FILL-ORIGIN LEVEL: 0 DIFFERENT FILL-ORIGIN LEVEL: 0
ITLB AVERAGE MISS LATENCY: -nan cycles
ITLB RQ	ACCESS:    8772741	FORWARD:          0	MERGED:    1755068	TO_CACHE:    7017673

Revised Interactions: positive negative neutral
ITLB_interactions 0 0 0 -nan -nan -nan
DTLB TOTAL     ACCESS:    8129010  HIT:    8117168  MISS:      11842  HIT %:    99.8543  MISS %:   0.145676   MPKI: 0.23684
DTLB LOAD TRANSLATION ACCESS:    8129010  HIT:    8117168  MISS:      11842  HIT %:    99.8543  MISS %:   0.145676   MPKI: 0.23684
DTLB PREFETCH  REQUESTED:          0  ISSUED:          0  USEFUL:          0  USELESS:          0
DTLB USEFUL LOAD PREFETCHES:          0 PREFETCH ISSUED TO LOWER LEVEL:          0  ACCURACY: -nan
DTLB TIMELY PREFETCHES:          0 LATE PREFETCHES: 0 DROPPED PREFETCHES: 0
DTLB PREFETCHES SAME FILL-ORIGIN LEVEL: 0 DIFFERENT FILL-ORIGIN LEVEL: 0
DTLB AVERAGE MISS LATENCY: 88.144 cycles
DTLB RQ	ACCESS:   12580159	FORWARD:          0	MERGED:    4450355	TO_CACHE:    8129804

Revised Interactions: positive negative neutral
DTLB_interactions 0 0 0 -nan -nan -nan
STLB TOTAL     ACCESS:     609259  HIT:     602401  MISS:       6858  HIT %:    98.8744  MISS %:    1.12563   MPKI: 0.13716
STLB LOAD TRANSLATION ACCESS:      11842  HIT:       4984  MISS:       6858  HIT %:    42.0875  MISS %:    57.9125   MPKI: 0.13716
STLB TRANSLATION FROM L1D PREFETCHER ACCESS:     597417  HIT:     597417  MISS:          0  HIT %:        100  MISS %:          0   MPKI: 0
STLB PREFETCH  REQUESTED:          0  ISSUED:          0  USEFUL:          0  USELESS:          0
STLB USEFUL LOAD PREFETCHES:          0 PREFETCH ISSUED TO LOWER LEVEL:          0  ACCURACY: -nan
STLB TIMELY PREFETCHES:          0 LATE PREFETCHES: 0 DROPPED PREFETCHES: 0
STLB PREFETCHES SAME FILL-ORIGIN LEVEL: 0 DIFFERENT FILL-ORIGIN LEVEL: 0
STLB AVERAGE MISS LATENCY: 136.327 cycles
STLB RQ	ACCESS:     671937	FORWARD:          0	MERGED:      62678	TO_CACHE:     609259

Revised Interactions: positive negative neutral
STLB_interactions 0 0 0 -nan -nan -nan
STLB Hit, L1D data hit: 0
STLB Hit, L2C data hit: 0
STLB Hit, LLC data hit: 0
STLB Hit, LLC data miss: 0
STLB STLB hints to L2: 0
L1D TOTAL     ACCESS:   13218179  HIT:   12553351  MISS:     664828  HIT %:    94.9704  MISS %:    5.02965   MPKI: 13.2966
L1D LOAD      ACCESS:    9050444  HIT:    9033402  MISS:      17042  HIT %:    99.8117  MISS %:     0.1883   MPKI: 0.34084
L1D RFO       ACCESS:    3508849  HIT:    3508066  MISS:        783  HIT %:    99.9777  MISS %:   0.022315   MPKI: 0.01566
L1D PREFETCH  ACCESS:     658886  HIT:      11883  MISS:     647003  HIT %:     1.8035  MISS %:    98.1965   MPKI: 12.9401
L1D PREFETCH  REQUESTED:    1320190  ISSUED:    1320190  USEFUL:     643849  USELESS:       3166
L1D USEFUL LOAD PREFETCHES:     643849 PREFETCH ISSUED TO LOWER LEVEL:     647431  ACCURACY: 99.4467
L1D TIMELY PREFETCHES:     643849 LATE PREFETCHES: 4080 DROPPED PREFETCHES: 0
L1D PREFETCHES SAME FILL-ORIGIN LEVEL: 647431 DIFFERENT FILL-ORIGIN LEVEL: 0
L1D AVERAGE MISS LATENCY: 980.088 cycles
L1D RQ	ACCESS:   17541471	FORWARD:          0	MERGED:    8471473	TO_CACHE:    9069891
L1D WQ	ACCESS:    3510268	FORWARD:        107	MERGED:          0	TO_CACHE:    3510268
L1D PQ	ACCESS:     660095	FORWARD:          0	MERGED:          0	TO_CACHE:     660095

Revised Interactions: positive negative neutral
L1D_interactions 0 0 0 -nan -nan -nan
L1D UNIQUE REGIONS ACCESSED: 0
L1D REGIONS CONFLICTS: 0
L1D Cross Page Prefetch Requests: 0
L1D Same Page Prefetch Requests: 1314804
L1D ROI Sum of L1D PQ occupancy: 8674564
L1D PREFETCHES PUSHED FROM L2C: 0
L1I TOTAL     ACCESS:    8772741  HIT:    8772741  MISS:          0  HIT %:        100  MISS %:          0   MPKI: 0
L1I LOAD      ACCESS:    8772741  HIT:    8772741  MISS:          0  HIT %:        100  MISS %:          0   MPKI: 0
L1I PREFETCH  REQUESTED:          0  ISSUED:          0  USEFUL:          0  USELESS:          0
L1I USEFUL LOAD PREFETCHES:          0 PREFETCH ISSUED TO LOWER LEVEL:          0  ACCURACY: -nan
L1I TIMELY PREFETCHES:          0 LATE PREFETCHES: 0 DROPPED PREFETCHES: 0
L1I PREFETCHES SAME FILL-ORIGIN LEVEL: 0 DIFFERENT FILL-ORIGIN LEVEL: 0
L1I AVERAGE MISS LATENCY: -nan cycles
L1I RQ	ACCESS:   11406711	FORWARD:          0	MERGED:    2633970	TO_CACHE:    8772741

Revised Interactions: positive negative neutral
L1I_interactions 0 0 0 -nan -nan -nan
BTB TOTAL     ACCESS:     877293  HIT:     877284  MISS:          9  HIT %:     99.999  MISS %: 0.00102588   MPKI: 0.00018
BTB BRANCH_DIRECT_JUMP	ACCESS:        218  HIT:        216  MISS:          2
BTB BRANCH_INDIRECT	ACCESS:          0  HIT:          0  MISS:          0
BTB BRANCH_CONDITIONAL	ACCESS:     876639  HIT:     876636  MISS:          3
BTB BRANCH_DIRECT_CALL	ACCESS:        218  HIT:        216  MISS:          2
BTB BRANCH_INDIRECT_CALL	ACCESS:          0  HIT:          0  MISS:          0
BTB BRANCH_RETURN	ACCESS:        218  HIT:        216  MISS:          2
BTB BRANCH_OTHER ACCESS:          0  HIT:          0  MISS:          0

L2C TOTAL     ACCESS:    3967038  HIT:    3526920  MISS:     440118  HIT %:    88.9056  MISS %:    11.0944   MPKI: 8.80236
L2C LOAD      ACCESS:      17042  HIT:       9519  MISS:       7523  HIT %:    55.8561  MISS %:    44.1439   MPKI: 0.15046
L2C DATA LOAD MPKI: 0.15046
L2C INSTRUCTION LOAD MPKI: 0
L2C RFO       ACCESS:        763  HIT:        752  MISS:         11  HIT %:    98.5583  MISS %:    1.44168   MPKI: 0.00022
L2C PREFETCH  ACCESS:    3503146  HIT:    3071575  MISS:     431571  HIT %:    87.6805  MISS %:    12.3195   MPKI: 8.63142
L2C DATA PREFETCH MPKI: 8.63142
L2C INSTRUCTION PREFETCH MPKI: 0
L2C WRITEBACK ACCESS:     439227  HIT:     439096  MISS:        131  HIT %:    99.9702  MISS %:  0.0298251   MPKI: 0.00262
L2C LOAD TRANSLATION ACCESS:       6860  HIT:       5978  MISS:        882  HIT %:    87.1429  MISS %:    12.8571   MPKI: 0.01764
L2C PREFETCH  REQUESTED:    3306823  ISSUED:    3306699  USEFUL:       1993  USELESS:     429918
L2C USEFUL LOAD PREFETCHES:       1993 PREFETCH ISSUED TO LOWER LEVEL:     431585  ACCURACY: 0.461786
L2C TIMELY PREFETCHES:       1993 LATE PREFETCHES: 14 DROPPED PREFETCHES: 0
L2C PREFETCHES SAME FILL-ORIGIN LEVEL: 383281 DIFFERENT FILL-ORIGIN LEVEL: 0
L2C AVERAGE MISS LATENCY: 192.785 cycles
L2C RQ	ACCESS:      24665	FORWARD:          0	MERGED:          0	TO_CACHE:      24665
L2C WQ	ACCESS:     439232	FORWARD:          0	MERGED:          0	TO_CACHE:     439232
L2C PQ	ACCESS:    3953722	FORWARD:          0	MERGED:      80467	TO_CACHE:    3873255

Revised Interactions: positive negative neutral
L2C_interactions 1967 428463 664 0.456281 99.3897 0.154027
L2C Instructions Evicting Data 0
L2C Translations Evicting Data 882
L2C Data Evicting Data 438214
L2C Instructions Evicting Instructions 0
L2C Translations Evicting Instructions 0
L2C Data Evicting Instructions 0
L2C Instructions Evicting Translations 0
L2C Translations Evicting Translations 0
L2C Data Evicting Translations 891
L2C Dense regions hint from L2: 0
PSCL5 TOTAL     ACCESS:       6858  HIT:       6858  MISS:          0  HIT %:        100  MISS %:          0   MPKI: 0
PSCL5 LOAD TRANSLATION ACCESS:       6858  HIT:       6858  MISS:          0  HIT %:        100  MISS %:          0   MPKI: 0
PSCL5 PREFETCH  REQUESTED:          0  ISSUED:          0  USEFUL:          0  USELESS:          0
PSCL5 USEFUL LOAD PREFETCHES:          0 PREFETCH ISSUED TO LOWER LEVEL:          0  ACCURACY: -nan
PSCL5 TIMELY PREFETCHES:          0 LATE PREFETCHES: 0 DROPPED PREFETCHES: 0
PSCL5 PREFETCHES SAME FILL-ORIGIN LEVEL: 0 DIFFERENT FILL-ORIGIN LEVEL: 0

Revised Interactions: positive negative neutral
PSCL5_interactions 0 0 0 -nan -nan -nan
PSCL4 TOTAL     ACCESS:       6858  HIT:       6858  MISS:          0  HIT %:        100  MISS %:          0   MPKI: 0
PSCL4 LOAD TRANSLATION ACCESS:       6858  HIT:       6858  MISS:          0  HIT %:        100  MISS %:          0   MPKI: 0
PSCL4 PREFETCH  REQUESTED:          0  ISSUED:          0  USEFUL:          0  USELESS:          0
PSCL4 USEFUL LOAD PREFETCHES:          0 PREFETCH ISSUED TO LOWER LEVEL:          0  ACCURACY: -nan
PSCL4 TIMELY PREFETCHES:          0 LATE PREFETCHES: 0 DROPPED PREFETCHES: 0
PSCL4 PREFETCHES SAME FILL-ORIGIN LEVEL: 0 DIFFERENT FILL-ORIGIN LEVEL: 0

Revised Interactions: positive negative neutral
PSCL4_interactions 0 0 0 -nan -nan -nan
PSCL3 TOTAL     ACCESS:       6858  HIT:       6856  MISS:          2  HIT %:    99.9708  MISS %:   0.029163   MPKI: 4e-05
PSCL3 LOAD TRANSLATION ACCESS:       6858  HIT:       6856  MISS:          2  HIT %:    99.9708  MISS %:   0.029163   MPKI: 4e-05
PSCL3 PREFETCH  REQUESTED:          0  ISSUED:          0  USEFUL:          0  USELESS:          0
PSCL3 USEFUL LOAD PREFETCHES:          0 PREFETCH ISSUED TO LOWER LEVEL:          0  ACCURACY: -nan
PSCL3 TIMELY PREFETCHES:          0 LATE PREFETCHES: 0 DROPPED PREFETCHES: 0
PSCL3 PREFETCHES SAME FILL-ORIGIN LEVEL: 0 DIFFERENT FILL-ORIGIN LEVEL: 0

Revised Interactions: positive negative neutral
PSCL3_interactions 0 0 0 -nan -nan -nan
PSCL2 TOTAL     ACCESS:       6858  HIT:       6837  MISS:         21  HIT %:    99.6938  MISS %:   0.306212   MPKI: 0.00042
PSCL2 LOAD TRANSLATION ACCESS:       6858  HIT:       6837  MISS:         21  HIT %:    99.6938  MISS %:   0.306212   MPKI: 0.00042
PSCL2 PREFETCH  REQUESTED:          0  ISSUED:          0  USEFUL:          0  USELESS:          0
PSCL2 USEFUL LOAD PREFETCHES:          0 PREFETCH ISSUED TO LOWER LEVEL:          0  ACCURACY: -nan
PSCL2 TIMELY PREFETCHES:          0 LATE PREFETCHES: 0 DROPPED PREFETCHES: 0
PSCL2 PREFETCHES SAME FILL-ORIGIN LEVEL: 0 DIFFERENT FILL-ORIGIN LEVEL: 0

Revised Interactions: positive negative neutral
PSCL2_interactions 0 0 0 -nan -nan -nan
LLC TOTAL     ACCESS:     878195  HIT:      10719  MISS:     867476  HIT %:    1.22057  MISS %:    98.7794   MPKI: 17.3495
LLC LOAD      ACCESS:       7509  HIT:         60  MISS:       7449  HIT %:   0.799041  MISS %:     99.201   MPKI: 0.14898
LLC RFO       ACCESS:         11  HIT:         11  MISS:          0  HIT %:        100  MISS %:          0   MPKI: 0
LLC PREFETCH  ACCESS:     431585  HIT:        530  MISS:     431055  HIT %:   0.122803  MISS %:    99.8772   MPKI: 8.6211
LLC WRITEBACK ACCESS:     438208  HIT:      10101  MISS:     428107  HIT %:    2.30507  MISS %:    97.6949   MPKI: 8.56214
LLC LOAD TRANSLATION ACCESS:        882  HIT:         17  MISS:        865  HIT %:    1.92744  MISS %:    98.0726   MPKI: 0.0173
LLC PREFETCH  REQUESTED:          0  ISSUED:          0  USEFUL:         28  USELESS:     432378
LLC USEFUL LOAD PREFETCHES:         28 PREFETCH ISSUED TO LOWER LEVEL:     431055  ACCURACY: 0.00649569
LLC TIMELY PREFETCHES:         28 LATE PREFETCHES: 0 DROPPED PREFETCHES: 0
LLC PREFETCHES SAME FILL-ORIGIN LEVEL: 0 DIFFERENT FILL-ORIGIN LEVEL: 0
LLC AVERAGE MISS LATENCY: 82.5921 cycles
LLC RQ	ACCESS:       8402	FORWARD:          0	MERGED:          0	TO_CACHE:       8402
LLC WQ	ACCESS:     438214	FORWARD:          0	MERGED:          0	TO_CACHE:     438214
LLC PQ	ACCESS:     431585	FORWARD:          0	MERGED:          0	TO_CACHE:     431585

Revised Interactions: positive negative neutral
LLC_interactions 1 429713 270 0.000232567 99.937 0.062793
LLC Dense regions hint to LLC: 0

RAW hits: 787
Loads Generated: 17542256
Loads sent to L1D: 17541471
Stores Generated: 3510262
Stores sent to L1D: 3510268
Major fault: 0 Minor fault: 13844
Allocated PAGES: 13844

stream: 
stream:times selected: 3384733
stream:pref_filled: 1264100
stream:pref_useful: 1258298
stream:pref_late: 4319
stream:misses: 266
stream:misses_by_poll: 0

CS: 
CS:times selected: 2999451
CS:pref_filled: 10554
CS:pref_useful: 10268
CS:pref_late: 6
CS:misses: 45587
CS:misses_by_poll: 23

CPLX: 
CPLX:times selected: 385189
CPLX:pref_filled: 20142
CPLX:pref_useful: 19922
CPLX:pref_late: 0
CPLX:misses: 2962
CPLX:misses_by_poll: 1

NL_L1: 
NL:times selected: 30
NL:pref_filled: 1
NL:pref_useful: 1
NL:pref_late: 0
NL:misses: 0
NL:misses_by_poll: 0

total selections: 6769403
total_filled: 647003
total_useful: 643849
total_late: 4330
total_polluted: 24
total_misses_after_warmup: 36490
conflicts: 486
Degree Incremented Times: 237897
Degree Decremented Times: 0

L1 IP Table Write Accesses: 9068090
L1 IP Table Read Accesses: 9067604
L1 RST Write Accesses: 1492523
L1 RST Read Accesses: 2985046
L1 CSPT Write Accesses: 1492523
L1 CSPT Read Accesses: 1765150
L1 RR Filter Tag Write Accesses: 660095
L1 RR Filter Tag Read Accesses: 335946368
L1 IP Table Tag Write Accesses: 9069892
L1 IP Table Tag Read Accesses: 9069892
L1 RST Tag Write Accesses: 0
L1 RST Tag Read Accesses: 13461643
L1 RR Filter Write Accesses: 0
L1 RR Filter Read Accesses: 12757402
test: 80740
L2 IP Table Read Accesses: 1182642
L2 IP Table Write Accesses: 1166128
L2 IP Table Tag Read Accesses: 591613
L2 IP Table Tag Write Accesses: 591613

DRAM Statistics
 CHANNEL 0
 RQ ROW_BUFFER_HIT:      63652  ROW_BUFFER_MISS:     375717
 DBUS_CONGESTED:        365
 WQ ROW_BUFFER_HIT:     287480  ROW_BUFFER_MISS:     151067  FULL:          0

 AVG_CONGESTED_CYCLE: 6
 All warmup complete: 2
Channel 0 Bank busy for read cycles: 0
Channel 0 Bank busy for write cycles: 0
Channel 0
Rank 0
0banks busy for read cycles: 5853464
0banks busy for write cycles: 8293
1banks busy for read cycles: 20891691
1banks busy for write cycles: 663539
2banks busy for read cycles: 10913921
2banks busy for write cycles: 323955
3banks busy for read cycles: 969368
3banks busy for write cycles: 266688
4banks busy for read cycles: 410699
4banks busy for write cycles: 280960
5banks busy for read cycles: 147966
5banks busy for write cycles: 286321
6banks busy for read cycles: 143241
6banks busy for write cycles: 389150
7banks busy for read cycles: 1141636
7banks busy for write cycles: 1159704
8banks busy for read cycles: 352682
8banks busy for write cycles: 5693935

CPU 0 Branch Prediction Accuracy: 99.9751% MPKI: 0.00438 Average ROB Occupancy at Mispredict: 50.9406
Branch types
NOT_BRANCH: 49121848 98.2437%
BRANCH_DIRECT_JUMP: 218 0.000436%
BRANCH_INDIRECT: 0 0%
BRANCH_CONDITIONAL: 877403 1.75481%
BRANCH_DIRECT_CALL: 218 0.000436%
BRANCH_INDIRECT_CALL: 0 0%
BRANCH_RETURN: 218 0.000436%
BRANCH_OTHER: 0 0%

@sumon_overall_L1D    643849      4080      4080      3166    647003   1320190   1320190
@Sumon_Early_by_class_L1D    641311      1125      1382         0
@Sumon_Late_by_class_L1D      4049         0         0         0

@Sumon_Early_by_cycle_L1D     10115     21224     31438    376576      4244    200245         5         2         0         0         0         0
@Sumon_Late_by_cycle_L1D        15         7        53        16      3962         0
@Sumon_Early_stream_L1D     10094     20509     31115    376079      3680    199834         0         0         0         0         0         0
@Sumon_Early_CS_L1D         4       559       287       170        44        61         0         0         0         0         0         0
@Sumon_Early_CPLX_L1D         0       145        34       326       520       350         5         2         0         0         0         0
@Sumon_Late_stream_L1D        15         7        53        15      3959         0
@Sumon_Late_CS_L1D         0         0         0         0         0         0
@Sumon_Late_CPLX_L1D         0         0         0         0         0         0
@sumon_overall_L2C      1993        14         0    429918    431571   3306699   3306823
@Sumon_Early_by_class_L2C      1989         2         0         0
@Sumon_Late_by_class_L2C        14         0         0         0

@Sumon_Early_by_cycle_L2C        15        47       700       118        38       242         0         0         0         0         0       833
@Sumon_Late_by_cycle_L2C         0         0         0         0        14         0
@Sumon_Early_stream_L2C        15        47       700       118        38       242         0         0         0         0         0       829
@Sumon_Early_CS_L2C         0         0         0         0         0         0         0         0         0         0         0         2
@Sumon_Early_CPLX_L2C         0         0         0         0         0         0         0         0         0         0         0         0
@Sumon_Late_stream_L2C         0         0         0         0        14         0
@Sumon_Late_CS_L2C         0         0         0         0         0         0
@Sumon_Late_CPLX_L2C         0         0         0         0         0         0
DRAM PAGES: 1048576
Allocated PAGES: 13844
