
*** ChampSim Multicore Out-of-Order Simulator ***

Warmup Instructions: 50000000
Simulation Instructions: 50000000
Number of CPUs: 1
LLC sets: 2048
LLC ways: 16
Off-chip DRAM Size: 4096 MB Channels: 1 Width: 64-bit Data Rate: 6400 MT/s
CPU 0 runs ../../biswa/SPEC2017Traces/654.roms_s-1390B.champsimtrace.xz
.xz
CPU 0 Bimodal branch predictor
BTB has LRU replacement policy
ITLB has LRU replacement policy
DTLB has LRU replacement policy
STLB has LRU replacement policy
L1I has LRU replacement policy
IP Table Entries: 256
L1D has LRU replacement policy
IP_Table L2 entries: 256
Initialize DRRIP state for L2C
Initialize SRRIP state
epoch: 1000
next table: 1215
cur table: 2578
epoch: 1000
next table: 1175
cur table: 1215
epoch: 1000
next table: 1173
cur table: 1175
epoch: 1000
next table: 1174
cur table: 1173
epoch: 1000
next table: 1173
cur table: 1174
epoch: 1000
next table: 1175
cur table: 1173
epoch: 1000
next table: 1174
cur table: 1175
epoch: 1000
next table: 1175
cur table: 1174
epoch: 1000
next table: 1180
cur table: 1175
epoch: 1000
next table: 1173
cur table: 1180
epoch: 1000
next table: 1175
cur table: 1173
epoch: 1000
next table: 1172
cur table: 1175
epoch: 1000
next table: 1177
cur table: 1172
epoch: 1000
next table: 1177
cur table: 1177
epoch: 1000
next table: 1179
cur table: 1177
epoch: 1000
next table: 1176
cur table: 1179
epoch: 1000
next table: 1180
cur table: 1176
epoch: 1000
next table: 1179
cur table: 1180
epoch: 1000
next table: 1180
cur table: 1179
epoch: 1000
next table: 1184
cur table: 1180
epoch: 1000
next table: 1193
cur table: 1184
epoch: 1000
next table: 1241
cur table: 5581
epoch: 1000
next table: 1173
cur table: 1193
epoch: 1000
next table: 1213
cur table: 1241
epoch: 1000
next table: 1175
cur table: 1173
epoch: 1000
next table: 1166
cur table: 1213
epoch: 1000
next table: 1174
cur table: 1175
epoch: 1000
next table: 1170
cur table: 1166
epoch: 1000
next table: 1174
cur table: 1174
epoch: 1000
next table: 1161
cur table: 1170
epoch: 1000
next table: 1172
cur table: 1174
epoch: 1000
next table: 1168
cur table: 1161
epoch: 1000
next table: 1175
cur table: 1172
epoch: 1000
next table: 1172
cur table: 1168
epoch: 1000
next table: 1173
cur table: 1175
epoch: 1000
next table: 1162
cur table: 1172
epoch: 1000
next table: 1174
cur table: 1173
epoch: 1000
next table: 1158
cur table: 1162
epoch: 1000
next table: 1173
cur table: 1174
epoch: 1000
next table: 1160
cur table: 1158
epoch: 1000
next table: 1175
cur table: 1173
epoch: 1000
next table: 1156
cur table: 1160
epoch: 1000
next table: 1174
cur table: 1175
epoch: 1000
next table: 1159
cur table: 1156
epoch: 1000
next table: 1177
cur table: 1174
epoch: 1000
next table: 1175
cur table: 1177
epoch: 1000
next table: 1160
cur table: 1159
epoch: 1000
next table: 1174
cur table: 1175
epoch: 1000
next table: 1161
cur table: 1160
epoch: 1000
next table: 1175
cur table: 1174
epoch: 1000
next table: 1159
cur table: 1161
epoch: 1000
next table: 1176
cur table: 1175
epoch: 1000
next table: 1161
cur table: 1159
epoch: 1000
next table: 1179
cur table: 1176
epoch: 1000
next table: 1156
cur table: 1161
epoch: 1000
next table: 1174
cur table: 1179
epoch: 1000
next table: 1156
cur table: 1156
epoch: 1000
next table: 1171
cur table: 1174
epoch: 1000
next table: 1158
cur table: 1156
epoch: 1000
next table: 1175
cur table: 1171
epoch: 1000
next table: 1158
cur table: 1158
epoch: 1000
next table: 1172
cur table: 1175
epoch: 1000
next table: 1155
cur table: 1158
epoch: 1000
next table: 1176
cur table: 1172
epoch: 1000
next table: 1160
cur table: 1155
epoch: 1000
next table: 1172
cur table: 1176
epoch: 1000
next table: 1156
cur table: 1160
epoch: 1000
next table: 1174
cur table: 1172
epoch: 1000
next table: 1158
cur table: 1156
epoch: 1000
next table: 1173
cur table: 1174
epoch: 1000
next table: 1158
cur table: 1158
epoch: 1000
next table: 1174
cur table: 1173
epoch: 1000
next table: 1160
cur table: 1158
epoch: 1000
next table: 1173
cur table: 1174
epoch: 1000
next table: 1157
cur table: 1160
epoch: 1000
next table: 1174
cur table: 1173
epoch: 1000
next table: 1155
cur table: 1157
epoch: 1000
next table: 1174
cur table: 1174
epoch: 1000
next table: 1155
cur table: 1155
epoch: 1000
next table: 1174
cur table: 1174
epoch: 1000
next table: 1158
cur table: 1155
epoch: 1000
next table: 1175
cur table: 1174
epoch: 1000
next table: 1159
cur table: 1158
epoch: 1000
next table: 1177
cur table: 1175
epoch: 1000
next table: 1159
cur table: 1159
epoch: 1000
next table: 1177
cur table: 1177
epoch: 1000
next table: 1156
cur table: 1159
epoch: 1000
next table: 1172
cur table: 1177
epoch: 1000
next table: 1154
cur table: 1156
epoch: 1000
next table: 1176
cur table: 1172
epoch: 1000
next table: 1160
cur table: 1154
epoch: 1000
next table: 1183
cur table: 1176
epoch: 1000
next table: 1157
cur table: 1160
epoch: 1000
next table: 1176
cur table: 1183
epoch: 1000
next table: 1161
cur table: 1157
epoch: 1000
next table: 1180
cur table: 1176
epoch: 1000
next table: 1159
cur table: 1161
epoch: 1000
next table: 1179
cur table: 1180
epoch: 1000
next table: 1165
cur table: 1159
epoch: 1000
next table: 1180
cur table: 1179
epoch: 1000
next table: 1166
cur table: 1165
epoch: 1000
next table: 1187
cur table: 1180
epoch: 1000
next table: 1173
cur table: 1166
epoch: 1000
next table: 1185
cur table: 1187
epoch: 1000
next table: 1161
cur table: 1173
epoch: 1000
next table: 1174
cur table: 1185
epoch: 1000
next table: 1154
cur table: 1161
epoch: 1000
next table: 1176
cur table: 1174
epoch: 1000
next table: 1156
cur table: 1154
epoch: 1000
next table: 1175
cur table: 1176
epoch: 1000
next table: 1158
cur table: 1156
epoch: 1000
next table: 1172
cur table: 1175
epoch: 1000
next table: 1155
cur table: 1158
epoch: 1000
next table: 1174
cur table: 1172
epoch: 1000
next table: 1156
cur table: 1155
epoch: 1000
next table: 1174
cur table: 1174
epoch: 1000
next table: 1156
cur table: 1156
epoch: 1000
next table: 1174
cur table: 1174
epoch: 1000
next table: 1157
cur table: 1156
epoch: 1000
next table: 1172
cur table: 1174
epoch: 1000
next table: 1157
cur table: 1157
epoch: 1000
next table: 1175
cur table: 1172
epoch: 1000
next table: 1158
cur table: 1157
epoch: 1000
next table: 1172
cur table: 1175
epoch: 1000
next table: 1156
cur table: 1158
epoch: 1000
next table: 1175
cur table: 1172
epoch: 1000
next table: 1158
cur table: 1156
epoch: 1000
next table: 1173
cur table: 1175
epoch: 1000
next table: 1158
cur table: 1158
epoch: 1000
next table: 1174
cur table: 1173
epoch: 1000
next table: 1158
cur table: 1158
epoch: 1000
next table: 1173
cur table: 1174
epoch: 1000
next table: 1158
cur table: 1158
epoch: 1000
next table: 1177
cur table: 1173
epoch: 1000
next table: 1153
cur table: 1158
epoch: 1000
next table: 1172
cur table: 1177
epoch: 1000
next table: 1157
cur table: 1153
epoch: 1000
next table: 1178
cur table: 1172
epoch: 1000
next table: 1156
cur table: 1157
epoch: 1000
next table: 1173
cur table: 1178
epoch: 1000
next table: 1157
cur table: 1156
epoch: 1000
next table: 1180
cur table: 1173
epoch: 1000
next table: 1156
cur table: 1157
epoch: 1000
next table: 1174
cur table: 1180
epoch: 1000
next table: 1156
cur table: 1156
epoch: 1000
next table: 1172
cur table: 1174
epoch: 1000
next table: 1157
cur table: 1156
epoch: 1000
next table: 1174
cur table: 1172
epoch: 1000
next table: 1156
cur table: 1157
epoch: 1000
next table: 1175
cur table: 1174
epoch: 1000
next table: 1157
cur table: 1156
epoch: 1000
next table: 1174
cur table: 1175
epoch: 1000
next table: 1156
cur table: 1157
epoch: 1000
next table: 1173
cur table: 1174
epoch: 1000
next table: 1158
cur table: 1156
epoch: 1000
next table: 1173
cur table: 1173
epoch: 1000
next table: 1158
cur table: 1158
epoch: 1000
next table: 1175
cur table: 1173
epoch: 1000
next table: 1155
cur table: 1158
epoch: 1000
next table: 1172
cur table: 1175
epoch: 1000
next table: 1154
cur table: 1155
epoch: 1000
next table: 1175
cur table: 1172
epoch: 1000
next table: 1158
cur table: 1154
epoch: 1000
next table: 1173
cur table: 1175
epoch: 1000
next table: 1161
cur table: 1158
epoch: 1000
next table: 1175
cur table: 1173
epoch: 1000
next table: 1156
cur table: 1161
epoch: 1000
next table: 1173
cur table: 1175
epoch: 1000
next table: 1161
cur table: 1156
epoch: 1000
next table: 1177
cur table: 1173
epoch: 1000
next table: 1155
cur table: 1161
epoch: 1000
next table: 1172
cur table: 1177
epoch: 1000
next table: 1155
cur table: 1155
epoch: 1000
next table: 1183
cur table: 1172
epoch: 1000
next table: 1158
cur table: 1155
epoch: 1000
next table: 1177
cur table: 1183
epoch: 1000
next table: 1159
cur table: 1158
epoch: 1000
next table: 1183
cur table: 1177
epoch: 1000
next table: 1159
cur table: 1159
epoch: 1000
next table: 1179
cur table: 1183
epoch: 1000
next table: 1162
cur table: 1159
epoch: 1000
next table: 1179
cur table: 1179
epoch: 1000
next table: 1164
cur table: 1162
epoch: 1000
next table: 1182
cur table: 1179
epoch: 1000
next table: 1166
cur table: 1164
epoch: 1000
next table: 1184
cur table: 1182
epoch: 1000
next table: 1169
cur table: 1166
epoch: 1000
next table: 1179
cur table: 1184
epoch: 1000
next table: 1163
cur table: 1169
epoch: 1000
next table: 1186
cur table: 1179
epoch: 1000
next table: 1156
cur table: 1163
epoch: 1000
next table: 1173
cur table: 1186
epoch: 1000
next table: 1157
cur table: 1156
epoch: 1000
next table: 1171
cur table: 1173
epoch: 1000
next table: 1156
cur table: 1157
epoch: 1000
next table: 1178
cur table: 1171
epoch: 1000
next table: 1158
cur table: 1156
epoch: 1000
next table: 1174
cur table: 1178
epoch: 1000
next table: 1156
cur table: 1158
epoch: 1000
next table: 1176
cur table: 1174
epoch: 1000
next table: 1158
cur table: 1156
epoch: 1000
next table: 1173
cur table: 1176
epoch: 1000
next table: 1158
cur table: 1158
epoch: 1000
next table: 1174
cur table: 1173
epoch: 1000
next table: 1159
cur table: 1158
epoch: 1000
next table: 1172
cur table: 1174
epoch: 1000
next table: 1158
cur table: 1159
epoch: 1000
next table: 1175
cur table: 1172
epoch: 1000
next table: 1157
cur table: 1158
epoch: 1000
next table: 1172
cur table: 1175
epoch: 1000
next table: 1156
cur table: 1157
epoch: 1000
next table: 1175
cur table: 1172
epoch: 1000
next table: 1159
cur table: 1156
epoch: 1000
next table: 1173
cur table: 1175
epoch: 1000
next table: 1158
cur table: 1159
epoch: 1000
next table: 1176
cur table: 1173
epoch: 1000
next table: 1160
cur table: 1158
epoch: 1000
next table: 1174
cur table: 1176
epoch: 1000
next table: 1153
cur table: 1160
epoch: 1000
next table: 1175
cur table: 1174
epoch: 1000
next table: 1158
cur table: 1153
epoch: 1000
next table: 1174
cur table: 1175
epoch: 1000
next table: 1156
cur table: 1158
epoch: 1000
next table: 1175
cur table: 1174
epoch: 1000
next table: 1158
cur table: 1156
epoch: 1000
next table: 1176
cur table: 1175
epoch: 1000
next table: 1155
cur table: 1158
epoch: 1000
next table: 1177
cur table: 1176
epoch: 1000
next table: 1157
cur table: 1155
epoch: 1000
next table: 1177
cur table: 1177
epoch: 1000
next table: 1155
cur table: 1157
epoch: 1000
next table: 1172
cur table: 1177
epoch: 1000
next table: 1156
cur table: 1155
epoch: 1000
next table: 1173
cur table: 1172
epoch: 1000
next table: 1156
cur table: 1156
epoch: 1000
next table: 1175
cur table: 1173
epoch: 1000
next table: 1157
cur table: 1156
epoch: 1000
next table: 1175
cur table: 1175
epoch: 1000
next table: 1156
cur table: 1157
epoch: 1000
next table: 1173
cur table: 1175
epoch: 1000
next table: 1160
cur table: 1156
epoch: 1000
next table: 1173
cur table: 1173
epoch: 1000
next table: 1159
cur table: 1160
epoch: 1000
next table: 1175
cur table: 1173
epoch: 1000
next table: 1155
cur table: 1159
epoch: 1000
next table: 1173
cur table: 1175
epoch: 1000
next table: 1155
cur table: 1155
epoch: 1000
next table: 1175
cur table: 1173
epoch: 1000
next table: 1156
cur table: 1155
epoch: 1000
next table: 1172
cur table: 1175
epoch: 1000
next table: 1156
cur table: 1156
epoch: 1000
next table: 1174
cur table: 1172
epoch: 1000
next table: 1159
cur table: 1156
epoch: 1000
next table: 1174
cur table: 1174
epoch: 1000
next table: 1159
cur table: 1159
epoch: 1000
next table: 1177
cur table: 1174
epoch: 1000
next table: 1154
cur table: 1159
epoch: 1000
next table: 1173
cur table: 1177
epoch: 1000
next table: 1161
cur table: 1154
epoch: 1000
next table: 1185
cur table: 1173
epoch: 1000
next table: 1159
cur table: 1161
epoch: 1000
next table: 1181
cur table: 1185
epoch: 1000
next table: 1161
cur table: 1159
epoch: 1000
next table: 1180
cur table: 1181
epoch: 1000
next table: 1161
cur table: 1161
epoch: 1000
next table: 1183
cur table: 1180
epoch: 1000
next table: 1167
cur table: 1161
epoch: 1000
next table: 1181
cur table: 1183
epoch: 1000
next table: 1166
cur table: 1167
epoch: 1000
next table: 1182
cur table: 1181
epoch: 1000
next table: 1167
cur table: 1166
epoch: 1000
next table: 1190
cur table: 1182
epoch: 1000
next table: 1155
cur table: 1167
epoch: 1000
next table: 1174
cur table: 1190
epoch: 1000
next table: 1173
cur table: 1155
epoch: 1000
next table: 1183
cur table: 1174
epoch: 1000
next table: 1237
cur table: 1173
epoch: 1000
next table: 1187
cur table: 1183
epoch: 1000
next table: 1183
cur table: 1187
epoch: 1000
next table: 1224
cur table: 1237
epoch: 1000
next table: 1187
cur table: 1183
epoch: 1000
next table: 1222
cur table: 1224
epoch: 1000
next table: 1187
cur table: 1187
epoch: 1000
next table: 1206
cur table: 1222
epoch: 1000
next table: 1192
cur table: 1187
epoch: 1000
next table: 1186
cur table: 1192
epoch: 1000
next table: 1202
cur table: 1206
epoch: 1000
next table: 1188
cur table: 1186
epoch: 1000
next table: 1202
cur table: 1202
epoch: 1000
next table: 1187
cur table: 1188
epoch: 1000
next table: 1189
cur table: 1202
epoch: 1000
next table: 1188
cur table: 1187
epoch: 1000
next table: 1182
cur table: 1189
epoch: 1000
next table: 1187
cur table: 1188
epoch: 1000
next table: 1192
cur table: 1187
epoch: 1000
next table: 1182
cur table: 1182
epoch: 1000
next table: 1186
cur table: 1192
epoch: 1000
next table: 1175
cur table: 1182
epoch: 1000
next table: 1190
cur table: 1186
epoch: 1000
next table: 1173
cur table: 1175
epoch: 1000
next table: 1187
cur table: 1190
epoch: 1000
next table: 1158
cur table: 1173
epoch: 1000
next table: 1192
cur table: 1187
epoch: 1000
next table: 1157
cur table: 1158
epoch: 1000
next table: 1182
cur table: 1192
epoch: 1000
next table: 1156
cur table: 1157
epoch: 1000
next table: 1189
cur table: 1182
epoch: 1000
next table: 1160
cur table: 1156
epoch: 1000
next table: 1184
cur table: 1189
epoch: 1000
next table: 1157
cur table: 1160
epoch: 1000
next table: 1188
cur table: 1184
epoch: 1000
next table: 1157
cur table: 1157
epoch: 1000
next table: 1183
cur table: 1188
epoch: 1000
next table: 1158
cur table: 1157
epoch: 1000
next table: 1187
cur table: 1183
epoch: 1000
next table: 1162
cur table: 1158
epoch: 1000
next table: 1182
cur table: 1187
epoch: 1000
next table: 1157
cur table: 1162
epoch: 1000
next table: 1187
cur table: 1182
epoch: 1000
next table: 1151
cur table: 1157
epoch: 1000
next table: 1184
cur table: 1187
epoch: 1000
next table: 1158
cur table: 1151
epoch: 1000
next table: 1187
cur table: 1184
epoch: 1000
next table: 1159
cur table: 1158
epoch: 1000
next table: 1185
cur table: 1187
epoch: 1000
next table: 1156
cur table: 1159
epoch: 1000
next table: 1188
cur table: 1185
epoch: 1000
next table: 1157
cur table: 1156
epoch: 1000
next table: 1184
cur table: 1188
epoch: 1000
next table: 1159
cur table: 1157
epoch: 1000
next table: 1190
cur table: 1184
epoch: 1000
next table: 1157
cur table: 1159
epoch: 1000
next table: 1185
cur table: 1190
epoch: 1000
next table: 1156
cur table: 1157
epoch: 1000
next table: 1196
cur table: 1185
epoch: 1000
next table: 1155
cur table: 1156
epoch: 1000
next table: 1186
cur table: 1196
epoch: 1000
next table: 1160
cur table: 1155
epoch: 1000
next table: 1192
cur table: 1186
epoch: 1000
next table: 1162
cur table: 1160
epoch: 1000
next table: 1196
cur table: 1192
epoch: 1000
next table: 1162
cur table: 1162
epoch: 1000
next table: 1194
cur table: 1196
epoch: 1000
next table: 1164
cur table: 1162
epoch: 1000
next table: 1194
cur table: 1194
epoch: 1000
next table: 1165
cur table: 1164
epoch: 1000
next table: 1195
cur table: 1194
epoch: 1000
next table: 1165
cur table: 1165
epoch: 1000
next table: 1197
cur table: 1195
epoch: 1000
next table: 1166
cur table: 1165
epoch: 1000
next table: 1196
cur table: 1197
epoch: 1000
next table: 1161
cur table: 1166
epoch: 1000
next table: 1195
cur table: 1196
epoch: 1000
next table: 1157
cur table: 1161
epoch: 1000
next table: 1187
cur table: 1195
epoch: 1000
next table: 1157
cur table: 1157
epoch: 1000
next table: 1197
cur table: 1187
epoch: 1000
next table: 1156
cur table: 1157
epoch: 1000
next table: 1184
cur table: 1197
epoch: 1000
next table: 1156
cur table: 1156
epoch: 1000
next table: 1189
cur table: 1184
epoch: 1000
next table: 1161
cur table: 1156
epoch: 1000
next table: 1182
cur table: 1189
epoch: 1000
next table: 1158
cur table: 1161
epoch: 1000
next table: 1187
cur table: 1182
epoch: 1000
next table: 1158
cur table: 1158
epoch: 1000
next table: 1185
cur table: 1187
epoch: 1000
next table: 1154
cur table: 1158
epoch: 1000
next table: 1189
cur table: 1185
epoch: 1000
next table: 1157
cur table: 1154
epoch: 1000
next table: 1186
cur table: 1189
epoch: 1000
next table: 1156
cur table: 1157
epoch: 1000
next table: 1189
cur table: 1186
epoch: 1000
next table: 1155
cur table: 1156
epoch: 1000
next table: 1186
cur table: 1189
epoch: 1000
next table: 1156
cur table: 1155
epoch: 1000
next table: 1189
cur table: 1186
epoch: 1000
next table: 1159
cur table: 1156
epoch: 1000
next table: 1185
cur table: 1189
epoch: 1000
next table: 1158
cur table: 1159
epoch: 1000
next table: 1190
cur table: 1185
epoch: 1000
next table: 1158
cur table: 1158
epoch: 1000
next table: 1184
cur table: 1190
epoch: 1000
next table: 1157
cur table: 1158
epoch: 1000
next table: 1187
cur table: 1184
epoch: 1000
next table: 1157
cur table: 1157
epoch: 1000
next table: 1186
cur table: 1187
epoch: 1000
next table: 1156
cur table: 1157
epoch: 1000
next table: 1190
cur table: 1186
epoch: 1000
next table: 1156
cur table: 1156
epoch: 1000
next table: 1193
cur table: 1190
epoch: 1000
next table: 1158
cur table: 1156
epoch: 1000
next table: 1192
cur table: 1193
epoch: 1000
next table: 1161
cur table: 1158
epoch: 1000
next table: 1182
cur table: 1192
epoch: 1000
next table: 1157
cur table: 1161
epoch: 1000
next table: 1191
cur table: 1182
epoch: 1000
next table: 1155
cur table: 1157
epoch: 1000
next table: 1185
cur table: 1191
epoch: 1000
next table: 1159
cur table: 1155
epoch: 1000
next table: 1188
cur table: 1185
epoch: 1000
next table: 1159
cur table: 1159
epoch: 1000
next table: 1185
cur table: 1188
epoch: 1000
next table: 1160
cur table: 1159
epoch: 1000
next table: 1189
cur table: 1185
epoch: 1000
next table: 1155
cur table: 1160
epoch: 1000
next table: 1183
cur table: 1189
epoch: 1000
next table: 1157
cur table: 1155
epoch: 1000
next table: 1185
cur table: 1183
epoch: 1000
next table: 1157
cur table: 1157
epoch: 1000
next table: 1181
cur table: 1185
epoch: 1000
next table: 1156
cur table: 1157
epoch: 1000
next table: 1190
cur table: 1181
epoch: 1000
next table: 1156
cur table: 1156
epoch: 1000
next table: 1185
cur table: 1190
epoch: 1000
next table: 1158
cur table: 1156
epoch: 1000
next table: 1192
cur table: 1185
epoch: 1000
next table: 1160
cur table: 1158
epoch: 1000
next table: 1183
cur table: 1192
epoch: 1000
next table: 1157
cur table: 1160
epoch: 1000
next table: 1196
cur table: 1183
epoch: 1000
next table: 1158
cur table: 1157
epoch: 1000
next table: 1193
cur table: 1196
epoch: 1000
next table: 1159
cur table: 1158
epoch: 1000
next table: 1202
cur table: 1193
epoch: 1000
next table: 1164
cur table: 1159
epoch: 1000
next table: 1194
cur table: 1202
epoch: 1000
next table: 1162
cur table: 1164
epoch: 1000
next table: 1196
cur table: 1194
epoch: 1000
next table: 1170
cur table: 1162
epoch: 1000
next table: 1197
cur table: 1196
epoch: 1000
next table: 1165
cur table: 1170
epoch: 1000
next table: 1197
cur table: 1197
epoch: 1000
next table: 1164
cur table: 1165
epoch: 1000
next table: 1190
cur table: 1197
epoch: 1000
next table: 1160
cur table: 1164
epoch: 1000
next table: 1197
cur table: 1190
epoch: 1000
next table: 1157
cur table: 1160
epoch: 1000
next table: 1193
cur table: 1197
epoch: 1000
next table: 1157
cur table: 1157
epoch: 1000
next table: 1189
cur table: 1193
epoch: 1000
next table: 1157
cur table: 1157
epoch: 1000
next table: 1188
cur table: 1189
epoch: 1000
next table: 1157
cur table: 1157
epoch: 1000
next table: 1191
cur table: 1188
epoch: 1000
next table: 1160
cur table: 1157
epoch: 1000
next table: 1191
cur table: 1191
epoch: 1000
next table: 1160
cur table: 1160
epoch: 1000
next table: 1192
cur table: 1191
epoch: 1000
next table: 1158
cur table: 1160
epoch: 1000
next table: 1188
cur table: 1192
epoch: 1000
next table: 1157
cur table: 1158
epoch: 1000
next table: 1183
cur table: 1188
epoch: 1000
next table: 1153
cur table: 1157
epoch: 1000
next table: 1191
cur table: 1183
epoch: 1000
next table: 1160
cur table: 1153
epoch: 1000
next table: 1188
cur table: 1191
epoch: 1000
next table: 1154
cur table: 1160
epoch: 1000
next table: 1192
cur table: 1188
epoch: 1000
next table: 1160
cur table: 1154
epoch: 1000
next table: 1184
cur table: 1192
epoch: 1000
next table: 1157
cur table: 1160
epoch: 1000
next table: 1189
cur table: 1184
epoch: 1000
next table: 1156
cur table: 1157
epoch: 1000
next table: 1187
cur table: 1189
epoch: 1000
next table: 1156
cur table: 1156
epoch: 1000
next table: 1188
cur table: 1187
epoch: 1000
next table: 1159
cur table: 1156
epoch: 1000
next table: 1186
cur table: 1188
epoch: 1000
next table: 1159
cur table: 1159
epoch: 1000
next table: 1190
cur table: 1186
epoch: 1000
next table: 1157
cur table: 1159
epoch: 1000
next table: 1187
cur table: 1190
epoch: 1000
next table: 1156
cur table: 1157
epoch: 1000
next table: 1187
cur table: 1187
epoch: 1000
next table: 1156
cur table: 1156
epoch: 1000
next table: 1187
cur table: 1187
epoch: 1000
next table: 1157
cur table: 1156
epoch: 1000
next table: 1192
cur table: 1187
epoch: 1000
next table: 1157
cur table: 1157
epoch: 1000
next table: 1182
cur table: 1192
epoch: 1000
next table: 1156
cur table: 1157
epoch: 1000
next table: 1190
cur table: 1182
epoch: 1000
next table: 1159
cur table: 1156
epoch: 1000
next table: 1182
cur table: 1190
epoch: 1000
next table: 1159
cur table: 1159
epoch: 1000
next table: 1187
cur table: 1182
epoch: 1000
next table: 1159
cur table: 1159
epoch: 1000
next table: 1183
cur table: 1187
epoch: 1000
next table: 1157
cur table: 1159
epoch: 1000
next table: 1185
cur table: 1183
epoch: 1000
next table: 1154
cur table: 1157
epoch: 1000
next table: 1181
cur table: 1185
epoch: 1000
next table: 1160
cur table: 1154
epoch: 1000
next table: 1186
cur table: 1181
epoch: 1000
next table: 1158
cur table: 1160
epoch: 1000
next table: 1186
cur table: 1186
epoch: 1000
next table: 1155
cur table: 1158
epoch: 1000
next table: 1185
cur table: 1186
epoch: 1000
next table: 1161
cur table: 1155
epoch: 1000
next table: 1182
cur table: 1185
epoch: 1000
next table: 1167
cur table: 1161
epoch: 1000
next table: 1187
cur table: 1182
epoch: 1000
next table: 1167
cur table: 1167
epoch: 1000
next table: 1186
cur table: 1187
epoch: 1000
next table: 1165
cur table: 1167
epoch: 1000
next table: 1194
cur table: 1186
epoch: 1000
next table: 1167
cur table: 1165
epoch: 1000
next table: 1193
cur table: 1194
epoch: 1000
next table: 1175
cur table: 1167
epoch: 1000
next table: 1198
cur table: 1193
epoch: 1000
next table: 1179
cur table: 1175
epoch: 1000
next table: 1213
cur table: 1198
epoch: 1000
next table: 1188
cur table: 1179
epoch: 1000
next table: 1195
cur table: 1213
epoch: 1000
next table: 1193
cur table: 1195
epoch: 1000
next table: 1176
cur table: 1188
epoch: 1000
next table: 1186
cur table: 1193
epoch: 1000
next table: 1175
cur table: 1176
epoch: 1000
next table: 1188
cur table: 1186
epoch: 1000
next table: 1169
cur table: 1175
epoch: 1000
next table: 1188
cur table: 1188
epoch: 1000
next table: 1155
cur table: 1169
epoch: 1000
next table: 1186
cur table: 1188
epoch: 1000
next table: 1164
cur table: 1155
epoch: 1000
next table: 1189
cur table: 1186
epoch: 1000
next table: 1155
cur table: 1164
epoch: 1000
next table: 1187
cur table: 1189
epoch: 1000
next table: 1158
cur table: 1155
epoch: 1000
next table: 1192
cur table: 1187
epoch: 1000
next table: 1155
cur table: 1158
epoch: 1000
next table: 1190
cur table: 1192
epoch: 1000
next table: 1158
cur table: 1155
epoch: 1000
next table: 1195
cur table: 1190
epoch: 1000
next table: 1156
cur table: 1158
epoch: 1000
next table: 1183
cur table: 1195
epoch: 1000
next table: 1158
cur table: 1156
epoch: 1000
next table: 1189
cur table: 1183
epoch: 1000
next table: 1156
cur table: 1158
epoch: 1000
next table: 1186
cur table: 1189
epoch: 1000
next table: 1157
cur table: 1156
epoch: 1000
next table: 1189
cur table: 1186
epoch: 1000
next table: 1157
cur table: 1157
epoch: 1000
next table: 1185
cur table: 1189
epoch: 1000
next table: 1158
cur table: 1157
epoch: 1000
next table: 1187
cur table: 1185
epoch: 1000
next table: 1158
cur table: 1158
epoch: 1000
next table: 1184
cur table: 1187
epoch: 1000
next table: 1158
cur table: 1158
epoch: 1000
next table: 1186
cur table: 1184
epoch: 1000
next table: 1157
cur table: 1158
epoch: 1000
next table: 1184
cur table: 1186
epoch: 1000
next table: 1158
cur table: 1157
epoch: 1000
next table: 1184
cur table: 1184
epoch: 1000
next table: 1161
cur table: 1158
epoch: 1000
next table: 1184
cur table: 1184
epoch: 1000
next table: 1157
cur table: 1161
epoch: 1000
next table: 1192
cur table: 1184
epoch: 1000
next table: 1155
cur table: 1157
epoch: 1000
next table: 1180
cur table: 1192
epoch: 1000
next table: 1162
cur table: 1155
epoch: 1000
next table: 1195
cur table: 1180
epoch: 1000
next table: 1157
cur table: 1162
epoch: 1000
next table: 1189
cur table: 1195
epoch: 1000
next table: 1157
cur table: 1157
epoch: 1000
next table: 1183
cur table: 1189
epoch: 1000
next table: 1156
cur table: 1157
epoch: 1000
next table: 1187
cur table: 1183
epoch: 1000
next table: 1160
cur table: 1156
epoch: 1000
next table: 1185
cur table: 1187
Heartbeat CPU 0 instructions: 10000001 cycles: 3756004 heartbeat IPC: 2.6624 cumulative IPC: 2.6624 (Simulation time: 0 hr 10 min 6 sec) 
epoch: 1000
next table: 1157
cur table: 1160
epoch: 1000
next table: 1189
cur table: 1185
epoch: 1000
next table: 1156
cur table: 1157
epoch: 1000
next table: 1182
cur table: 1189
epoch: 1000
next table: 1155
cur table: 1156
epoch: 1000
next table: 1185
cur table: 1182
epoch: 1000
next table: 1159
cur table: 1155
epoch: 1000
next table: 1185
cur table: 1185
epoch: 1000
next table: 1158
cur table: 1159
epoch: 1000
next table: 1193
cur table: 1185
epoch: 1000
next table: 1159
cur table: 1158
epoch: 1000
next table: 1185
cur table: 1193
epoch: 1000
next table: 1156
cur table: 1159
epoch: 1000
next table: 1187
cur table: 1185
epoch: 1000
next table: 1158
cur table: 1156
epoch: 1000
next table: 1183
cur table: 1187
epoch: 1000
next table: 1161
cur table: 1158
epoch: 1000
next table: 1190
cur table: 1183
epoch: 1000
next table: 1161
cur table: 1161
epoch: 1000
next table: 1188
cur table: 1190
epoch: 1000
next table: 1159
cur table: 1161
epoch: 1000
next table: 1195
cur table: 1188
epoch: 1000
next table: 1162
cur table: 1159
epoch: 1000
next table: 1192
cur table: 1195
epoch: 1000
next table: 1164
cur table: 1162
epoch: 1000
next table: 1202
cur table: 1192
epoch: 1000
next table: 1163
cur table: 1164
epoch: 1000
next table: 1199
cur table: 1202
epoch: 1000
next table: 1169
cur table: 1163
epoch: 1000
next table: 1209
cur table: 1199
epoch: 1000
next table: 1166
cur table: 1169
epoch: 1000
next table: 1186
cur table: 1209
epoch: 1000
next table: 1161
cur table: 1166
epoch: 1000
next table: 1190
cur table: 1186
epoch: 1000
next table: 1157
cur table: 1161
epoch: 1000
next table: 1190
cur table: 1190
epoch: 1000
next table: 1162
cur table: 1157
epoch: 1000
next table: 1187
cur table: 1190
epoch: 1000
next table: 1157
cur table: 1162
epoch: 1000
next table: 1186
cur table: 1187
epoch: 1000
next table: 1154
cur table: 1157
epoch: 1000
next table: 1191
cur table: 1186
epoch: 1000
next table: 1155
cur table: 1154
epoch: 1000
next table: 1185
cur table: 1191
epoch: 1000
next table: 1159
cur table: 1155
epoch: 1000
next table: 1190
cur table: 1185
epoch: 1000
next table: 1157
cur table: 1159
epoch: 1000
next table: 1186
cur table: 1190
epoch: 1000
next table: 1158
cur table: 1157
epoch: 1000
next table: 1187
cur table: 1186
epoch: 1000
next table: 1156
cur table: 1158
epoch: 1000
next table: 1188
cur table: 1187
epoch: 1000
next table: 1156
cur table: 1156
epoch: 1000
next table: 1188
cur table: 1188
epoch: 1000
next table: 1157
cur table: 1156
epoch: 1000
next table: 1188
cur table: 1188
epoch: 1000
next table: 1158
cur table: 1157
epoch: 1000
next table: 1191
cur table: 1188
epoch: 1000
next table: 1155
cur table: 1158
epoch: 1000
next table: 1190
cur table: 1191
epoch: 1000
next table: 1159
cur table: 1155
epoch: 1000
next table: 1189
cur table: 1190
epoch: 1000
next table: 1156
cur table: 1159
epoch: 1000
next table: 1181
cur table: 1189
epoch: 1000
next table: 1158
cur table: 1156
epoch: 1000
next table: 1187
cur table: 1181
epoch: 1000
next table: 1155
cur table: 1158
epoch: 1000
next table: 1182
cur table: 1187
epoch: 1000
next table: 1157
cur table: 1155
epoch: 1000
next table: 1188
cur table: 1182
epoch: 1000
next table: 1161
cur table: 1157
epoch: 1000
next table: 1184
cur table: 1188
epoch: 1000
next table: 1154
cur table: 1161
epoch: 1000
next table: 1185
cur table: 1184
epoch: 1000
next table: 1157
cur table: 1154
epoch: 1000
next table: 1185
cur table: 1185
epoch: 1000
next table: 1157
cur table: 1157
epoch: 1000
next table: 1185
cur table: 1185
epoch: 1000
next table: 1153
cur table: 1157
epoch: 1000
next table: 1184
cur table: 1185
epoch: 1000
next table: 1156
cur table: 1153
epoch: 1000
next table: 1188
cur table: 1184
epoch: 1000
next table: 1157
cur table: 1156
epoch: 1000
next table: 1184
cur table: 1188
epoch: 1000
next table: 1158
cur table: 1157
epoch: 1000
next table: 1184
cur table: 1184
epoch: 1000
next table: 1158
cur table: 1158
epoch: 1000
next table: 1184
cur table: 1184
epoch: 1000
next table: 1157
cur table: 1158
epoch: 1000
next table: 1185
cur table: 1184
epoch: 1000
next table: 1155
cur table: 1157
epoch: 1000
next table: 1185
cur table: 1185
epoch: 1000
next table: 1155
cur table: 1155
epoch: 1000
next table: 1183
cur table: 1185
epoch: 1000
next table: 1156
cur table: 1155
epoch: 1000
next table: 1188
cur table: 1183
epoch: 1000
next table: 1158
cur table: 1156
epoch: 1000
next table: 1188
cur table: 1188
epoch: 1000
next table: 1157
cur table: 1158
epoch: 1000
next table: 1196
cur table: 1188
epoch: 1000
next table: 1162
cur table: 1157
epoch: 1000
next table: 1185
cur table: 1196
epoch: 1000
next table: 1163
cur table: 1162
epoch: 1000
next table: 1200
cur table: 1185
epoch: 1000
next table: 1166
cur table: 1163
epoch: 1000
next table: 1193
cur table: 1200
epoch: 1000
next table: 1161
cur table: 1166
epoch: 1000
next table: 1195
cur table: 1193
epoch: 1000
next table: 1160
cur table: 1161
epoch: 1000
next table: 1195
cur table: 1195
epoch: 1000
next table: 1164
cur table: 1160
epoch: 1000
next table: 1197
cur table: 1195
epoch: 1000
next table: 1167
cur table: 1164
epoch: 1000
next table: 1192
cur table: 1197
epoch: 1000
next table: 1165
cur table: 1167
epoch: 1000
next table: 1199
cur table: 1192
epoch: 1000
next table: 1162
cur table: 1165
epoch: 1000
next table: 1189
cur table: 1199
epoch: 1000
next table: 1155
cur table: 1162
epoch: 1000
next table: 1192
cur table: 1189
epoch: 1000
next table: 1160
cur table: 1155
epoch: 1000
next table: 1185
cur table: 1192
epoch: 1000
next table: 1158
cur table: 1160
epoch: 1000
next table: 1190
cur table: 1185
epoch: 1000
next table: 1158
cur table: 1158
epoch: 1000
next table: 1184
cur table: 1190
epoch: 1000
next table: 1156
cur table: 1158
epoch: 1000
next table: 1190
cur table: 1184
epoch: 1000
next table: 1157
cur table: 1156
epoch: 1000
next table: 1184
cur table: 1190
epoch: 1000
next table: 1155
cur table: 1157
epoch: 1000
next table: 1194
cur table: 1184
epoch: 1000
next table: 1158
cur table: 1155
epoch: 1000
next table: 1190
cur table: 1194
epoch: 1000
next table: 1158
cur table: 1158
epoch: 1000
next table: 1185
cur table: 1190
epoch: 1000
next table: 1153
cur table: 1158
epoch: 1000
next table: 1187
cur table: 1185
epoch: 1000
next table: 1156
cur table: 1153
epoch: 1000
next table: 1185
cur table: 1187
epoch: 1000
next table: 1155
cur table: 1156
epoch: 1000
next table: 1187
cur table: 1185
epoch: 1000
next table: 1155
cur table: 1155
epoch: 1000
next table: 1185
cur table: 1187
epoch: 1000
next table: 1156
cur table: 1155
epoch: 1000
next table: 1183
cur table: 1185
epoch: 1000
next table: 1156
cur table: 1156
epoch: 1000
next table: 1186
cur table: 1183
epoch: 1000
next table: 1156
cur table: 1156
epoch: 1000
next table: 1182
cur table: 1186
epoch: 1000
next table: 1158
cur table: 1156
epoch: 1000
next table: 1186
cur table: 1182
epoch: 1000
next table: 1155
cur table: 1158
epoch: 1000
next table: 1184
cur table: 1186
epoch: 1000
next table: 1159
cur table: 1155
epoch: 1000
next table: 1190
cur table: 1184
epoch: 1000
next table: 1155
cur table: 1159
epoch: 1000
next table: 1184
cur table: 1190
epoch: 1000
next table: 1159
cur table: 1155
epoch: 1000
next table: 1191
cur table: 1184
epoch: 1000
next table: 1159
cur table: 1159
epoch: 1000
next table: 1185
cur table: 1191
epoch: 1000
next table: 1160
cur table: 1159
epoch: 1000
next table: 1196
cur table: 1185
epoch: 1000
next table: 1154
cur table: 1160
epoch: 1000
next table: 1185
cur table: 1196
epoch: 1000
next table: 1158
cur table: 1154
epoch: 1000
next table: 1187
cur table: 1185
epoch: 1000
next table: 1157
cur table: 1158
epoch: 1000
next table: 1185
cur table: 1187
epoch: 1000
next table: 1157
cur table: 1157
epoch: 1000
next table: 1186
cur table: 1185
epoch: 1000
next table: 1155
cur table: 1157
epoch: 1000
next table: 1182
cur table: 1186
epoch: 1000
next table: 1156
cur table: 1155
epoch: 1000
next table: 1187
cur table: 1182
epoch: 1000
next table: 1157
cur table: 1156
epoch: 1000
next table: 1186
cur table: 1187
epoch: 1000
next table: 1163
cur table: 1157
epoch: 1000
next table: 1187
cur table: 1186
epoch: 1000
next table: 1156
cur table: 1163
epoch: 1000
next table: 1185
cur table: 1187
epoch: 1000
next table: 1156
cur table: 1156
epoch: 1000
next table: 1185
cur table: 1185
epoch: 1000
next table: 1158
cur table: 1156
epoch: 1000
next table: 1185
cur table: 1185
epoch: 1000
next table: 1160
cur table: 1158
epoch: 1000
next table: 1193
cur table: 1185
epoch: 1000
next table: 1159
cur table: 1160
epoch: 1000
next table: 1196
cur table: 1193
epoch: 1000
next table: 1169
cur table: 1159
epoch: 1000
next table: 1200
cur table: 1196
epoch: 1000
next table: 1166
cur table: 1169
epoch: 1000
next table: 1213
cur table: 1200
epoch: 1000
next table: 1164
cur table: 1166
epoch: 1000
next table: 1195
cur table: 1213
epoch: 1000
next table: 1164
cur table: 1164
epoch: 1000
next table: 1187
cur table: 1195
epoch: 1000
next table: 1284
cur table: 1164
epoch: 1000
next table: 1451
cur table: 1187
epoch: 1000
next table: 1507
cur table: 1284
epoch: 1000
next table: 1531
cur table: 1451
epoch: 1000
next table: 1511
cur table: 1507
epoch: 1000
next table: 1532
cur table: 1531
epoch: 1000
next table: 1512
cur table: 1511
epoch: 1000
next table: 1524
cur table: 1532
epoch: 1000
next table: 1514
cur table: 1512
epoch: 1000
next table: 1531
cur table: 1524
epoch: 1000
next table: 1509
cur table: 1514
epoch: 1000
next table: 1529
cur table: 1531
epoch: 1000
next table: 1511
cur table: 1509
epoch: 1000
next table: 1536
cur table: 1529
epoch: 1000
next table: 1512
cur table: 1511
epoch: 1000
next table: 1523
cur table: 1536
epoch: 1000
next table: 1511
cur table: 1512
epoch: 1000
next table: 1529
cur table: 1523
epoch: 1000
next table: 1511
cur table: 1511
epoch: 1000
next table: 1531
cur table: 1529
epoch: 1000
next table: 1510
cur table: 1511
epoch: 1000
next table: 1532
cur table: 1531
epoch: 1000
next table: 1512
cur table: 1510
epoch: 1000
next table: 1524
cur table: 1532
epoch: 1000
next table: 1511
cur table: 1512
epoch: 1000
next table: 1530
cur table: 1524
epoch: 1000
next table: 1512
cur table: 1511
epoch: 1000
next table: 1531
cur table: 1530
epoch: 1000
next table: 1510
cur table: 1512
epoch: 1000
next table: 1531
cur table: 1531
epoch: 1000
next table: 1512
cur table: 1510
epoch: 1000
next table: 1526
cur table: 1531
epoch: 1000
next table: 1511
cur table: 1512
epoch: 1000
next table: 1531
cur table: 1526
epoch: 1000
next table: 1514
cur table: 1511
epoch: 1000
next table: 1529
cur table: 1531
epoch: 1000
next table: 1508
cur table: 1514
epoch: 1000
next table: 1531
cur table: 1529
epoch: 1000
next table: 1511
cur table: 1508
epoch: 1000
next table: 1528
cur table: 1531
epoch: 1000
next table: 1513
cur table: 1511
epoch: 1000
next table: 1528
cur table: 1528
epoch: 1000
next table: 1516
cur table: 1513
epoch: 1000
next table: 1530
cur table: 1528
epoch: 1000
next table: 1505
cur table: 1516
epoch: 1000
next table: 1530
cur table: 1530
epoch: 1000
next table: 1511
cur table: 1505
epoch: 1000
next table: 1529
cur table: 1530
epoch: 1000
next table: 1512
cur table: 1511
epoch: 1000
next table: 1528
cur table: 1529
epoch: 1000
next table: 1515
cur table: 1512
epoch: 1000
next table: 1531
cur table: 1528
epoch: 1000
next table: 1506
cur table: 1515
epoch: 1000
next table: 1530
cur table: 1531
epoch: 1000
next table: 1512
cur table: 1506
epoch: 1000
next table: 1532
cur table: 1530
epoch: 1000
next table: 1511
cur table: 1512
epoch: 1000
next table: 1526
cur table: 1532
epoch: 1000
next table: 1513
cur table: 1511
epoch: 1000
next table: 1529
cur table: 1526
epoch: 1000
next table: 1509
cur table: 1513
epoch: 1000
next table: 1531
cur table: 1529
epoch: 1000
next table: 1511
cur table: 1509
epoch: 1000
next table: 1534
cur table: 1531
epoch: 1000
next table: 1512
cur table: 1511
epoch: 1000
next table: 1523
cur table: 1534
epoch: 1000
next table: 1511
cur table: 1512
epoch: 1000
next table: 1529
cur table: 1523
epoch: 1000
next table: 1510
cur table: 1511
epoch: 1000
next table: 1531
cur table: 1529
epoch: 1000
next table: 1511
cur table: 1510
epoch: 1000
next table: 1533
cur table: 1531
epoch: 1000
next table: 1512
cur table: 1511
epoch: 1000
next table: 1524
cur table: 1533
epoch: 1000
next table: 1512
cur table: 1512
epoch: 1000
next table: 1530
cur table: 1524
epoch: 1000
next table: 1512
cur table: 1512
epoch: 1000
next table: 1530
cur table: 1530
epoch: 1000
next table: 1510
cur table: 1512
epoch: 1000
next table: 1533
cur table: 1530
epoch: 1000
next table: 1511
cur table: 1510
epoch: 1000
next table: 1525
cur table: 1533
epoch: 1000
next table: 1512
cur table: 1511
epoch: 1000
next table: 1530
cur table: 1525
epoch: 1000
next table: 1514
cur table: 1512
epoch: 1000
next table: 1530
cur table: 1530
epoch: 1000
next table: 1508
cur table: 1514
epoch: 1000
next table: 1531
cur table: 1530
epoch: 1000
next table: 1511
cur table: 1508
epoch: 1000
next table: 1526
cur table: 1531
epoch: 1000
next table: 1512
cur table: 1511
epoch: 1000
next table: 1530
cur table: 1526
epoch: 1000
next table: 1516
cur table: 1512
epoch: 1000
next table: 1530
cur table: 1530
epoch: 1000
next table: 1505
cur table: 1516
epoch: 1000
next table: 1530
cur table: 1530
epoch: 1000
next table: 1511
cur table: 1505
epoch: 1000
next table: 1529
cur table: 1530
epoch: 1000
next table: 1512
cur table: 1511
epoch: 1000
next table: 1529
cur table: 1529
epoch: 1000
next table: 1515
cur table: 1512
epoch: 1000
next table: 1529
cur table: 1529
epoch: 1000
next table: 1507
cur table: 1515
epoch: 1000
next table: 1531
cur table: 1529
epoch: 1000
next table: 1511
cur table: 1507
epoch: 1000
next table: 1531
cur table: 1531
epoch: 1000
next table: 1512
cur table: 1511
epoch: 1000
next table: 1526
cur table: 1531
epoch: 1000
next table: 1515
cur table: 1512
epoch: 1000
next table: 1530
cur table: 1526
epoch: 1000
next table: 1507
cur table: 1515
epoch: 1000
next table: 1530
cur table: 1530
epoch: 1000
next table: 1511
cur table: 1507
epoch: 1000
next table: 1533
cur table: 1530
epoch: 1000
next table: 1512
cur table: 1511
epoch: 1000
next table: 1523
cur table: 1533
epoch: 1000
next table: 1511
cur table: 1512
epoch: 1000
next table: 1531
cur table: 1523
epoch: 1000
next table: 1510
cur table: 1511
epoch: 1000
next table: 1530
cur table: 1531
epoch: 1000
next table: 1511
cur table: 1510
epoch: 1000
next table: 1535
cur table: 1530
epoch: 1000
next table: 1511
cur table: 1511
epoch: 1000
next table: 1523
cur table: 1535
epoch: 1000
next table: 1512
cur table: 1511
epoch: 1000
next table: 1529
cur table: 1523
epoch: 1000
next table: 1511
cur table: 1512
epoch: 1000
next table: 1531
cur table: 1529
epoch: 1000
next table: 1511
cur table: 1511
epoch: 1000
next table: 1533
cur table: 1531
epoch: 1000
next table: 1511
cur table: 1511
epoch: 1000
next table: 1524
cur table: 1533
epoch: 1000
next table: 1512
cur table: 1511
epoch: 1000
next table: 1530
cur table: 1524
epoch: 1000
next table: 1512
cur table: 1512
epoch: 1000
next table: 1529
cur table: 1530
epoch: 1000
next table: 1511
cur table: 1512
epoch: 1000
next table: 1533
cur table: 1529
epoch: 1000
next table: 1512
cur table: 1511
epoch: 1000
next table: 1525
cur table: 1533
epoch: 1000
next table: 1511
cur table: 1512
epoch: 1000
next table: 1530
cur table: 1525
epoch: 1000
next table: 1511
cur table: 1511
epoch: 1000
next table: 1530
cur table: 1530
epoch: 1000
next table: 1511
cur table: 1511
epoch: 1000
next table: 1534
cur table: 1530
epoch: 1000
next table: 1511
cur table: 1511
epoch: 1000
next table: 1524
cur table: 1534
epoch: 1000
next table: 1519
cur table: 1511
epoch: 1000
next table: 1529
cur table: 1524
epoch: 1000
next table: 1514
cur table: 1519
epoch: 1000
next table: 1531
cur table: 1529
epoch: 1000
next table: 1508
cur table: 1514
epoch: 1000
next table: 1533
cur table: 1531
epoch: 1000
next table: 1512
cur table: 1508
epoch: 1000
next table: 1523
cur table: 1533
epoch: 1000
next table: 1511
cur table: 1512
epoch: 1000
next table: 1531
cur table: 1523
epoch: 1000
next table: 1513
cur table: 1511
epoch: 1000
next table: 1530
cur table: 1531
epoch: 1000
next table: 1509
cur table: 1513
epoch: 1000
next table: 1531
cur table: 1530
epoch: 1000
next table: 1511
cur table: 1509
epoch: 1000
next table: 1526
cur table: 1531
epoch: 1000
next table: 1512
cur table: 1511
epoch: 1000
next table: 1531
cur table: 1526
epoch: 1000
next table: 1512
cur table: 1512
epoch: 1000
next table: 1528
cur table: 1531
epoch: 1000
next table: 1511
cur table: 1512
epoch: 1000
next table: 1531
cur table: 1528
epoch: 1000
next table: 1512
cur table: 1511
epoch: 1000
next table: 1528
cur table: 1531
epoch: 1000
next table: 1510
cur table: 1512
epoch: 1000
next table: 1529
cur table: 1528
epoch: 1000
next table: 1512
cur table: 1510
epoch: 1000
next table: 1531
cur table: 1529
epoch: 1000
next table: 1513
cur table: 1512
epoch: 1000
next table: 1529
cur table: 1531
epoch: 1000
next table: 1508
cur table: 1513
epoch: 1000
next table: 1529
cur table: 1529
epoch: 1000
next table: 1512
cur table: 1508
epoch: 1000
next table: 1529
cur table: 1529
epoch: 1000
next table: 1512
cur table: 1512
epoch: 1000
next table: 1531
cur table: 1529
epoch: 1000
next table: 1516
cur table: 1512
epoch: 1000
next table: 1530
cur table: 1531
epoch: 1000
next table: 1506
cur table: 1516
epoch: 1000
next table: 1532
cur table: 1530
epoch: 1000
next table: 1511
cur table: 1506
epoch: 1000
next table: 1526
cur table: 1532
epoch: 1000
next table: 1511
cur table: 1511
epoch: 1000
next table: 1529
cur table: 1526
epoch: 1000
next table: 1516
cur table: 1511
epoch: 1000
next table: 1530
cur table: 1529
epoch: 1000
next table: 1506
cur table: 1516
epoch: 1000
next table: 1536
cur table: 1530
epoch: 1000
next table: 1511
cur table: 1506
epoch: 1000
next table: 1522
cur table: 1536
epoch: 1000
next table: 1512
cur table: 1511
epoch: 1000
next table: 1529
cur table: 1522
epoch: 1000
next table: 1515
cur table: 1512
epoch: 1000
next table: 1530
cur table: 1529
epoch: 1000
next table: 1507
cur table: 1515
epoch: 1000
next table: 1533
cur table: 1530
epoch: 1000
next table: 1512
cur table: 1507
epoch: 1000
next table: 1525
cur table: 1533
epoch: 1000
next table: 1511
cur table: 1512
epoch: 1000
next table: 1530
cur table: 1525
epoch: 1000
next table: 1512
cur table: 1511
epoch: 1000
next table: 1530
cur table: 1530
epoch: 1000
next table: 1510
cur table: 1512
epoch: 1000
next table: 1532
cur table: 1530
epoch: 1000
next table: 1512
cur table: 1510
epoch: 1000
next table: 1526
cur table: 1532
epoch: 1000
next table: 1511
cur table: 1512
epoch: 1000
next table: 1529
cur table: 1526
epoch: 1000
next table: 1511
cur table: 1511
epoch: 1000
next table: 1531
cur table: 1529
epoch: 1000
next table: 1511
cur table: 1511
epoch: 1000
next table: 1530
cur table: 1531
epoch: 1000
next table: 1511
cur table: 1511
epoch: 1000
next table: 1526
cur table: 1530
epoch: 1000
next table: 1511
cur table: 1511
epoch: 1000
next table: 1531
cur table: 1526
epoch: 1000
next table: 1512
cur table: 1511
epoch: 1000
next table: 1530
cur table: 1531
epoch: 1000
next table: 1513
cur table: 1512
epoch: 1000
next table: 1530
cur table: 1530
epoch: 1000
next table: 1508
cur table: 1513
epoch: 1000
next table: 1529
cur table: 1530
epoch: 1000
next table: 1512
cur table: 1508
epoch: 1000
next table: 1529
cur table: 1529
epoch: 1000
next table: 1512
cur table: 1512
epoch: 1000
next table: 1529
cur table: 1529
epoch: 1000
next table: 1516
cur table: 1512
epoch: 1000
next table: 1530
cur table: 1529
epoch: 1000
next table: 1507
cur table: 1516
epoch: 1000
next table: 1531
cur table: 1530
epoch: 1000
next table: 1511
cur table: 1507
epoch: 1000
next table: 1526
cur table: 1531
epoch: 1000
next table: 1511
cur table: 1511
epoch: 1000
next table: 1530
cur table: 1526
epoch: 1000
next table: 1517
cur table: 1511
epoch: 1000
next table: 1530
cur table: 1530
epoch: 1000
next table: 1504
cur table: 1517
epoch: 1000
next table: 1533
cur table: 1530
epoch: 1000
next table: 1512
cur table: 1504
epoch: 1000
next table: 1525
cur table: 1533
epoch: 1000
next table: 1512
cur table: 1512
epoch: 1000
next table: 1531
cur table: 1525
epoch: 1000
next table: 1515
cur table: 1512
epoch: 1000
next table: 1529
cur table: 1531
epoch: 1000
next table: 1507
cur table: 1515
epoch: 1000
next table: 1535
cur table: 1529
epoch: 1000
next table: 1511
cur table: 1507
epoch: 1000
next table: 1523
cur table: 1535
epoch: 1000
next table: 1512
cur table: 1511
epoch: 1000
next table: 1530
cur table: 1523
epoch: 1000
next table: 1512
cur table: 1512
epoch: 1000
next table: 1530
cur table: 1530
epoch: 1000
next table: 1510
cur table: 1512
epoch: 1000
next table: 1533
cur table: 1530
epoch: 1000
next table: 1511
cur table: 1510
epoch: 1000
next table: 1524
cur table: 1533
epoch: 1000
next table: 1512
cur table: 1511
epoch: 1000
next table: 1531
cur table: 1524
epoch: 1000
next table: 1512
cur table: 1512
epoch: 1000
next table: 1547
cur table: 1531
epoch: 1000
next table: 1635
cur table: 1512
epoch: 1000
next table: 1675
cur table: 1547
epoch: 1000
next table: 1397
cur table: 1635
epoch: 1000
next table: 1340
cur table: 1675
epoch: 1000
next table: 1316
cur table: 1397
epoch: 1000
next table: 1341
cur table: 1340
epoch: 1000
next table: 1325
cur table: 1316
epoch: 1000
next table: 1347
cur table: 1341
epoch: 1000
next table: 1317
cur table: 1325
epoch: 1000
next table: 1334
cur table: 1347
epoch: 1000
next table: 1324
cur table: 1317
epoch: 1000
next table: 1345
cur table: 1334
epoch: 1000
next table: 1323
cur table: 1324
epoch: 1000
next table: 1337
cur table: 1345
epoch: 1000
next table: 1317
cur table: 1323
epoch: 1000
next table: 1345
cur table: 1337
epoch: 1000
next table: 1324
cur table: 1317
epoch: 1000
next table: 1337
cur table: 1345
epoch: 1000
next table: 1317
cur table: 1324
epoch: 1000
next table: 1344
cur table: 1337
epoch: 1000
next table: 1326
cur table: 1317
epoch: 1000
next table: 1343
cur table: 1344
epoch: 1000
next table: 1317
cur table: 1326
epoch: 1000
next table: 1338
cur table: 1343
epoch: 1000
next table: 1326
cur table: 1317
epoch: 1000
next table: 1341
cur table: 1338
epoch: 1000
next table: 1324
cur table: 1326
epoch: 1000
next table: 1342
cur table: 1341
epoch: 1000
next table: 1318
cur table: 1324
epoch: 1000
next table: 1340
cur table: 1342
epoch: 1000
next table: 1322
cur table: 1318
epoch: 1000
next table: 1345
cur table: 1340
epoch: 1000
next table: 1328
cur table: 1322
epoch: 1000
next table: 1347
cur table: 1345
epoch: 1000
next table: 1336
cur table: 1328
epoch: 1000
next table: 1363
cur table: 1347
epoch: 1000
next table: 1348
cur table: 1336
epoch: 1000
next table: 1372
cur table: 1363
epoch: 1000
next table: 1341
cur table: 1348
epoch: 1000
next table: 1351
cur table: 1372
epoch: 1000
next table: 1329
cur table: 1341
epoch: 1000
next table: 1348
cur table: 1351
epoch: 1000
next table: 1317
cur table: 1329
epoch: 1000
next table: 1333
cur table: 1348
epoch: 1000
next table: 1324
cur table: 1317
epoch: 1000
next table: 1345
cur table: 1333
epoch: 1000
next table: 1320
cur table: 1324
epoch: 1000
next table: 1336
cur table: 1345
epoch: 1000
next table: 1320
cur table: 1320
epoch: 1000
next table: 1345
cur table: 1336
epoch: 1000
next table: 1326
cur table: 1320
epoch: 1000
next table: 1337
cur table: 1345
epoch: 1000
next table: 1316
cur table: 1326
epoch: 1000
next table: 1345
cur table: 1337
epoch: 1000
next table: 1326
cur table: 1316
epoch: 1000
next table: 1344
cur table: 1345
epoch: 1000
next table: 1318
cur table: 1326
epoch: 1000
next table: 1339
cur table: 1344
epoch: 1000
next table: 1325
cur table: 1318
epoch: 1000
next table: 1339
cur table: 1339
epoch: 1000
next table: 1320
cur table: 1325
epoch: 1000
next table: 1339
cur table: 1339
epoch: 1000
next table: 1324
cur table: 1320
epoch: 1000
next table: 1342
cur table: 1339
epoch: 1000
next table: 1322
cur table: 1324
epoch: 1000
next table: 1337
cur table: 1342
epoch: 1000
next table: 1321
cur table: 1322
epoch: 1000
next table: 1345
cur table: 1337
epoch: 1000
next table: 1324
cur table: 1321
epoch: 1000
next table: 1347
cur table: 1345
epoch: 1000
next table: 1335
cur table: 1324
epoch: 1000
next table: 1357
cur table: 1347
epoch: 1000
next table: 1338
cur table: 1335
epoch: 1000
next table: 1363
cur table: 1357
epoch: 1000
next table: 1354
cur table: 1338
epoch: 1000
next table: 1370
cur table: 1363
epoch: 1000
next table: 1334
cur table: 1354
epoch: 1000
next table: 1349
cur table: 1370
epoch: 1000
next table: 1321
cur table: 1334
epoch: 1000
next table: 1344
cur table: 1349
epoch: 1000
next table: 1322
cur table: 1321
epoch: 1000
next table: 1336
cur table: 1344
epoch: 1000
next table: 1321
cur table: 1322
epoch: 1000
next table: 1345
cur table: 1336
epoch: 1000
next table: 1328
cur table: 1321
epoch: 1000
next table: 1337
cur table: 1345
epoch: 1000
next table: 1315
cur table: 1328
epoch: 1000
next table: 1345
cur table: 1337
epoch: 1000
next table: 1326
cur table: 1315
epoch: 1000
next table: 1343
cur table: 1345
epoch: 1000
next table: 1316
cur table: 1326
epoch: 1000
next table: 1336
cur table: 1343
epoch: 1000
next table: 1326
cur table: 1316
epoch: 1000
next table: 1343
cur table: 1336
epoch: 1000
next table: 1320
cur table: 1326
epoch: 1000
next table: 1336
cur table: 1343
epoch: 1000
next table: 1324
cur table: 1320
epoch: 1000
next table: 1346
cur table: 1336
epoch: 1000
next table: 1322
cur table: 1324
epoch: 1000
next table: 1336
cur table: 1346
epoch: 1000
next table: 1321
cur table: 1322
epoch: 1000
next table: 1345
cur table: 1336
epoch: 1000
next table: 1323
cur table: 1321
epoch: 1000
next table: 1342
cur table: 1345
epoch: 1000
next table: 1323
cur table: 1323
epoch: 1000
next table: 1339
cur table: 1342
epoch: 1000
next table: 1323
cur table: 1323
epoch: 1000
next table: 1350
cur table: 1339
epoch: 1000
next table: 1335
cur table: 1323
epoch: 1000
next table: 1363
cur table: 1350
epoch: 1000
next table: 1349
cur table: 1335
epoch: 1000
next table: 1371
cur table: 1363
epoch: 1000
next table: 1348
cur table: 1349
epoch: 1000
next table: 1361
cur table: 1371
epoch: 1000
next table: 1321
cur table: 1348
epoch: 1000
next table: 1333
cur table: 1361
epoch: 1000
next table: 1317
cur table: 1321
epoch: 1000
next table: 1344
cur table: 1333
epoch: 1000
next table: 1330
cur table: 1317
epoch: 1000
next table: 1337
cur table: 1344
epoch: 1000
next table: 1315
cur table: 1330
epoch: 1000
next table: 1347
cur table: 1337
epoch: 1000
next table: 1326
cur table: 1315
epoch: 1000
next table: 1335
cur table: 1347
epoch: 1000
next table: 1316
cur table: 1326
epoch: 1000
next table: 1344
cur table: 1335
epoch: 1000
next table: 1326
cur table: 1316
epoch: 1000
next table: 1345
cur table: 1344
epoch: 1000
next table: 1319
cur table: 1326
epoch: 1000
next table: 1333
cur table: 1345
epoch: 1000
next table: 1325
cur table: 1319
epoch: 1000
next table: 1345
cur table: 1333
epoch: 1000
next table: 1324
cur table: 1325
epoch: 1000
next table: 1337
cur table: 1345
epoch: 1000
next table: 1318
cur table: 1324
epoch: 1000
next table: 1344
cur table: 1337
epoch: 1000
next table: 1322
cur table: 1318
epoch: 1000
next table: 1338
cur table: 1344
epoch: 1000
next table: 1323
cur table: 1322
epoch: 1000
next table: 1343
cur table: 1338
epoch: 1000
next table: 1321
cur table: 1323
epoch: 1000
next table: 1344
cur table: 1343
epoch: 1000
next table: 1326
cur table: 1321
epoch: 1000
next table: 1340
cur table: 1344
epoch: 1000
next table: 1325
cur table: 1326
epoch: 1000
next table: 1353
cur table: 1340
epoch: 1000
next table: 1339
cur table: 1325
epoch: 1000
next table: 1367
cur table: 1353
epoch: 1000
next table: 1353
cur table: 1339
epoch: 1000
next table: 1368
cur table: 1367
epoch: 1000
next table: 1334
cur table: 1353
epoch: 1000
next table: 1350
cur table: 1368
epoch: 1000
next table: 1323
cur table: 1334
epoch: 1000
next table: 1335
cur table: 1350
epoch: 1000
next table: 1319
cur table: 1323
epoch: 1000
next table: 1346
cur table: 1335
epoch: 1000
next table: 1328
cur table: 1319
epoch: 1000
next table: 1334
cur table: 1346
epoch: 1000
next table: 1314
cur table: 1328
epoch: 1000
next table: 1346
cur table: 1334
epoch: 1000
next table: 1325
cur table: 1314
epoch: 1000
next table: 1346
cur table: 1346
epoch: 1000
next table: 1318
cur table: 1325
epoch: 1000
next table: 1333
cur table: 1346
epoch: 1000
next table: 1324
cur table: 1318
epoch: 1000
next table: 1344
cur table: 1333
epoch: 1000
next table: 1318
cur table: 1324
epoch: 1000
next table: 1336
cur table: 1344
epoch: 1000
next table: 1325
cur table: 1318
epoch: 1000
next table: 1340
cur table: 1336
epoch: 1000
next table: 1322
cur table: 1325
epoch: 1000
next table: 1336
cur table: 1340
epoch: 1000
next table: 1318
cur table: 1322
epoch: 1000
next table: 1345
cur table: 1336
epoch: 1000
next table: 1320
cur table: 1318
epoch: 1000
next table: 1340
cur table: 1345
epoch: 1000
next table: 1323
cur table: 1320
epoch: 1000
next table: 1342
cur table: 1340
epoch: 1000
next table: 1318
cur table: 1323
epoch: 1000
next table: 1344
cur table: 1342
epoch: 1000
next table: 1324
cur table: 1318
epoch: 1000
next table: 1343
cur table: 1344
epoch: 1000
next table: 1334
cur table: 1324
epoch: 1000
next table: 1357
cur table: 1343
epoch: 1000
next table: 1344
cur table: 1334
epoch: 1000
next table: 1370
cur table: 1357
epoch: 1000
next table: 1349
cur table: 1344
epoch: 1000
next table: 1363
cur table: 1370
epoch: 1000
next table: 1323
cur table: 1349
epoch: 1000
next table: 1347
cur table: 1363
epoch: 1000
next table: 1324
cur table: 1323
epoch: 1000
next table: 1334
cur table: 1347
epoch: 1000
next table: 1323
cur table: 1324
epoch: 1000
next table: 1345
cur table: 1334
epoch: 1000
next table: 1327
cur table: 1323
epoch: 1000
next table: 1336
cur table: 1345
epoch: 1000
next table: 1313
cur table: 1327
epoch: 1000
next table: 1346
cur table: 1336
epoch: 1000
next table: 1325
cur table: 1313
epoch: 1000
next table: 1340
cur table: 1346
epoch: 1000
next table: 1317
cur table: 1325
epoch: 1000
next table: 1340
cur table: 1340
epoch: 1000
next table: 1326
cur table: 1317
epoch: 1000
next table: 1343
cur table: 1340
epoch: 1000
next table: 1316
cur table: 1326
epoch: 1000
next table: 1336
cur table: 1343
epoch: 1000
next table: 1324
cur table: 1316
epoch: 1000
next table: 1344
cur table: 1336
epoch: 1000
next table: 1326
cur table: 1324
epoch: 1000
next table: 1336
cur table: 1344
epoch: 1000
next table: 1320
cur table: 1326
epoch: 1000
next table: 1345
cur table: 1336
epoch: 1000
next table: 1319
cur table: 1320
epoch: 1000
next table: 1343
cur table: 1345
epoch: 1000
next table: 1322
cur table: 1319
epoch: 1000
next table: 1338
cur table: 1343
epoch: 1000
next table: 1319
cur table: 1322
epoch: 1000
next table: 1343
cur table: 1338
epoch: 1000
next table: 1332
cur table: 1319
epoch: 1000
next table: 1348
cur table: 1343
epoch: 1000
next table: 1331
cur table: 1332
epoch: 1000
next table: 1362
cur table: 1348
epoch: 1000
next table: 1349
cur table: 1331
epoch: 1000
next table: 1371
cur table: 1362
epoch: 1000
next table: 1344
cur table: 1349
epoch: 1000
next table: 1368
cur table: 1371
epoch: 1000
next table: 1342
cur table: 1344
epoch: 1000
next table: 1270
cur table: 1368
epoch: 1000
next table: 1297
cur table: 1342
epoch: 1000
next table: 1269
cur table: 1270
epoch: 1000
next table: 1269
cur table: 1269
epoch: 1000
next table: 1311
cur table: 1297
epoch: 1000
next table: 1271
cur table: 1269
epoch: 1000
next table: 1327
cur table: 1311
epoch: 1000
next table: 1274
cur table: 1271
epoch: 1000
next table: 1302
cur table: 1327
epoch: 1000
next table: 1267
cur table: 1274
epoch: 1000
next table: 1303
cur table: 1302
epoch: 1000
next table: 1275
cur table: 1267
epoch: 1000
next table: 1267
cur table: 1275
epoch: 1000
next table: 1324
cur table: 1303
epoch: 1000
next table: 1277
cur table: 1267
epoch: 1000
next table: 1308
cur table: 1324
epoch: 1000
next table: 1263
cur table: 1277
epoch: 1000
next table: 1297
cur table: 1308
epoch: 1000
next table: 1326
cur table: 1263
epoch: 1000
next table: 1315
cur table: 1297
epoch: 1000
next table: 1266
cur table: 1326
epoch: 1000
next table: 1275
cur table: 1266
epoch: 1000
next table: 1316
cur table: 1315
epoch: 1000
next table: 1266
cur table: 1275
epoch: 1000
next table: 1293
cur table: 1316
epoch: 1000
next table: 1275
cur table: 1266
epoch: 1000
next table: 1281
cur table: 1293
epoch: 1000
next table: 1318
cur table: 1275
epoch: 1000
next table: 1284
cur table: 1281
epoch: 1000
next table: 1272
cur table: 1318
epoch: 1000
next table: 1297
cur table: 1284
epoch: 1000
next table: 1275
cur table: 1272
epoch: 1000
next table: 1306
cur table: 1297
epoch: 1000
next table: 1266
cur table: 1275
epoch: 1000
next table: 1269
cur table: 1306
epoch: 1000
next table: 1277
cur table: 1266
epoch: 1000
next table: 1266
cur table: 1269
epoch: 1000
next table: 1272
cur table: 1277
epoch: 1000
next table: 1286
cur table: 1272
epoch: 1000
next table: 1285
cur table: 1266
epoch: 1000
next table: 1291
cur table: 1286
epoch: 1000
next table: 1306
cur table: 1285
epoch: 1000
next table: 1282
cur table: 1291
epoch: 1000
next table: 1289
cur table: 1306
epoch: 1000
next table: 1268
cur table: 1282
epoch: 1000
next table: 1256
cur table: 1289
epoch: 1000
next table: 1277
cur table: 1268
epoch: 1000
next table: 1268
cur table: 1256
epoch: 1000
next table: 1263
cur table: 1277
epoch: 1000
next table: 1271
cur table: 1268
epoch: 1000
next table: 1275
cur table: 1263
epoch: 1000
next table: 1278
cur table: 1271
epoch: 1000
next table: 1318
cur table: 1275
epoch: 1000
next table: 1294
cur table: 1278
epoch: 1000
next table: 1275
cur table: 1318
epoch: 1000
next table: 1250
cur table: 1294
epoch: 1000
next table: 1266
cur table: 1275
epoch: 1000
next table: 1262
cur table: 1250
epoch: 1000
next table: 1275
cur table: 1266
epoch: 1000
next table: 1261
cur table: 1262
epoch: 1000
next table: 1268
cur table: 1275
epoch: 1000
next table: 1264
cur table: 1261
epoch: 1000
next table: 1317
cur table: 1268
epoch: 1000
next table: 1273
cur table: 1317
epoch: 1000
next table: 1295
cur table: 1264
epoch: 1000
next table: 1267
cur table: 1273
epoch: 1000
next table: 1293
cur table: 1295
epoch: 1000
next table: 1275
cur table: 1267
epoch: 1000
next table: 1266
cur table: 1293
epoch: 1000
next table: 1266
cur table: 1275
epoch: 1000
next table: 1252
cur table: 1266
epoch: 1000
next table: 1275
cur table: 1266
epoch: 1000
next table: 1255
cur table: 1252
epoch: 1000
next table: 1266
cur table: 1275
epoch: 1000
next table: 1249
cur table: 1255
epoch: 1000
next table: 1274
cur table: 1266
epoch: 1000
next table: 1256
cur table: 1249
epoch: 1000
next table: 1267
cur table: 1274
epoch: 1000
next table: 1247
cur table: 1256
epoch: 1000
next table: 1273
cur table: 1267
epoch: 1000
next table: 1255
cur table: 1247
epoch: 1000
next table: 1271
cur table: 1273
epoch: 1000
next table: 1250
cur table: 1255
epoch: 1000
next table: 1277
cur table: 1271
epoch: 1000
next table: 1260
cur table: 1250
epoch: 1000
next table: 1285
cur table: 1277
epoch: 1000
next table: 1269
cur table: 1260
epoch: 1000
next table: 1351
cur table: 1285
epoch: 1000
next table: 1263
cur table: 1269
epoch: 1000
next table: 1283
cur table: 1351
epoch: 1000
next table: 1265
cur table: 1263
epoch: 1000
next table: 1276
cur table: 1283
epoch: 1000
next table: 1256
cur table: 1265
epoch: 1000
next table: 1270
cur table: 1276
epoch: 1000
next table: 1249
cur table: 1256
epoch: 1000
next table: 1271
cur table: 1270
epoch: 1000
next table: 1257
cur table: 1249
epoch: 1000
next table: 1323
cur table: 1271
epoch: 1000
next table: 1251
cur table: 1257
epoch: 1000
next table: 1266
cur table: 1323
epoch: 1000
next table: 1255
cur table: 1251
epoch: 1000
next table: 1276
cur table: 1266
epoch: 1000
next table: 1250
cur table: 1255
epoch: 1000
next table: 1264
cur table: 1276
epoch: 1000
next table: 1253
cur table: 1250
epoch: 1000
next table: 1276
cur table: 1264
epoch: 1000
next table: 1253
cur table: 1253
epoch: 1000
next table: 1265
cur table: 1276
epoch: 1000
next table: 1251
cur table: 1253
epoch: 1000
next table: 1275
cur table: 1265
epoch: 1000
next table: 1254
cur table: 1251
epoch: 1000
next table: 1266
cur table: 1275
epoch: 1000
next table: 1249
cur table: 1254
epoch: 1000
next table: 1274
cur table: 1266
epoch: 1000
next table: 1253
cur table: 1249
epoch: 1000
next table: 1266
cur table: 1274
epoch: 1000
next table: 1248
cur table: 1253
epoch: 1000
next table: 1274
cur table: 1266
epoch: 1000
next table: 1254
cur table: 1248
epoch: 1000
next table: 1269
cur table: 1274
epoch: 1000
next table: 1250
cur table: 1254
epoch: 1000
next table: 1272
cur table: 1269
epoch: 1000
next table: 1252
cur table: 1250
epoch: 1000
next table: 1326
cur table: 1272
Heartbeat CPU 0 instructions: 20000000 cycles: 7248670 heartbeat IPC: 2.86314 cumulative IPC: 2.75913 (Simulation time: 0 hr 16 min 9 sec) 
epoch: 1000
next table: 1252
cur table: 1252
epoch: 1000
next table: 1268
cur table: 1326
epoch: 1000
next table: 1253
cur table: 1252
epoch: 1000
next table: 1275
cur table: 1268
epoch: 1000
next table: 1252
cur table: 1253
epoch: 1000
next table: 1266
cur table: 1275
epoch: 1000
next table: 1253
cur table: 1252
epoch: 1000
next table: 1279
cur table: 1266
epoch: 1000
next table: 1259
cur table: 1253
epoch: 1000
next table: 1288
cur table: 1279
epoch: 1000
next table: 1260
cur table: 1259
epoch: 1000
next table: 1283
cur table: 1288
epoch: 1000
next table: 1268
cur table: 1260
epoch: 1000
next table: 1291
cur table: 1283
epoch: 1000
next table: 1269
cur table: 1268
epoch: 1000
next table: 1283
cur table: 1291
epoch: 1000
next table: 1260
cur table: 1269
epoch: 1000
next table: 1265
cur table: 1283
epoch: 1000
next table: 1246
cur table: 1260
epoch: 1000
next table: 1276
cur table: 1265
epoch: 1000
next table: 1256
cur table: 1246
epoch: 1000
next table: 1265
cur table: 1276
epoch: 1000
next table: 1247
cur table: 1256
epoch: 1000
next table: 1275
cur table: 1265
epoch: 1000
next table: 1257
cur table: 1247
epoch: 1000
next table: 1266
cur table: 1275
epoch: 1000
next table: 1249
cur table: 1257
epoch: 1000
next table: 1272
cur table: 1266
epoch: 1000
next table: 1256
cur table: 1249
epoch: 1000
next table: 1270
cur table: 1272
epoch: 1000
next table: 1248
cur table: 1256
epoch: 1000
next table: 1274
cur table: 1270
epoch: 1000
next table: 1255
cur table: 1248
epoch: 1000
next table: 1271
cur table: 1274
epoch: 1000
next table: 1248
cur table: 1255
epoch: 1000
next table: 1324
cur table: 1271
epoch: 1000
next table: 1255
cur table: 1248
epoch: 1000
next table: 1272
cur table: 1324
epoch: 1000
next table: 1253
cur table: 1255
epoch: 1000
next table: 1267
cur table: 1272
epoch: 1000
next table: 1250
cur table: 1253
epoch: 1000
next table: 1271
cur table: 1267
epoch: 1000
next table: 1254
cur table: 1250
epoch: 1000
next table: 1270
cur table: 1271
epoch: 1000
next table: 1249
cur table: 1254
epoch: 1000
next table: 1288
cur table: 1270
epoch: 1000
next table: 1257
cur table: 1249
epoch: 1000
next table: 1304
cur table: 1288
epoch: 1000
next table: 1249
cur table: 1257
epoch: 1000
next table: 1270
cur table: 1304
epoch: 1000
next table: 1251
cur table: 1249
epoch: 1000
next table: 1271
cur table: 1270
epoch: 1000
next table: 1251
cur table: 1251
epoch: 1000
next table: 1271
cur table: 1271
epoch: 1000
next table: 1252
cur table: 1251
epoch: 1000
next table: 1280
cur table: 1271
epoch: 1000
next table: 1262
cur table: 1252
epoch: 1000
next table: 1273
cur table: 1280
epoch: 1000
next table: 1257
cur table: 1262
epoch: 1000
next table: 1289
cur table: 1273
epoch: 1000
next table: 1269
cur table: 1257
epoch: 1000
next table: 1291
cur table: 1289
epoch: 1000
next table: 1271
cur table: 1269
epoch: 1000
next table: 1278
cur table: 1291
epoch: 1000
next table: 1253
cur table: 1271
epoch: 1000
next table: 1266
cur table: 1278
epoch: 1000
next table: 1254
cur table: 1253
epoch: 1000
next table: 1277
cur table: 1266
epoch: 1000
next table: 1253
cur table: 1254
epoch: 1000
next table: 1264
cur table: 1277
epoch: 1000
next table: 1251
cur table: 1253
epoch: 1000
next table: 1329
cur table: 1264
epoch: 1000
next table: 1257
cur table: 1251
epoch: 1000
next table: 1263
cur table: 1329
epoch: 1000
next table: 1244
cur table: 1257
epoch: 1000
next table: 1274
cur table: 1263
epoch: 1000
next table: 1260
cur table: 1244
epoch: 1000
next table: 1267
cur table: 1274
epoch: 1000
next table: 1246
cur table: 1260
epoch: 1000
next table: 1273
cur table: 1267
epoch: 1000
next table: 1255
cur table: 1246
epoch: 1000
next table: 1269
cur table: 1273
epoch: 1000
next table: 1248
cur table: 1255
epoch: 1000
next table: 1321
cur table: 1269
epoch: 1000
next table: 1254
cur table: 1248
epoch: 1000
next table: 1269
cur table: 1321
epoch: 1000
next table: 1249
cur table: 1254
epoch: 1000
next table: 1272
cur table: 1269
epoch: 1000
next table: 1253
cur table: 1249
epoch: 1000
next table: 1274
cur table: 1272
epoch: 1000
next table: 1249
cur table: 1253
epoch: 1000
next table: 1266
cur table: 1274
epoch: 1000
next table: 1256
cur table: 1249
epoch: 1000
next table: 1276
cur table: 1266
epoch: 1000
next table: 1249
cur table: 1256
epoch: 1000
next table: 1264
cur table: 1276
epoch: 1000
next table: 1253
cur table: 1249
epoch: 1000
next table: 1276
cur table: 1264
epoch: 1000
next table: 1255
cur table: 1253
epoch: 1000
next table: 1266
cur table: 1276
epoch: 1000
next table: 1250
cur table: 1255
epoch: 1000
next table: 1275
cur table: 1266
epoch: 1000
next table: 1257
cur table: 1250
epoch: 1000
next table: 1272
cur table: 1275
epoch: 1000
next table: 1253
cur table: 1257
epoch: 1000
next table: 1281
cur table: 1272
epoch: 1000
next table: 1262
cur table: 1253
epoch: 1000
next table: 1352
cur table: 1281
epoch: 1000
next table: 1269
cur table: 1262
epoch: 1000
next table: 1291
cur table: 1352
epoch: 1000
next table: 1270
cur table: 1269
epoch: 1000
next table: 1274
cur table: 1291
epoch: 1000
next table: 1252
cur table: 1270
epoch: 1000
next table: 1275
cur table: 1274
epoch: 1000
next table: 1257
cur table: 1252
epoch: 1000
next table: 1265
cur table: 1275
epoch: 1000
next table: 1248
cur table: 1257
epoch: 1000
next table: 1275
cur table: 1265
epoch: 1000
next table: 1257
cur table: 1248
epoch: 1000
next table: 1285
cur table: 1275
epoch: 1000
next table: 1247
cur table: 1257
epoch: 1000
next table: 1275
cur table: 1285
epoch: 1000
next table: 1254
cur table: 1247
epoch: 1000
next table: 1267
cur table: 1275
epoch: 1000
next table: 1249
cur table: 1254
epoch: 1000
next table: 1273
cur table: 1267
epoch: 1000
next table: 1257
cur table: 1249
epoch: 1000
next table: 1271
cur table: 1273
epoch: 1000
next table: 1250
cur table: 1257
epoch: 1000
next table: 1271
cur table: 1271
epoch: 1000
next table: 1252
cur table: 1250
epoch: 1000
next table: 1271
cur table: 1271
epoch: 1000
next table: 1254
cur table: 1252
epoch: 1000
next table: 1268
cur table: 1271
epoch: 1000
next table: 1250
cur table: 1254
epoch: 1000
next table: 1273
cur table: 1268
epoch: 1000
next table: 1254
cur table: 1250
epoch: 1000
next table: 1268
cur table: 1273
epoch: 1000
next table: 1248
cur table: 1254
epoch: 1000
next table: 1272
cur table: 1268
epoch: 1000
next table: 1254
cur table: 1248
epoch: 1000
next table: 1270
cur table: 1272
epoch: 1000
next table: 1250
cur table: 1254
epoch: 1000
next table: 1293
cur table: 1270
epoch: 1000
next table: 1253
cur table: 1250
epoch: 1000
next table: 1301
cur table: 1293
epoch: 1000
next table: 1250
cur table: 1253
epoch: 1000
next table: 1270
cur table: 1301
epoch: 1000
next table: 1252
cur table: 1250
epoch: 1000
next table: 1270
cur table: 1270
epoch: 1000
next table: 1252
cur table: 1252
epoch: 1000
next table: 1272
cur table: 1270
epoch: 1000
next table: 1253
cur table: 1252
epoch: 1000
next table: 1283
cur table: 1272
epoch: 1000
next table: 1265
cur table: 1253
epoch: 1000
next table: 1282
cur table: 1283
epoch: 1000
next table: 1259
cur table: 1265
epoch: 1000
next table: 1290
cur table: 1282
epoch: 1000
next table: 1268
cur table: 1259
epoch: 1000
next table: 1285
cur table: 1290
epoch: 1000
next table: 1262
cur table: 1268
epoch: 1000
next table: 1268
cur table: 1285
epoch: 1000
next table: 1308
cur table: 1262
epoch: 1000
next table: 1276
cur table: 1268
epoch: 1000
next table: 1321
cur table: 1308
epoch: 1000
next table: 1266
cur table: 1276
epoch: 1000
next table: 1274
cur table: 1266
epoch: 1000
next table: 1321
cur table: 1321
epoch: 1000
next table: 1264
cur table: 1274
epoch: 1000
next table: 1322
cur table: 1321
epoch: 1000
next table: 1274
cur table: 1264
epoch: 1000
next table: 1306
cur table: 1322
epoch: 1000
next table: 1266
cur table: 1274
epoch: 1000
next table: 1298
cur table: 1306
epoch: 1000
next table: 1273
cur table: 1266
epoch: 1000
next table: 1268
cur table: 1273
epoch: 1000
next table: 1326
cur table: 1298
epoch: 1000
next table: 1282
cur table: 1268
epoch: 1000
next table: 1319
cur table: 1326
epoch: 1000
next table: 1269
cur table: 1282
epoch: 1000
next table: 1327
cur table: 1319
epoch: 1000
next table: 1273
cur table: 1269
epoch: 1000
next table: 1314
cur table: 1327
epoch: 1000
next table: 1272
cur table: 1273
epoch: 1000
next table: 1268
cur table: 1272
epoch: 1000
next table: 1321
cur table: 1314
epoch: 1000
next table: 1272
cur table: 1268
epoch: 1000
next table: 1318
cur table: 1321
epoch: 1000
next table: 1276
cur table: 1272
epoch: 1000
next table: 1323
cur table: 1318
epoch: 1000
next table: 1279
cur table: 1276
epoch: 1000
next table: 1265
cur table: 1279
epoch: 1000
next table: 1316
cur table: 1323
epoch: 1000
next table: 1273
cur table: 1265
epoch: 1000
next table: 1317
cur table: 1316
epoch: 1000
next table: 1270
cur table: 1273
epoch: 1000
next table: 1312
cur table: 1317
epoch: 1000
next table: 1278
cur table: 1270
epoch: 1000
next table: 1281
cur table: 1312
epoch: 1000
next table: 1285
cur table: 1278
epoch: 1000
next table: 1341
cur table: 1281
epoch: 1000
next table: 1276
cur table: 1285
epoch: 1000
next table: 1289
cur table: 1276
epoch: 1000
next table: 1348
cur table: 1341
epoch: 1000
next table: 1280
cur table: 1289
epoch: 1000
next table: 1315
cur table: 1348
epoch: 1000
next table: 1265
cur table: 1280
epoch: 1000
next table: 1296
cur table: 1315
epoch: 1000
next table: 1275
cur table: 1265
epoch: 1000
next table: 1281
cur table: 1296
epoch: 1000
next table: 1273
cur table: 1275
epoch: 1000
next table: 1274
cur table: 1273
epoch: 1000
next table: 1297
cur table: 1281
epoch: 1000
next table: 1264
cur table: 1274
epoch: 1000
next table: 1309
cur table: 1297
epoch: 1000
next table: 1275
cur table: 1264
epoch: 1000
next table: 1307
cur table: 1309
epoch: 1000
next table: 1271
cur table: 1275
epoch: 1000
next table: 1276
cur table: 1307
epoch: 1000
next table: 1268
cur table: 1271
epoch: 1000
next table: 1289
cur table: 1276
epoch: 1000
next table: 1282
cur table: 1268
epoch: 1000
next table: 1306
cur table: 1289
epoch: 1000
next table: 1270
cur table: 1282
epoch: 1000
next table: 1273
cur table: 1270
epoch: 1000
next table: 1291
cur table: 1306
epoch: 1000
next table: 1268
cur table: 1273
epoch: 1000
next table: 1321
cur table: 1291
epoch: 1000
next table: 1270
cur table: 1268
epoch: 1000
next table: 1290
cur table: 1321
epoch: 1000
next table: 1267
cur table: 1270
epoch: 1000
next table: 1306
cur table: 1290
epoch: 1000
next table: 1271
cur table: 1267
epoch: 1000
next table: 1289
cur table: 1306
epoch: 1000
next table: 1268
cur table: 1271
epoch: 1000
next table: 1251
cur table: 1289
epoch: 1000
next table: 1272
cur table: 1268
epoch: 1000
next table: 1250
cur table: 1251
epoch: 1000
next table: 1270
cur table: 1272
epoch: 1000
next table: 1251
cur table: 1250
epoch: 1000
next table: 1271
cur table: 1270
epoch: 1000
next table: 1256
cur table: 1251
epoch: 1000
next table: 1275
cur table: 1271
epoch: 1000
next table: 1256
cur table: 1256
epoch: 1000
next table: 1277
cur table: 1275
epoch: 1000
next table: 1293
cur table: 1277
epoch: 1000
next table: 1262
cur table: 1256
epoch: 1000
next table: 1293
cur table: 1293
epoch: 1000
next table: 1272
cur table: 1262
epoch: 1000
next table: 1273
cur table: 1293
epoch: 1000
next table: 1254
cur table: 1272
epoch: 1000
next table: 1269
cur table: 1273
epoch: 1000
next table: 1248
cur table: 1254
epoch: 1000
next table: 1269
cur table: 1269
epoch: 1000
next table: 1251
cur table: 1248
epoch: 1000
next table: 1282
cur table: 1269
epoch: 1000
next table: 1247
cur table: 1251
epoch: 1000
next table: 1280
cur table: 1282
epoch: 1000
next table: 1256
cur table: 1247
epoch: 1000
next table: 1267
cur table: 1280
epoch: 1000
next table: 1243
cur table: 1256
epoch: 1000
next table: 1276
cur table: 1267
epoch: 1000
next table: 1256
cur table: 1243
epoch: 1000
next table: 1264
cur table: 1276
epoch: 1000
next table: 1243
cur table: 1256
epoch: 1000
next table: 1276
cur table: 1264
epoch: 1000
next table: 1255
cur table: 1243
epoch: 1000
next table: 1262
cur table: 1276
epoch: 1000
next table: 1241
cur table: 1255
epoch: 1000
next table: 1274
cur table: 1262
epoch: 1000
next table: 1252
cur table: 1241
epoch: 1000
next table: 1266
cur table: 1274
epoch: 1000
next table: 1246
cur table: 1252
epoch: 1000
next table: 1275
cur table: 1266
epoch: 1000
next table: 1252
cur table: 1246
epoch: 1000
next table: 1265
cur table: 1275
epoch: 1000
next table: 1246
cur table: 1252
epoch: 1000
next table: 1273
cur table: 1265
epoch: 1000
next table: 1253
cur table: 1246
epoch: 1000
next table: 1269
cur table: 1273
epoch: 1000
next table: 1247
cur table: 1253
epoch: 1000
next table: 1282
cur table: 1269
epoch: 1000
next table: 1252
cur table: 1247
epoch: 1000
next table: 1268
cur table: 1282
epoch: 1000
next table: 1247
cur table: 1252
epoch: 1000
next table: 1271
cur table: 1268
epoch: 1000
next table: 1253
cur table: 1247
epoch: 1000
next table: 1275
cur table: 1271
epoch: 1000
next table: 1250
cur table: 1253
epoch: 1000
next table: 1270
cur table: 1275
epoch: 1000
next table: 1251
cur table: 1250
epoch: 1000
next table: 1290
cur table: 1270
epoch: 1000
next table: 1260
cur table: 1251
epoch: 1000
next table: 1285
cur table: 1290
epoch: 1000
next table: 1264
cur table: 1260
epoch: 1000
next table: 1286
cur table: 1285
epoch: 1000
next table: 1262
cur table: 1264
epoch: 1000
next table: 1283
cur table: 1286
epoch: 1000
next table: 1263
cur table: 1262
epoch: 1000
next table: 1279
cur table: 1283
epoch: 1000
next table: 1255
cur table: 1263
epoch: 1000
next table: 1266
cur table: 1279
epoch: 1000
next table: 1245
cur table: 1255
epoch: 1000
next table: 1273
cur table: 1266
epoch: 1000
next table: 1252
cur table: 1245
epoch: 1000
next table: 1265
cur table: 1273
epoch: 1000
next table: 1243
cur table: 1252
epoch: 1000
next table: 1273
cur table: 1265
epoch: 1000
next table: 1251
cur table: 1243
epoch: 1000
next table: 1264
cur table: 1273
epoch: 1000
next table: 1243
cur table: 1251
epoch: 1000
next table: 1273
cur table: 1264
epoch: 1000
next table: 1253
cur table: 1243
epoch: 1000
next table: 1267
cur table: 1273
epoch: 1000
next table: 1247
cur table: 1253
epoch: 1000
next table: 1274
cur table: 1267
epoch: 1000
next table: 1253
cur table: 1247
epoch: 1000
next table: 1277
cur table: 1274
epoch: 1000
next table: 1247
cur table: 1253
epoch: 1000
next table: 1271
cur table: 1277
epoch: 1000
next table: 1255
cur table: 1247
epoch: 1000
next table: 1269
cur table: 1271
epoch: 1000
next table: 1246
cur table: 1255
epoch: 1000
next table: 1272
cur table: 1269
epoch: 1000
next table: 1249
cur table: 1246
epoch: 1000
next table: 1274
cur table: 1272
epoch: 1000
next table: 1253
cur table: 1249
epoch: 1000
next table: 1266
cur table: 1274
epoch: 1000
next table: 1247
cur table: 1253
epoch: 1000
next table: 1297
cur table: 1266
epoch: 1000
next table: 1257
cur table: 1247
epoch: 1000
next table: 1267
cur table: 1297
epoch: 1000
next table: 1244
cur table: 1257
epoch: 1000
next table: 1275
cur table: 1267
epoch: 1000
next table: 1251
cur table: 1244
epoch: 1000
next table: 1265
cur table: 1275
epoch: 1000
next table: 1247
cur table: 1251
epoch: 1000
next table: 1275
cur table: 1265
epoch: 1000
next table: 1253
cur table: 1247
epoch: 1000
next table: 1277
cur table: 1275
epoch: 1000
next table: 1259
cur table: 1253
epoch: 1000
next table: 1283
cur table: 1277
epoch: 1000
next table: 1258
cur table: 1259
epoch: 1000
next table: 1291
cur table: 1283
epoch: 1000
next table: 1268
cur table: 1258
epoch: 1000
next table: 1286
cur table: 1291
epoch: 1000
next table: 1265
cur table: 1268
epoch: 1000
next table: 1267
cur table: 1286
epoch: 1000
next table: 1251
cur table: 1265
epoch: 1000
next table: 1276
cur table: 1267
epoch: 1000
next table: 1249
cur table: 1251
epoch: 1000
next table: 1266
cur table: 1276
epoch: 1000
next table: 1249
cur table: 1249
epoch: 1000
next table: 1278
cur table: 1266
epoch: 1000
next table: 1249
cur table: 1249
epoch: 1000
next table: 1268
cur table: 1278
epoch: 1000
next table: 1253
cur table: 1249
epoch: 1000
next table: 1271
cur table: 1268
epoch: 1000
next table: 1246
cur table: 1253
epoch: 1000
next table: 1273
cur table: 1271
epoch: 1000
next table: 1252
cur table: 1246
epoch: 1000
next table: 1268
cur table: 1273
epoch: 1000
next table: 1246
cur table: 1252
epoch: 1000
next table: 1269
cur table: 1268
epoch: 1000
next table: 1251
cur table: 1246
epoch: 1000
next table: 1281
cur table: 1269
epoch: 1000
next table: 1251
cur table: 1251
epoch: 1000
next table: 1276
cur table: 1281
epoch: 1000
next table: 1249
cur table: 1251
epoch: 1000
next table: 1268
cur table: 1276
epoch: 1000
[...]
cur table: 1219
epoch: 1000
next table: 1223
cur table: 1228
epoch: 1000
next table: 1213
cur table: 1216
epoch: 1000
next table: 1226
cur table: 1223
epoch: 1000
next table: 1211
cur table: 1213
epoch: 1000
next table: 1231
cur table: 1226
epoch: 1000
next table: 1213
cur table: 1211
epoch: 1000
next table: 1224
cur table: 1231
epoch: 1000
next table: 1213
cur table: 1213
epoch: 1000
next table: 1224
cur table: 1224
epoch: 1000
next table: 1211
cur table: 1213
epoch: 1000
next table: 1225
cur table: 1224
epoch: 1000
next table: 1213
cur table: 1211
epoch: 1000
next table: 1224
cur table: 1225
epoch: 1000
next table: 1211
cur table: 1213
epoch: 1000
next table: 1226
cur table: 1224
epoch: 1000
next table: 1214
cur table: 1211
epoch: 1000
next table: 1222
cur table: 1226
epoch: 1000
next table: 1215
cur table: 1214
epoch: 1000
next table: 1226
cur table: 1222
epoch: 1000
next table: 1210
cur table: 1215
epoch: 1000
next table: 1225
cur table: 1226
epoch: 1000
next table: 1212
cur table: 1210
epoch: 1000
next table: 1225
cur table: 1225
epoch: 1000
next table: 1212
cur table: 1212
epoch: 1000
next table: 1225
cur table: 1225
epoch: 1000
next table: 1213
cur table: 1212
epoch: 1000
next table: 1226
cur table: 1225
epoch: 1000
next table: 1212
cur table: 1213
epoch: 1000
next table: 1225
cur table: 1226
epoch: 1000
next table: 1210
cur table: 1212
epoch: 1000
next table: 1226
cur table: 1225
epoch: 1000
next table: 1215
cur table: 1210
epoch: 1000
next table: 1226
cur table: 1226
epoch: 1000
next table: 1213
cur table: 1215
epoch: 1000
next table: 1227
cur table: 1226
epoch: 1000
next table: 1212
cur table: 1213
epoch: 1000
next table: 1226
cur table: 1227
epoch: 1000
next table: 1213
cur table: 1212
epoch: 1000
next table: 1225
cur table: 1226
epoch: 1000
next table: 1211
cur table: 1213
epoch: 1000
next table: 1226
cur table: 1225
epoch: 1000
next table: 1210
cur table: 1211
epoch: 1000
next table: 1226
cur table: 1226
epoch: 1000
next table: 1212
cur table: 1210
epoch: 1000
next table: 1228
cur table: 1226
epoch: 1000
next table: 1210
cur table: 1212
epoch: 1000
next table: 1225
cur table: 1228
epoch: 1000
next table: 1215
cur table: 1210
epoch: 1000
next table: 1234
cur table: 1225
epoch: 1000
next table: 1212
cur table: 1215
epoch: 1000
next table: 1235
cur table: 1234
epoch: 1000
next table: 1221
cur table: 1212
epoch: 1000
next table: 1231
cur table: 1235
epoch: 1000
next table: 1217
cur table: 1221
epoch: 1000
next table: 1232
cur table: 1231
Heartbeat CPU 0 instructions: 100000000 cycles: 78462047 heartbeat IPC: 0.747509 cumulative IPC: 0.837852 (Simulation time: 1 hr 3 min 54 sec) 
Finished CPU 0 instructions: 50000003 cycles: 59676451 cumulative IPC: 0.837851 (Simulation time: 1 hr 3 min 54 sec) 

ChampSim completed all CPUs

Region of Interest Statistics

CPU 0 cumulative IPC: 0.837851 instructions: 50000003 cycles: 59676451
ITLB TOTAL     ACCESS:    7313389  HIT:    7313387  MISS:          2  HIT %:        100  MISS %: 2.73471e-05   MPKI: 4e-05
ITLB LOAD TRANSLATION ACCESS:    7313389  HIT:    7313387  MISS:          2  HIT %:        100  MISS %: 2.73471e-05   MPKI: 4e-05
ITLB PREFETCH  REQUESTED:          0  ISSUED:          0  USEFUL:          0  USELESS:          0
ITLB USEFUL LOAD PREFETCHES:          0 PREFETCH ISSUED TO LOWER LEVEL:          0  ACCURACY: -nan
ITLB TIMELY PREFETCHES:          0 LATE PREFETCHES: 0 DROPPED PREFETCHES: 0
ITLB PREFETCHES SAME FILL-ORIGIN LEVEL: 0 DIFFERENT FILL-ORIGIN LEVEL: 0
ITLB AVERAGE MISS LATENCY: 320 cycles
ITLB RQ	ACCESS:    8894481	FORWARD:          0	MERGED:    1581092	TO_CACHE:    7313389

Revised Interactions: positive negative neutral
ITLB_interactions 0 0 0 -nan -nan -nan
DTLB TOTAL     ACCESS:   10240423  HIT:   10220813  MISS:      19610  HIT %:    99.8085  MISS %:   0.191496   MPKI: 0.3922
DTLB LOAD TRANSLATION ACCESS:   10240423  HIT:   10220813  MISS:      19610  HIT %:    99.8085  MISS %:   0.191496   MPKI: 0.3922
DTLB PREFETCH  REQUESTED:          0  ISSUED:          0  USEFUL:          0  USELESS:          0
DTLB USEFUL LOAD PREFETCHES:          0 PREFETCH ISSUED TO LOWER LEVEL:          0  ACCURACY: -nan
DTLB TIMELY PREFETCHES:          0 LATE PREFETCHES: 0 DROPPED PREFETCHES: 0
DTLB PREFETCHES SAME FILL-ORIGIN LEVEL: 0 DIFFERENT FILL-ORIGIN LEVEL: 0
DTLB AVERAGE MISS LATENCY: 146.215 cycles
DTLB RQ	ACCESS:   10596678	FORWARD:          0	MERGED:     340125	TO_CACHE:   10256553

Revised Interactions: positive negative neutral
DTLB_interactions 0 0 0 -nan -nan -nan
STLB TOTAL     ACCESS:    1123920  HIT:    1105639  MISS:      18281  HIT %:    98.3735  MISS %:    1.62654   MPKI: 0.36562
STLB LOAD TRANSLATION ACCESS:      19612  HIT:       1331  MISS:      18281  HIT %:    6.78666  MISS %:    93.2133   MPKI: 0.36562
STLB TRANSLATION FROM L1D PREFETCHER ACCESS:    1104308  HIT:    1104308  MISS:          0  HIT %:        100  MISS %:          0   MPKI: 0
STLB PREFETCH  REQUESTED:          0  ISSUED:          0  USEFUL:          0  USELESS:          0
STLB USEFUL LOAD PREFETCHES:          0 PREFETCH ISSUED TO LOWER LEVEL:          0  ACCURACY: -nan
STLB TIMELY PREFETCHES:          0 LATE PREFETCHES: 0 DROPPED PREFETCHES: 0
STLB PREFETCHES SAME FILL-ORIGIN LEVEL: 0 DIFFERENT FILL-ORIGIN LEVEL: 0
STLB AVERAGE MISS LATENCY: 147.174 cycles
STLB RQ	ACCESS:    4370649	FORWARD:          0	MERGED:    3246729	TO_CACHE:    1123920

Revised Interactions: positive negative neutral
STLB_interactions 0 0 0 -nan -nan -nan
STLB Hit, L1D data hit: 0
STLB Hit, L2C data hit: 0
STLB Hit, LLC data hit: 0
STLB Hit, LLC data miss: 0
STLB STLB hints to L2: 0
L1D TOTAL     ACCESS:   13523995  HIT:   12313564  MISS:    1210431  HIT %:    91.0498  MISS %:    8.95025   MPKI: 24.2086
L1D LOAD      ACCESS:    8705486  HIT:    8675881  MISS:      29605  HIT %:    99.6599  MISS %:   0.340073   MPKI: 0.5921
L1D RFO       ACCESS:     471431  HIT:     199195  MISS:     272236  HIT %:    42.2533  MISS %:    57.7467   MPKI: 5.44472
L1D PREFETCH  ACCESS:    4347078  HIT:    3438488  MISS:     908590  HIT %:    79.0988  MISS %:    20.9012   MPKI: 18.1718
L1D PREFETCH  REQUESTED:    8727927  ISSUED:    8702115  USEFUL:     854375  USELESS:      54200
L1D USEFUL LOAD PREFETCHES:     854375 PREFETCH ISSUED TO LOWER LEVEL:     912577  ACCURACY: 93.6222
L1D TIMELY PREFETCHES:     854375 LATE PREFETCHES: 30945 DROPPED PREFETCHES: 0
L1D PREFETCHES SAME FILL-ORIGIN LEVEL: 912577 DIFFERENT FILL-ORIGIN LEVEL: 0
L1D AVERAGE MISS LATENCY: 105.627 cycles
L1D RQ	ACCESS:   13684687	FORWARD:          0	MERGED:    4928095	TO_CACHE:    8755898
L1D WQ	ACCESS:    1840780	FORWARD:        694	MERGED:          0	TO_CACHE:    1840780
L1D PQ	ACCESS:    4351078	FORWARD:          0	MERGED:         41	TO_CACHE:    4351037

Revised Interactions: positive negative neutral
L1D_interactions 0 0 0 -nan -nan -nan
L1D UNIQUE REGIONS ACCESSED: 0
L1D REGIONS CONFLICTS: 0
L1D Cross Page Prefetch Requests: 0
L1D Same Page Prefetch Requests: 9046702
L1D ROI Sum of L1D PQ occupancy: 63533440
L1D PREFETCHES PUSHED FROM L2C: 0
L1I TOTAL     ACCESS:    8894401  HIT:    8894256  MISS:        145  HIT %:    99.9984  MISS %: 0.00163024   MPKI: 0.0029
L1I LOAD      ACCESS:    8894401  HIT:    8894256  MISS:        145  HIT %:    99.9984  MISS %: 0.00163024   MPKI: 0.0029
L1I PREFETCH  REQUESTED:          0  ISSUED:          0  USEFUL:          0  USELESS:          0
L1I USEFUL LOAD PREFETCHES:          0 PREFETCH ISSUED TO LOWER LEVEL:          0  ACCURACY: -nan
L1I TIMELY PREFETCHES:          0 LATE PREFETCHES: 0 DROPPED PREFETCHES: 0
L1I PREFETCHES SAME FILL-ORIGIN LEVEL: 0 DIFFERENT FILL-ORIGIN LEVEL: 0
L1I AVERAGE MISS LATENCY: 287.828 cycles
L1I RQ	ACCESS:   12465957	FORWARD:          0	MERGED:    3571476	TO_CACHE:    8894481

Revised Interactions: positive negative neutral
L1I_interactions 0 0 0 -nan -nan -nan
BTB TOTAL     ACCESS:    1565915  HIT:    1565883  MISS:         32  HIT %:     99.998  MISS %: 0.00204353   MPKI: 0.00064
BTB BRANCH_DIRECT_JUMP	ACCESS:          0  HIT:          0  MISS:          0
BTB BRANCH_INDIRECT	ACCESS:          0  HIT:          0  MISS:          0
BTB BRANCH_CONDITIONAL	ACCESS:    1565909  HIT:    1565883  MISS:         26
BTB BRANCH_DIRECT_CALL	ACCESS:          3  HIT:          0  MISS:          3
BTB BRANCH_INDIRECT_CALL	ACCESS:          0  HIT:          0  MISS:          0
BTB BRANCH_RETURN	ACCESS:          3  HIT:          0  MISS:          3
BTB BRANCH_OTHER ACCESS:          0  HIT:          0  MISS:          0

L2C TOTAL     ACCESS:    5439314  HIT:    4482645  MISS:     956669  HIT %:     82.412  MISS %:     17.588   MPKI: 19.1334
L2C LOAD      ACCESS:      29750  HIT:      12785  MISS:      16965  HIT %:    42.9748  MISS %:    57.0252   MPKI: 0.3393
L2C DATA LOAD MPKI: 0.3364
L2C INSTRUCTION LOAD MPKI: 0.0029
L2C RFO       ACCESS:     272236  HIT:          6  MISS:     272230  HIT %: 0.00220397  MISS %:    99.9978   MPKI: 5.4446
L2C PREFETCH  ACCESS:    4844558  HIT:    4186239  MISS:     658319  HIT %:    86.4112  MISS %:    13.5888   MPKI: 13.1664
L2C DATA PREFETCH MPKI: 13.1664
L2C INSTRUCTION PREFETCH MPKI: 0
L2C WRITEBACK ACCESS:     274442  HIT:     269026  MISS:       5416  HIT %:    98.0265  MISS %:    1.97346   MPKI: 0.10832
L2C LOAD TRANSLATION ACCESS:      18328  HIT:      14589  MISS:       3739  HIT %:    79.5995  MISS %:    20.4005   MPKI: 0.07478
L2C PREFETCH  REQUESTED:    4443894  ISSUED:    4434045  USEFUL:       1444  USELESS:     655377
L2C USEFUL LOAD PREFETCHES:       1444 PREFETCH ISSUED TO LOWER LEVEL:     658453  ACCURACY: 0.219302
L2C TIMELY PREFETCHES:       1444 LATE PREFETCHES: 132 DROPPED PREFETCHES: 0
L2C PREFETCHES SAME FILL-ORIGIN LEVEL: 561366 DIFFERENT FILL-ORIGIN LEVEL: 0
L2C AVERAGE MISS LATENCY: 260.647 cycles
L2C RQ	ACCESS:     320315	FORWARD:          0	MERGED:          0	TO_CACHE:     320315
L2C WQ	ACCESS:     274442	FORWARD:          0	MERGED:          0	TO_CACHE:     274442
L2C PQ	ACCESS:    5342635	FORWARD:          0	MERGED:     191803	TO_CACHE:    5150832

Revised Interactions: positive negative neutral
L2C_interactions 4558 656002 178468 0.543248 78.1859 21.2708
L2C Instructions Evicting Data 144
L2C Translations Evicting Data 3709
L2C Data Evicting Data 943502
L2C Instructions Evicting Instructions 0
L2C Translations Evicting Instructions 6
L2C Data Evicting Instructions 137
L2C Instructions Evicting Translations 1
L2C Translations Evicting Translations 24
L2C Data Evicting Translations 3730
L2C Dense regions hint from L2: 0
PSCL5 TOTAL     ACCESS:      18281  HIT:      18281  MISS:          0  HIT %:        100  MISS %:          0   MPKI: 0
PSCL5 LOAD TRANSLATION ACCESS:      18281  HIT:      18281  MISS:          0  HIT %:        100  MISS %:          0   MPKI: 0
PSCL5 PREFETCH  REQUESTED:          0  ISSUED:          0  USEFUL:          0  USELESS:          0
PSCL5 USEFUL LOAD PREFETCHES:          0 PREFETCH ISSUED TO LOWER LEVEL:          0  ACCURACY: -nan
PSCL5 TIMELY PREFETCHES:          0 LATE PREFETCHES: 0 DROPPED PREFETCHES: 0
PSCL5 PREFETCHES SAME FILL-ORIGIN LEVEL: 0 DIFFERENT FILL-ORIGIN LEVEL: 0

Revised Interactions: positive negative neutral
PSCL5_interactions 0 0 0 -nan -nan -nan
PSCL4 TOTAL     ACCESS:      18281  HIT:      18281  MISS:          0  HIT %:        100  MISS %:          0   MPKI: 0
PSCL4 LOAD TRANSLATION ACCESS:      18281  HIT:      18281  MISS:          0  HIT %:        100  MISS %:          0   MPKI: 0
PSCL4 PREFETCH  REQUESTED:          0  ISSUED:          0  USEFUL:          0  USELESS:          0
PSCL4 USEFUL LOAD PREFETCHES:          0 PREFETCH ISSUED TO LOWER LEVEL:          0  ACCURACY: -nan
PSCL4 TIMELY PREFETCHES:          0 LATE PREFETCHES: 0 DROPPED PREFETCHES: 0
PSCL4 PREFETCHES SAME FILL-ORIGIN LEVEL: 0 DIFFERENT FILL-ORIGIN LEVEL: 0

Revised Interactions: positive negative neutral
PSCL4_interactions 0 0 0 -nan -nan -nan
PSCL3 TOTAL     ACCESS:      18281  HIT:      18281  MISS:          0  HIT %:        100  MISS %:          0   MPKI: 0
PSCL3 LOAD TRANSLATION ACCESS:      18281  HIT:      18281  MISS:          0  HIT %:        100  MISS %:          0   MPKI: 0
PSCL3 PREFETCH  REQUESTED:          0  ISSUED:          0  USEFUL:          0  USELESS:          0
PSCL3 USEFUL LOAD PREFETCHES:          0 PREFETCH ISSUED TO LOWER LEVEL:          0  ACCURACY: -nan
PSCL3 TIMELY PREFETCHES:          0 LATE PREFETCHES: 0 DROPPED PREFETCHES: 0
PSCL3 PREFETCHES SAME FILL-ORIGIN LEVEL: 0 DIFFERENT FILL-ORIGIN LEVEL: 0

Revised Interactions: positive negative neutral
PSCL3_interactions 0 0 0 -nan -nan -nan
PSCL2 TOTAL     ACCESS:      18281  HIT:      18232  MISS:         49  HIT %:     99.732  MISS %:   0.268038   MPKI: 0.00098
PSCL2 LOAD TRANSLATION ACCESS:      18281  HIT:      18232  MISS:         49  HIT %:     99.732  MISS %:   0.268038   MPKI: 0.00098
PSCL2 PREFETCH  REQUESTED:          0  ISSUED:          0  USEFUL:          0  USELESS:          0
PSCL2 USEFUL LOAD PREFETCHES:          0 PREFETCH ISSUED TO LOWER LEVEL:          0  ACCURACY: -nan
PSCL2 TIMELY PREFETCHES:          0 LATE PREFETCHES: 0 DROPPED PREFETCHES: 0
PSCL2 PREFETCHES SAME FILL-ORIGIN LEVEL: 0 DIFFERENT FILL-ORIGIN LEVEL: 0

Revised Interactions: positive negative neutral
PSCL2_interactions 0 0 0 -nan -nan -nan
LLC TOTAL     ACCESS:    1225405  HIT:     119807  MISS:    1105598  HIT %:    9.77693  MISS %:    90.2231   MPKI: 22.112
LLC LOAD      ACCESS:      16833  HIT:       1371  MISS:      15462  HIT %:    8.14472  MISS %:    91.8553   MPKI: 0.30924
LLC RFO       ACCESS:     272230  HIT:       9678  MISS:     262552  HIT %:    3.55508  MISS %:    96.4449   MPKI: 5.25104
LLC PREFETCH  ACCESS:     658451  HIT:      36685  MISS:     621766  HIT %:    5.57141  MISS %:    94.4286   MPKI: 12.4353
LLC WRITEBACK ACCESS:     274152  HIT:      71469  MISS:     202683  HIT %:    26.0691  MISS %:    73.9309   MPKI: 4.05366
LLC LOAD TRANSLATION ACCESS:       3739  HIT:        604  MISS:       3135  HIT %:    16.1541  MISS %:    83.8459   MPKI: 0.0627
LLC PREFETCH  REQUESTED:          0  ISSUED:          0  USEFUL:       1819  USELESS:     618344
LLC USEFUL LOAD PREFETCHES:       1819 PREFETCH ISSUED TO LOWER LEVEL:     621768  ACCURACY: 0.292553
LLC TIMELY PREFETCHES:       1819 LATE PREFETCHES: 0 DROPPED PREFETCHES: 0
LLC PREFETCHES SAME FILL-ORIGIN LEVEL: 0 DIFFERENT FILL-ORIGIN LEVEL: 0
LLC AVERAGE MISS LATENCY: 199.433 cycles
LLC RQ	ACCESS:     292803	FORWARD:          0	MERGED:          0	TO_CACHE:     292803
LLC WQ	ACCESS:     274152	FORWARD:          0	MERGED:          0	TO_CACHE:     274152
LLC PQ	ACCESS:     658453	FORWARD:          0	MERGED:          0	TO_CACHE:     658453

Revised Interactions: positive negative neutral
LLC_interactions 149 620365 164513 0.0189802 79.0247 20.9563
LLC Dense regions hint to LLC: 0

RAW hits: 2854
Loads Generated: 13687541
Loads sent to L1D: 13684687
Stores Generated: 1840903
Stores sent to L1D: 1840904
Major fault: 0 Minor fault: 33686
Allocated PAGES: 33686

stream: 
stream:times selected: 3572854
stream:pref_filled: 2295792
stream:pref_useful: 2168389
stream:pref_late: 7877
stream:misses: 159
stream:misses_by_poll: 0

CS: 
CS:times selected: 3420991
CS:pref_filled: 2232
CS:pref_useful: 1988
CS:pref_late: 11
CS:misses: 114590
CS:misses_by_poll: 5

CPLX: 
CPLX:times selected: 151762
CPLX:pref_filled: 7714
CPLX:pref_useful: 5951
CPLX:pref_late: 2
CPLX:misses: 4180
CPLX:misses_by_poll: 12

NL_L1: 
NL:times selected: 75
NL:pref_filled: 4
NL:pref_useful: 4
NL:pref_late: 0
NL:misses: 3
NL:misses_by_poll: 0

total selections: 7145682
total_filled: 908590
total_useful: 854375
total_late: 7896
total_polluted: 17
total_misses_after_warmup: 80018
conflicts: 1326
Degree Incremented Times: 310019
Degree Decremented Times: 0

L1 IP Table Write Accesses: 8712472
L1 IP Table Read Accesses: 8711146
L1 RST Write Accesses: 1884952
L1 RST Read Accesses: 3769904
L1 CSPT Write Accesses: 1884952
L1 CSPT Read Accesses: 2296155
L1 RR Filter Tag Write Accesses: 4376890
L1 RR Filter Tag Read Accesses: 388624834
L1 IP Table Tag Write Accesses: 8755899
L1 IP Table Tag Read Accesses: 8755899
L1 RST Tag Write Accesses: 0
L1 RST Tag Read Accesses: 16993783
L1 RR Filter Write Accesses: 0
L1 RR Filter Read Accesses: 16032536
test: 84196
L2 IP Table Read Accesses: 1600705
L2 IP Table Write Accesses: 1576800
L2 IP Table Tag Read Accesses: 802623
L2 IP Table Tag Write Accesses: 802623

DRAM Statistics
 CHANNEL 0
 RQ ROW_BUFFER_HIT:     117567  ROW_BUFFER_MISS:     785330
 DBUS_CONGESTED:         62
 WQ ROW_BUFFER_HIT:      60248  ROW_BUFFER_MISS:     206004  FULL:       1385

 AVG_CONGESTED_CYCLE: 4
 All warmup complete: 2
Channel 0 Bank busy for read cycles: 0
Channel 0 Bank busy for write cycles: 0
Channel 0
Rank 0
0banks busy for read cycles: 8934468
0banks busy for write cycles: 10856
1banks busy for read cycles: 9786652
1banks busy for write cycles: 1481889
2banks busy for read cycles: 13595097
2banks busy for write cycles: 301346
3banks busy for read cycles: 7651941
3banks busy for write cycles: 137331
4banks busy for read cycles: 2775412
4banks busy for write cycles: 137702
5banks busy for read cycles: 1593072
5banks busy for write cycles: 138416
6banks busy for read cycles: 1569032
6banks busy for write cycles: 149484
7banks busy for read cycles: 2580908
7banks busy for write cycles: 481276
8banks busy for read cycles: 2641910
8banks busy for write cycles: 5709660

CPU 0 Branch Prediction Accuracy: 99.7618% MPKI: 0.07482 Average ROB Occupancy at Mispredict: 61.4416
Branch types
NOT_BRANCH: 48429657 96.8593%
BRANCH_DIRECT_JUMP: 0 0%
BRANCH_INDIRECT: 0 0%
BRANCH_CONDITIONAL: 1570362 3.14072%
BRANCH_DIRECT_CALL: 3 6e-06%
BRANCH_INDIRECT_CALL: 0 0%
BRANCH_RETURN: 3 6e-06%
BRANCH_OTHER: 0 0%

@sumon_overall_L1D    854375     30945     30945     54200    908590   8702115   8727927
@Sumon_Early_by_class_L1D    847692       957      5704         0
@Sumon_Late_by_class_L1D      7027        11         2         0

@Sumon_Early_by_cycle_L1D     12340     15850     49820     82467     30083    207309    443712      1573       537     10684         0         0
@Sumon_Late_by_cycle_L1D      1292      1304       706      1047      2509       188
@Sumon_Early_stream_L1D     12312     15729     49604     82342     29969    206959    439550       430       124     10673         0         0
@Sumon_Early_CS_L1D        22       105       198       121       108       289       107         7         0         0         0         0
@Sumon_Early_CPLX_L1D         1        11         9         4         4        60      4055      1136       413        11         0         0
@Sumon_Late_stream_L1D      1287      1301       702      1045      2504       188
@Sumon_Late_CS_L1D         4         2         3         0         2         0
@Sumon_Late_CPLX_L1D         0         0         1         1         0         0
@sumon_overall_L2C      1444       132         0    655377    658319   4434045   4443894
@Sumon_Early_by_class_L2C      1401         1         2         0
@Sumon_Late_by_class_L2C       127         0         0         0

@Sumon_Early_by_cycle_L2C        29        29        41       107       150       312         1         0         0       358        70       347
@Sumon_Late_by_cycle_L2C         3         4        18        21        61        25
@Sumon_Early_stream_L2C        25        23        36       101       143       304         1         0         0       358        68       342
@Sumon_Early_CS_L2C         0         0         1         0         0         0         0         0         0         0         0         0
@Sumon_Early_CPLX_L2C         0         0         0         0         0         0         0         0         0         0         0         2
@Sumon_Late_stream_L2C         0         4        18        21        59        25
@Sumon_Late_CS_L2C         0         0         0         0         0         0
@Sumon_Late_CPLX_L2C         0         0         0         0         0         0
DRAM PAGES: 1048576
Allocated PAGES: 33686
