
*** ChampSim Multicore Out-of-Order Simulator ***

Warmup Instructions: 50000000
Simulation Instructions: 50000000
Number of CPUs: 1
LLC sets: 2048
LLC ways: 16
Off-chip DRAM Size: 4096 MB Channels: 1 Width: 64-bit Data Rate: 6400 MT/s
CPU 0 runs ../../biswa/SPEC2017Traces/654.roms_s-523B.champsimtrace.xz
.xz
CPU 0 Bimodal branch predictor
BTB has LRU replacement policy
ITLB has LRU replacement policy
DTLB has LRU replacement policy
STLB has LRU replacement policy
L1I has LRU replacement policy
IP Table Entries: 256
L1D has LRU replacement policy
IP_Table L2 entries: 256
Initialize DRRIP state for L2C
Initialize SRRIP state
epoch: 1000
next table: 1682
cur table: 5223
epoch: 1000
next table: 1562
cur table: 1682
epoch: 1000
next table: 1519
cur table: 1562
epoch: 1000
next table: 1507
cur table: 1519
epoch: 1000
next table: 1488
cur table: 1507
epoch: 1000
next table: 1496
cur table: 1488
epoch: 1000
next table: 1493
cur table: 1496
epoch: 1000
next table: 1497
cur table: 1493
epoch: 1000
next table: 1490
cur table: 1497
epoch: 1000
next table: 1498
cur table: 1490
epoch: 1000
next table: 1491
cur table: 1498
epoch: 1000
next table: 1499
cur table: 1491
epoch: 1000
next table: 1493
cur table: 1499
epoch: 1000
next table: 1509
cur table: 1493
epoch: 1000
next table: 1502
cur table: 1509
epoch: 1000
next table: 1508
cur table: 1502
epoch: 1000
next table: 1518
cur table: 1508
epoch: 1000
next table: 1499
cur table: 1518
epoch: 1000
next table: 1497
cur table: 1499
epoch: 1000
next table: 1486
cur table: 1497
epoch: 1000
next table: 1497
cur table: 1486
epoch: 1000
next table: 1590
cur table: 15252
epoch: 1000
next table: 1490
cur table: 1497
epoch: 1000
next table: 1498
cur table: 1490
epoch: 1000
next table: 1535
cur table: 1590
epoch: 1000
next table: 1497
cur table: 1498
epoch: 1000
next table: 1520
cur table: 1535
epoch: 1000
next table: 1510
cur table: 1497
epoch: 1000
next table: 1489
cur table: 1520
epoch: 1000
next table: 1506
cur table: 1510
epoch: 1000
next table: 1488
cur table: 1489
epoch: 1000
next table: 1507
cur table: 1506
epoch: 1000
next table: 1503
cur table: 1488
epoch: 1000
next table: 1504
cur table: 1507
epoch: 1000
next table: 1472
cur table: 1503
epoch: 1000
next table: 1485
cur table: 1504
epoch: 1000
next table: 1485
cur table: 1472
epoch: 1000
next table: 1501
cur table: 1485
epoch: 1000
next table: 1479
cur table: 1485
epoch: 1000
next table: 1491
cur table: 1501
epoch: 1000
next table: 1478
cur table: 1479
epoch: 1000
next table: 1494
cur table: 1491
epoch: 1000
next table: 1475
cur table: 1478
epoch: 1000
next table: 1490
cur table: 1494
epoch: 1000
next table: 1476
cur table: 1475
epoch: 1000
next table: 1498
cur table: 1490
epoch: 1000
next table: 1487
cur table: 1476
epoch: 1000
next table: 1491
cur table: 1498
epoch: 1000
next table: 1471
cur table: 1487
epoch: 1000
next table: 1496
cur table: 1491
epoch: 1000
next table: 1485
cur table: 1471
epoch: 1000
next table: 1495
cur table: 1496
epoch: 1000
next table: 1477
cur table: 1485
epoch: 1000
next table: 1509
cur table: 1495
epoch: 1000
next table: 1487
cur table: 1477
epoch: 1000
next table: 1498
cur table: 1509
epoch: 1000
next table: 1489
cur table: 1487
epoch: 1000
next table: 1503
cur table: 1498
epoch: 1000
next table: 1496
cur table: 1489
epoch: 1000
next table: 1513
cur table: 1503
epoch: 1000
next table: 1482
cur table: 1496
epoch: 1000
next table: 1496
cur table: 1513
epoch: 1000
next table: 1481
cur table: 1482
epoch: 1000
next table: 1501
cur table: 1496
epoch: 1000
next table: 1481
cur table: 1481
epoch: 1000
next table: 1491
cur table: 1501
epoch: 1000
next table: 1480
cur table: 1481
epoch: 1000
next table: 1496
cur table: 1491
epoch: 1000
next table: 1483
cur table: 1480
epoch: 1000
next table: 1490
cur table: 1496
epoch: 1000
next table: 1469
cur table: 1483
epoch: 1000
next table: 1498
cur table: 1490
epoch: 1000
next table: 1483
cur table: 1469
epoch: 1000
next table: 1497
cur table: 1498
epoch: 1000
next table: 1481
cur table: 1483
epoch: 1000
next table: 1508
cur table: 1497
epoch: 1000
next table: 1496
cur table: 1481
epoch: 1000
next table: 1509
cur table: 1508
epoch: 1000
next table: 1492
cur table: 1496
epoch: 1000
next table: 1502
cur table: 1509
epoch: 1000
next table: 1487
cur table: 1492
epoch: 1000
next table: 1502
cur table: 1502
epoch: 1000
next table: 1487
cur table: 1487
epoch: 1000
next table: 1489
cur table: 1502
epoch: 1000
next table: 1471
cur table: 1487
epoch: 1000
next table: 1507
cur table: 1489
epoch: 1000
next table: 1486
cur table: 1471
epoch: 1000
next table: 1487
cur table: 1507
epoch: 1000
next table: 1480
cur table: 1486
epoch: 1000
next table: 1495
cur table: 1487
epoch: 1000
next table: 1477
cur table: 1480
epoch: 1000
next table: 1492
cur table: 1495
epoch: 1000
next table: 1473
cur table: 1477
epoch: 1000
next table: 1492
cur table: 1492
epoch: 1000
next table: 1482
cur table: 1473
epoch: 1000
next table: 1495
cur table: 1492
epoch: 1000
next table: 1473
cur table: 1482
epoch: 1000
next table: 1495
cur table: 1495
epoch: 1000
next table: 1483
cur table: 1473
epoch: 1000
next table: 1496
cur table: 1495
epoch: 1000
next table: 1484
cur table: 1483
epoch: 1000
next table: 1505
cur table: 1496
epoch: 1000
next table: 1482
cur table: 1484
epoch: 1000
next table: 1506
cur table: 1505
epoch: 1000
next table: 1485
cur table: 1482
epoch: 1000
next table: 1507
cur table: 1506
epoch: 1000
next table: 1494
cur table: 1485
epoch: 1000
next table: 1514
cur table: 1507
epoch: 1000
next table: 1496
cur table: 1494
epoch: 1000
next table: 1501
cur table: 1514
epoch: 1000
next table: 1473
cur table: 1496
epoch: 1000
next table: 1498
cur table: 1501
epoch: 1000
next table: 1476
cur table: 1473
epoch: 1000
next table: 1489
cur table: 1498
epoch: 1000
next table: 1479
cur table: 1476
epoch: 1000
next table: 1497
cur table: 1489
epoch: 1000
next table: 1473
cur table: 1479
epoch: 1000
next table: 1489
cur table: 1497
epoch: 1000
next table: 1479
cur table: 1473
epoch: 1000
next table: 1498
cur table: 1489
epoch: 1000
next table: 1478
cur table: 1479
epoch: 1000
next table: 1496
cur table: 1498
epoch: 1000
next table: 1488
cur table: 1478
epoch: 1000
next table: 1510
cur table: 1496
epoch: 1000
next table: 1482
cur table: 1488
epoch: 1000
next table: 1497
cur table: 1510
epoch: 1000
next table: 1486
cur table: 1482
epoch: 1000
next table: 1506
cur table: 1497
epoch: 1000
next table: 1494
cur table: 1486
epoch: 1000
next table: 1501
cur table: 1506
epoch: 1000
next table: 1481
cur table: 1494
epoch: 1000
next table: 1490
cur table: 1501
epoch: 1000
next table: 1476
cur table: 1481
epoch: 1000
next table: 1501
cur table: 1490
epoch: 1000
next table: 1479
cur table: 1476
epoch: 1000
next table: 1488
cur table: 1501
epoch: 1000
next table: 1471
cur table: 1479
epoch: 1000
next table: 1505
cur table: 1488
epoch: 1000
next table: 1480
cur table: 1471
epoch: 1000
next table: 1488
cur table: 1505
epoch: 1000
next table: 1473
cur table: 1480
epoch: 1000
next table: 1495
cur table: 1488
epoch: 1000
next table: 1476
cur table: 1473
epoch: 1000
next table: 1493
cur table: 1495
epoch: 1000
next table: 1481
cur table: 1476
epoch: 1000
next table: 1498
cur table: 1493
epoch: 1000
next table: 1468
cur table: 1481
epoch: 1000
next table: 1490
cur table: 1498
epoch: 1000
next table: 1486
cur table: 1468
epoch: 1000
next table: 1505
cur table: 1490
epoch: 1000
next table: 1482
cur table: 1486
epoch: 1000
next table: 1506
cur table: 1505
epoch: 1000
next table: 1486
cur table: 1482
epoch: 1000
next table: 1507
cur table: 1506
epoch: 1000
next table: 1490
cur table: 1486
epoch: 1000
next table: 1512
cur table: 1507
epoch: 1000
next table: 1494
cur table: 1490
epoch: 1000
next table: 1504
cur table: 1512
epoch: 1000
next table: 1477
cur table: 1494
epoch: 1000
next table: 1505
cur table: 1504
epoch: 1000
next table: 1536
cur table: 1477
epoch: 1000
next table: 1391
cur table: 1505
epoch: 1000
next table: 1270
cur table: 1536
epoch: 1000
next table: 1224
cur table: 1391
epoch: 1000
next table: 1255
cur table: 1270
epoch: 1000
next table: 1227
cur table: 1224
epoch: 1000
next table: 1224
cur table: 1227
epoch: 1000
next table: 1283
cur table: 1255
epoch: 1000
next table: 1227
cur table: 1224
epoch: 1000
next table: 1319
cur table: 1283
epoch: 1000
next table: 1227
cur table: 1227
epoch: 1000
next table: 1227
cur table: 1227
epoch: 1000
next table: 1289
cur table: 1319
epoch: 1000
next table: 1226
cur table: 1227
epoch: 1000
next table: 1254
cur table: 1289
epoch: 1000
next table: 1231
cur table: 1226
epoch: 1000
next table: 1256
cur table: 1254
epoch: 1000
next table: 1233
cur table: 1231
epoch: 1000
next table: 1237
cur table: 1256
epoch: 1000
next table: 1226
cur table: 1233
epoch: 1000
next table: 1217
cur table: 1237
epoch: 1000
next table: 1227
cur table: 1226
epoch: 1000
next table: 1212
cur table: 1217
epoch: 1000
next table: 1228
cur table: 1227
epoch: 1000
next table: 1214
cur table: 1212
epoch: 1000
next table: 1221
cur table: 1228
epoch: 1000
next table: 1209
cur table: 1214
epoch: 1000
next table: 1225
cur table: 1221
epoch: 1000
next table: 1205
cur table: 1209
epoch: 1000
next table: 1226
cur table: 1225
epoch: 1000
next table: 1211
cur table: 1205
epoch: 1000
next table: 1226
cur table: 1226
epoch: 1000
next table: 1211
cur table: 1211
epoch: 1000
next table: 1237
cur table: 1226
epoch: 1000
next table: 1216
cur table: 1211
epoch: 1000
next table: 1224
cur table: 1237
epoch: 1000
next table: 1209
cur table: 1216
epoch: 1000
next table: 1238
cur table: 1224
epoch: 1000
next table: 1210
cur table: 1209
epoch: 1000
next table: 1250
cur table: 1238
epoch: 1000
next table: 1220
cur table: 1210
epoch: 1000
next table: 1229
cur table: 1250
epoch: 1000
next table: 1208
cur table: 1220
epoch: 1000
next table: 1229
cur table: 1229
epoch: 1000
next table: 1208
cur table: 1208
epoch: 1000
next table: 1229
cur table: 1229
epoch: 1000
next table: 1210
cur table: 1208
epoch: 1000
next table: 1232
cur table: 1229
epoch: 1000
next table: 1214
cur table: 1210
epoch: 1000
next table: 1233
cur table: 1232
epoch: 1000
next table: 1213
cur table: 1214
epoch: 1000
next table: 1230
cur table: 1233
epoch: 1000
next table: 1216
cur table: 1213
epoch: 1000
next table: 1229
cur table: 1230
epoch: 1000
next table: 1210
cur table: 1216
epoch: 1000
next table: 1221
cur table: 1229
epoch: 1000
next table: 1210
cur table: 1210
epoch: 1000
next table: 1227
cur table: 1221
epoch: 1000
next table: 1204
cur table: 1210
epoch: 1000
next table: 1227
cur table: 1227
epoch: 1000
next table: 1211
cur table: 1204
epoch: 1000
next table: 1226
cur table: 1227
epoch: 1000
next table: 1209
cur table: 1211
epoch: 1000
next table: 1226
cur table: 1226
epoch: 1000
next table: 1207
cur table: 1209
epoch: 1000
next table: 1223
cur table: 1226
epoch: 1000
next table: 1209
cur table: 1207
epoch: 1000
next table: 1227
cur table: 1223
epoch: 1000
next table: 1207
cur table: 1209
epoch: 1000
next table: 1227
cur table: 1227
epoch: 1000
next table: 1212
cur table: 1207
epoch: 1000
next table: 1229
cur table: 1227
epoch: 1000
next table: 1211
cur table: 1212
epoch: 1000
next table: 1231
cur table: 1229
epoch: 1000
next table: 1215
cur table: 1211
epoch: 1000
next table: 1234
cur table: 1231
epoch: 1000
next table: 1212
cur table: 1215
epoch: 1000
next table: 1229
cur table: 1234
epoch: 1000
next table: 1214
cur table: 1212
epoch: 1000
next table: 1221
cur table: 1229
epoch: 1000
next table: 1210
cur table: 1214
epoch: 1000
next table: 1222
cur table: 1221
epoch: 1000
next table: 1204
cur table: 1210
epoch: 1000
next table: 1239
cur table: 1222
epoch: 1000
next table: 1209
cur table: 1204
epoch: 1000
next table: 1224
cur table: 1239
epoch: 1000
next table: 1207
cur table: 1209
epoch: 1000
next table: 1228
cur table: 1224
epoch: 1000
next table: 1210
cur table: 1207
epoch: 1000
next table: 1223
cur table: 1228
epoch: 1000
next table: 1207
cur table: 1210
epoch: 1000
next table: 1226
cur table: 1223
epoch: 1000
next table: 1208
cur table: 1207
epoch: 1000
next table: 1224
cur table: 1226
epoch: 1000
next table: 1210
cur table: 1208
epoch: 1000
next table: 1231
cur table: 1224
epoch: 1000
next table: 1209
cur table: 1210
epoch: 1000
next table: 1231
cur table: 1231
epoch: 1000
next table: 1211
cur table: 1209
epoch: 1000
next table: 1234
cur table: 1231
epoch: 1000
next table: 1208
cur table: 1211
epoch: 1000
next table: 1232
cur table: 1234
epoch: 1000
next table: 1208
cur table: 1208
epoch: 1000
next table: 1228
cur table: 1232
epoch: 1000
next table: 1209
cur table: 1208
epoch: 1000
next table: 1230
cur table: 1228
epoch: 1000
next table: 1215
cur table: 1209
epoch: 1000
next table: 1228
cur table: 1230
epoch: 1000
next table: 1214
cur table: 1215
epoch: 1000
next table: 1235
cur table: 1228
epoch: 1000
next table: 1215
cur table: 1214
epoch: 1000
next table: 1230
cur table: 1235
epoch: 1000
next table: 1213
cur table: 1215
epoch: 1000
next table: 1227
cur table: 1230
epoch: 1000
next table: 1207
cur table: 1213
epoch: 1000
next table: 1223
cur table: 1227
epoch: 1000
next table: 1208
cur table: 1207
epoch: 1000
next table: 1228
cur table: 1223
epoch: 1000
next table: 1205
cur table: 1208
epoch: 1000
next table: 1228
cur table: 1228
epoch: 1000
next table: 1210
cur table: 1205
epoch: 1000
next table: 1221
cur table: 1228
epoch: 1000
next table: 1210
cur table: 1210
epoch: 1000
next table: 1226
cur table: 1221
epoch: 1000
next table: 1210
cur table: 1210
epoch: 1000
next table: 1224
cur table: 1226
epoch: 1000
next table: 1206
cur table: 1210
epoch: 1000
next table: 1238
cur table: 1224
epoch: 1000
next table: 1209
cur table: 1206
epoch: 1000
next table: 1229
cur table: 1238
epoch: 1000
next table: 1212
cur table: 1209
epoch: 1000
next table: 1229
cur table: 1229
epoch: 1000
next table: 1210
cur table: 1212
epoch: 1000
next table: 1231
cur table: 1229
epoch: 1000
next table: 1216
cur table: 1210
epoch: 1000
next table: 1232
cur table: 1231
epoch: 1000
next table: 1213
cur table: 1216
epoch: 1000
next table: 1226
cur table: 1232
epoch: 1000
next table: 1210
cur table: 1213
epoch: 1000
next table: 1224
cur table: 1226
epoch: 1000
next table: 1206
cur table: 1210
epoch: 1000
next table: 1225
cur table: 1224
epoch: 1000
next table: 1207
cur table: 1206
epoch: 1000
next table: 1226
cur table: 1225
epoch: 1000
next table: 1211
cur table: 1207
epoch: 1000
next table: 1229
cur table: 1226
epoch: 1000
next table: 1207
cur table: 1211
epoch: 1000
next table: 1219
cur table: 1229
epoch: 1000
next table: 1210
cur table: 1207
epoch: 1000
next table: 1225
cur table: 1219
Heartbeat CPU 0 instructions: 10000002 cycles: 2873041 heartbeat IPC: 3.48063 cumulative IPC: 3.48063 (Simulation time: 0 hr 7 min 7 sec) 
epoch: 1000
next table: 1208
cur table: 1210
epoch: 1000
next table: 1226
cur table: 1225
epoch: 1000
next table: 1207
cur table: 1208
epoch: 1000
next table: 1228
cur table: 1226
epoch: 1000
next table: 1211
cur table: 1207
epoch: 1000
next table: 1231
cur table: 1228
epoch: 1000
next table: 1211
cur table: 1211
epoch: 1000
next table: 1229
cur table: 1231
epoch: 1000
next table: 1209
cur table: 1211
epoch: 1000
next table: 1238
cur table: 1229
epoch: 1000
next table: 1216
cur table: 1209
epoch: 1000
next table: 1228
cur table: 1238
epoch: 1000
next table: 1214
cur table: 1216
epoch: 1000
next table: 1229
cur table: 1228
epoch: 1000
next table: 1215
cur table: 1214
epoch: 1000
next table: 1228
cur table: 1229
epoch: 1000
next table: 1227
cur table: 1215
epoch: 1000
next table: 1227
cur table: 1228
epoch: 1000
next table: 1229
cur table: 1227
epoch: 1000
next table: 1231
cur table: 1227
epoch: 1000
next table: 1234
cur table: 1231
epoch: 1000
next table: 1237
cur table: 1229
epoch: 1000
next table: 1240
cur table: 1234
epoch: 1000
next table: 1242
cur table: 1237
epoch: 1000
next table: 1228
cur table: 1240
epoch: 1000
next table: 1229
cur table: 1242
epoch: 1000
next table: 1224
cur table: 1228
epoch: 1000
next table: 1220
cur table: 1229
epoch: 1000
next table: 1227
cur table: 1224
epoch: 1000
next table: 1208
cur table: 1220
epoch: 1000
next table: 1225
cur table: 1227
epoch: 1000
next table: 1208
cur table: 1208
epoch: 1000
next table: 1225
cur table: 1225
epoch: 1000
next table: 1208
cur table: 1208
epoch: 1000
next table: 1226
cur table: 1225
epoch: 1000
next table: 1209
cur table: 1208
epoch: 1000
next table: 1229
cur table: 1226
epoch: 1000
next table: 1207
cur table: 1209
epoch: 1000
next table: 1227
cur table: 1229
epoch: 1000
next table: 1213
cur table: 1207
epoch: 1000
next table: 1228
cur table: 1227
epoch: 1000
next table: 1211
cur table: 1213
epoch: 1000
next table: 1226
cur table: 1228
epoch: 1000
next table: 1218
cur table: 1211
epoch: 1000
next table: 1232
cur table: 1226
epoch: 1000
next table: 1210
cur table: 1218
epoch: 1000
next table: 1226
cur table: 1232
epoch: 1000
next table: 1211
cur table: 1210
epoch: 1000
next table: 1224
cur table: 1226
epoch: 1000
next table: 1206
cur table: 1211
epoch: 1000
next table: 1225
cur table: 1224
epoch: 1000
next table: 1205
cur table: 1206
epoch: 1000
next table: 1227
cur table: 1225
epoch: 1000
next table: 1213
cur table: 1205
epoch: 1000
next table: 1222
cur table: 1227
epoch: 1000
next table: 1207
cur table: 1213
epoch: 1000
next table: 1225
cur table: 1222
epoch: 1000
next table: 1210
cur table: 1207
epoch: 1000
next table: 1227
cur table: 1225
epoch: 1000
next table: 1204
cur table: 1210
epoch: 1000
next table: 1229
cur table: 1227
epoch: 1000
next table: 1212
cur table: 1204
epoch: 1000
next table: 1221
cur table: 1229
epoch: 1000
next table: 1214
cur table: 1212
epoch: 1000
next table: 1232
cur table: 1221
epoch: 1000
next table: 1209
cur table: 1214
epoch: 1000
next table: 1249
cur table: 1232
epoch: 1000
next table: 1208
cur table: 1209
epoch: 1000
next table: 1232
cur table: 1249
epoch: 1000
next table: 1206
cur table: 1208
epoch: 1000
next table: 1229
cur table: 1232
epoch: 1000
next table: 1211
cur table: 1206
epoch: 1000
next table: 1225
cur table: 1229
epoch: 1000
next table: 1210
cur table: 1211
epoch: 1000
next table: 1230
cur table: 1225
epoch: 1000
next table: 1215
cur table: 1210
epoch: 1000
next table: 1229
cur table: 1230
epoch: 1000
next table: 1215
cur table: 1215
epoch: 1000
next table: 1233
cur table: 1229
epoch: 1000
next table: 1213
cur table: 1215
epoch: 1000
next table: 1230
cur table: 1233
epoch: 1000
next table: 1212
cur table: 1213
epoch: 1000
next table: 1227
cur table: 1230
epoch: 1000
next table: 1210
cur table: 1212
epoch: 1000
next table: 1228
cur table: 1227
epoch: 1000
next table: 1206
cur table: 1210
epoch: 1000
next table: 1220
cur table: 1228
epoch: 1000
next table: 1207
cur table: 1206
epoch: 1000
next table: 1227
cur table: 1220
epoch: 1000
next table: 1209
cur table: 1207
epoch: 1000
next table: 1226
cur table: 1227
epoch: 1000
next table: 1211
cur table: 1209
epoch: 1000
next table: 1227
cur table: 1226
epoch: 1000
next table: 1206
cur table: 1211
epoch: 1000
next table: 1225
cur table: 1227
epoch: 1000
next table: 1208
cur table: 1206
epoch: 1000
next table: 1227
cur table: 1225
epoch: 1000
next table: 1212
cur table: 1208
epoch: 1000
next table: 1225
cur table: 1227
epoch: 1000
next table: 1214
cur table: 1212
epoch: 1000
next table: 1232
cur table: 1225
epoch: 1000
next table: 1212
cur table: 1214
epoch: 1000
next table: 1231
cur table: 1232
epoch: 1000
next table: 1215
cur table: 1212
epoch: 1000
next table: 1230
cur table: 1231
epoch: 1000
next table: 1215
cur table: 1215
epoch: 1000
next table: 1225
cur table: 1230
epoch: 1000
next table: 1205
cur table: 1215
epoch: 1000
next table: 1227
cur table: 1225
epoch: 1000
next table: 1208
cur table: 1205
epoch: 1000
next table: 1243
cur table: 1227
epoch: 1000
next table: 1207
cur table: 1208
epoch: 1000
next table: 1218
cur table: 1243
epoch: 1000
next table: 1212
cur table: 1207
epoch: 1000
next table: 1226
cur table: 1218
epoch: 1000
next table: 1207
cur table: 1212
epoch: 1000
next table: 1227
cur table: 1226
epoch: 1000
next table: 1211
cur table: 1207
epoch: 1000
next table: 1223
cur table: 1227
epoch: 1000
next table: 1204
cur table: 1211
epoch: 1000
next table: 1224
cur table: 1223
epoch: 1000
next table: 1211
cur table: 1204
epoch: 1000
next table: 1228
cur table: 1224
epoch: 1000
next table: 1210
cur table: 1211
epoch: 1000
next table: 1232
cur table: 1228
epoch: 1000
next table: 1207
cur table: 1210
epoch: 1000
next table: 1235
cur table: 1232
epoch: 1000
next table: 1210
cur table: 1207
epoch: 1000
next table: 1234
cur table: 1235
epoch: 1000
next table: 1208
cur table: 1210
epoch: 1000
next table: 1221
cur table: 1234
epoch: 1000
next table: 1209
cur table: 1208
epoch: 1000
next table: 1229
cur table: 1221
epoch: 1000
next table: 1213
cur table: 1209
epoch: 1000
next table: 1230
cur table: 1229
epoch: 1000
next table: 1212
cur table: 1213
epoch: 1000
next table: 1234
cur table: 1230
epoch: 1000
next table: 1215
cur table: 1212
epoch: 1000
next table: 1232
cur table: 1234
epoch: 1000
next table: 1214
cur table: 1215
epoch: 1000
next table: 1231
cur table: 1232
epoch: 1000
next table: 1212
cur table: 1214
epoch: 1000
next table: 1220
cur table: 1231
epoch: 1000
next table: 1205
cur table: 1212
epoch: 1000
next table: 1228
cur table: 1220
epoch: 1000
next table: 1206
cur table: 1205
epoch: 1000
next table: 1221
cur table: 1228
epoch: 1000
next table: 1212
cur table: 1206
epoch: 1000
next table: 1225
cur table: 1221
epoch: 1000
next table: 1209
cur table: 1212
epoch: 1000
next table: 1227
cur table: 1225
epoch: 1000
next table: 1206
cur table: 1209
epoch: 1000
next table: 1228
cur table: 1227
epoch: 1000
next table: 1208
cur table: 1206
epoch: 1000
next table: 1240
cur table: 1228
epoch: 1000
next table: 1209
cur table: 1208
epoch: 1000
next table: 1225
cur table: 1240
epoch: 1000
next table: 1211
cur table: 1209
epoch: 1000
next table: 1228
cur table: 1225
epoch: 1000
next table: 1214
cur table: 1211
epoch: 1000
next table: 1233
cur table: 1228
epoch: 1000
next table: 1213
cur table: 1214
epoch: 1000
next table: 1233
cur table: 1233
epoch: 1000
next table: 1214
cur table: 1213
epoch: 1000
next table: 1229
cur table: 1233
epoch: 1000
next table: 1213
cur table: 1214
epoch: 1000
next table: 1227
cur table: 1229
epoch: 1000
next table: 1209
cur table: 1213
epoch: 1000
next table: 1225
cur table: 1227
epoch: 1000
next table: 1205
cur table: 1209
epoch: 1000
next table: 1221
cur table: 1225
epoch: 1000
next table: 1209
cur table: 1205
epoch: 1000
next table: 1228
cur table: 1221
epoch: 1000
next table: 1208
cur table: 1209
epoch: 1000
next table: 1227
cur table: 1228
epoch: 1000
next table: 1208
cur table: 1208
epoch: 1000
next table: 1224
cur table: 1227
epoch: 1000
next table: 1208
cur table: 1208
epoch: 1000
next table: 1226
cur table: 1224
epoch: 1000
next table: 1208
cur table: 1208
epoch: 1000
next table: 1222
cur table: 1226
epoch: 1000
next table: 1211
cur table: 1208
epoch: 1000
next table: 1235
cur table: 1222
epoch: 1000
next table: 1210
cur table: 1211
epoch: 1000
next table: 1231
cur table: 1235
epoch: 1000
next table: 1211
cur table: 1210
epoch: 1000
next table: 1238
cur table: 1231
epoch: 1000
next table: 1206
cur table: 1211
epoch: 1000
next table: 1226
cur table: 1238
epoch: 1000
next table: 1207
cur table: 1206
epoch: 1000
next table: 1224
cur table: 1226
epoch: 1000
next table: 1212
cur table: 1207
epoch: 1000
next table: 1233
cur table: 1224
epoch: 1000
next table: 1214
cur table: 1212
epoch: 1000
next table: 1231
cur table: 1233
epoch: 1000
next table: 1214
cur table: 1214
epoch: 1000
next table: 1235
cur table: 1231
epoch: 1000
next table: 1216
cur table: 1214
epoch: 1000
next table: 1235
cur table: 1235
epoch: 1000
next table: 1212
cur table: 1216
epoch: 1000
next table: 1239
cur table: 1235
epoch: 1000
next table: 1207
cur table: 1212
epoch: 1000
next table: 1225
cur table: 1239
epoch: 1000
next table: 1118
cur table: 1207
epoch: 1000
next table: 1041
cur table: 1225
epoch: 1000
next table: 1025
cur table: 1118
epoch: 1000
next table: 1039
cur table: 1041
epoch: 1000
next table: 1024
cur table: 1025
epoch: 1000
next table: 1042
cur table: 1039
epoch: 1000
next table: 1024
cur table: 1024
epoch: 1000
next table: 1039
cur table: 1042
epoch: 1000
next table: 1024
cur table: 1024
epoch: 1000
next table: 1039
cur table: 1039
epoch: 1000
next table: 1025
cur table: 1024
epoch: 1000
next table: 1039
cur table: 1039
epoch: 1000
next table: 1025
cur table: 1025
epoch: 1000
next table: 1041
cur table: 1039
epoch: 1000
next table: 1024
cur table: 1025
epoch: 1000
next table: 1042
cur table: 1041
epoch: 1000
next table: 1025
cur table: 1024
epoch: 1000
next table: 1041
cur table: 1042
epoch: 1000
next table: 1022
cur table: 1025
epoch: 1000
next table: 1039
cur table: 1041
epoch: 1000
next table: 1027
cur table: 1022
epoch: 1000
next table: 1041
cur table: 1039
epoch: 1000
next table: 1025
cur table: 1027
epoch: 1000
next table: 1040
cur table: 1041
epoch: 1000
next table: 1025
cur table: 1025
epoch: 1000
next table: 1040
cur table: 1040
epoch: 1000
next table: 1025
cur table: 1025
epoch: 1000
next table: 1041
cur table: 1040
epoch: 1000
next table: 1026
cur table: 1025
epoch: 1000
next table: 1043
cur table: 1041
epoch: 1000
next table: 1022
cur table: 1026
epoch: 1000
next table: 1038
cur table: 1043
epoch: 1000
next table: 1024
cur table: 1022
epoch: 1000
next table: 1040
cur table: 1038
epoch: 1000
next table: 1023
cur table: 1024
epoch: 1000
next table: 1039
cur table: 1040
epoch: 1000
next table: 1025
cur table: 1023
epoch: 1000
next table: 1041
cur table: 1039
epoch: 1000
next table: 1025
cur table: 1025
epoch: 1000
next table: 1041
cur table: 1041
epoch: 1000
next table: 1024
cur table: 1025
epoch: 1000
next table: 1040
cur table: 1041
epoch: 1000
next table: 1024
cur table: 1024
epoch: 1000
next table: 1042
cur table: 1040
epoch: 1000
next table: 1025
cur table: 1024
epoch: 1000
next table: 1040
cur table: 1042
epoch: 1000
next table: 1024
cur table: 1025
epoch: 1000
next table: 1042
cur table: 1040
epoch: 1000
next table: 1027
cur table: 1024
epoch: 1000
next table: 1041
cur table: 1042
epoch: 1000
next table: 1024
cur table: 1027
epoch: 1000
next table: 1040
cur table: 1041
epoch: 1000
next table: 1026
cur table: 1024
epoch: 1000
next table: 1037
cur table: 1040
epoch: 1000
next table: 1023
cur table: 1026
epoch: 1000
next table: 1041
cur table: 1037
epoch: 1000
next table: 1026
cur table: 1023
epoch: 1000
next table: 1041
cur table: 1041
epoch: 1000
next table: 1023
cur table: 1026
epoch: 1000
next table: 1041
cur table: 1041
epoch: 1000
next table: 1025
cur table: 1023
epoch: 1000
next table: 1043
cur table: 1041
epoch: 1000
next table: 1026
cur table: 1025
epoch: 1000
next table: 1041
cur table: 1043
epoch: 1000
next table: 1025
cur table: 1026
epoch: 1000
next table: 1039
cur table: 1041
epoch: 1000
next table: 1025
cur table: 1025
epoch: 1000
next table: 1041
cur table: 1039
epoch: 1000
next table: 1025
cur table: 1025
epoch: 1000
next table: 1040
cur table: 1041
epoch: 1000
next table: 1024
cur table: 1025
epoch: 1000
next table: 1040
cur table: 1040
epoch: 1000
next table: 1025
cur table: 1024
epoch: 1000
next table: 1041
cur table: 1040
epoch: 1000
next table: 1024
cur table: 1025
epoch: 1000
next table: 1041
cur table: 1041
epoch: 1000
next table: 1025
cur table: 1024
epoch: 1000
next table: 1038
cur table: 1041
epoch: 1000
next table: 1026
cur table: 1025
epoch: 1000
next table: 1042
cur table: 1038
epoch: 1000
next table: 1024
cur table: 1026
epoch: 1000
next table: 1039
cur table: 1042
epoch: 1000
next table: 1024
cur table: 1024
epoch: 1000
next table: 1041
cur table: 1039
epoch: 1000
next table: 1025
cur table: 1024
epoch: 1000
next table: 1041
cur table: 1041
epoch: 1000
next table: 1024
cur table: 1025
epoch: 1000
next table: 1039
cur table: 1041
epoch: 1000
next table: 1023
cur table: 1024
epoch: 1000
next table: 1043
cur table: 1039
epoch: 1000
next table: 1026
cur table: 1023
epoch: 1000
next table: 1039
cur table: 1043
epoch: 1000
next table: 1024
cur table: 1026
epoch: 1000
next table: 1039
cur table: 1039
epoch: 1000
next table: 1026
cur table: 1024
epoch: 1000
next table: 1039
cur table: 1039
epoch: 1000
next table: 1024
cur table: 1026
epoch: 1000
next table: 1041
cur table: 1039
epoch: 1000
next table: 1026
cur table: 1024
epoch: 1000
next table: 1044
cur table: 1041
epoch: 1000
next table: 1023
cur table: 1026
epoch: 1000
next table: 1041
cur table: 1044
epoch: 1000
next table: 1026
cur table: 1023
epoch: 1000
next table: 1039
cur table: 1041
epoch: 1000
next table: 1024
cur table: 1026
epoch: 1000
next table: 1039
cur table: 1039
epoch: 1000
next table: 1022
cur table: 1024
epoch: 1000
next table: 1042
cur table: 1039
epoch: 1000
next table: 1025
cur table: 1022
epoch: 1000
next table: 1039
cur table: 1042
epoch: 1000
next table: 1025
cur table: 1025
epoch: 1000
next table: 1041
cur table: 1039
epoch: 1000
next table: 1025
cur table: 1025
epoch: 1000
next table: 1041
cur table: 1041
epoch: 1000
next table: 1024
cur table: 1025
epoch: 1000
next table: 1039
cur table: 1041
epoch: 1000
next table: 1023
cur table: 1024
epoch: 1000
next table: 1042
cur table: 1039
epoch: 1000
next table: 1025
cur table: 1023
epoch: 1000
next table: 1039
cur table: 1042
epoch: 1000
next table: 1025
cur table: 1025
epoch: 1000
next table: 1037
cur table: 1039
epoch: 1000
next table: 1025
cur table: 1025
epoch: 1000
next table: 1041
cur table: 1037
epoch: 1000
next table: 1025
cur table: 1025
epoch: 1000
next table: 1041
cur table: 1041
epoch: 1000
next table: 1023
cur table: 1025
epoch: 1000
next table: 1042
cur table: 1041
epoch: 1000
next table: 1024
cur table: 1023
epoch: 1000
next table: 1041
cur table: 1042
epoch: 1000
next table: 1023
cur table: 1024
epoch: 1000
next table: 1039
cur table: 1041
epoch: 1000
next table: 1026
cur table: 1023
epoch: 1000
next table: 1043
cur table: 1039
epoch: 1000
next table: 1026
cur table: 1026
epoch: 1000
next table: 1041
cur table: 1043
epoch: 1000
next table: 1024
cur table: 1026
epoch: 1000
next table: 1039
cur table: 1041
epoch: 1000
next table: 1023
cur table: 1024
epoch: 1000
next table: 1039
cur table: 1039
epoch: 1000
next table: 1026
cur table: 1023
epoch: 1000
next table: 1039
cur table: 1039
epoch: 1000
next table: 1024
cur table: 1026
epoch: 1000
next table: 1041
cur table: 1039
epoch: 1000
next table: 1025
cur table: 1024
epoch: 1000
next table: 1040
cur table: 1041
epoch: 1000
next table: 1024
cur table: 1025
epoch: 1000
next table: 1039
cur table: 1040
epoch: 1000
next table: 1025
cur table: 1024
Heartbeat CPU 0 instructions: 20000002 cycles: 5707406 heartbeat IPC: 3.52813 cumulative IPC: 3.50422 (Simulation time: 0 hr 12 min 49 sec) 
epoch: 1000
next table: 1039
cur table: 1039
epoch: 1000
next table: 1025
cur table: 1025
epoch: 1000
next table: 1041
cur table: 1039
epoch: 1000
next table: 1024
cur table: 1025
epoch: 1000
next table: 1041
cur table: 1041
epoch: 1000
next table: 1024
cur table: 1024
epoch: 1000
next table: 1042
cur table: 1041
epoch: 1000
next table: 1023
cur table: 1024
epoch: 1000
next table: 1039
cur table: 1042
epoch: 1000
next table: 1024
cur table: 1023
epoch: 1000
next table: 1041
cur table: 1039
epoch: 1000
next table: 1026
cur table: 1024
epoch: 1000
next table: 1039
cur table: 1041
epoch: 1000
next table: 1025
cur table: 1026
epoch: 1000
next table: 1039
cur table: 1039
epoch: 1000
next table: 1024
cur table: 1025
epoch: 1000
next table: 1040
cur table: 1039
epoch: 1000
next table: 1024
cur table: 1024
epoch: 1000
next table: 1042
cur table: 1040
epoch: 1000
next table: 1028
cur table: 1024
epoch: 1000
next table: 1041
cur table: 1042
epoch: 1000
next table: 1025
cur table: 1028
epoch: 1000
next table: 1041
cur table: 1041
epoch: 1000
next table: 1024
cur table: 1025
epoch: 1000
next table: 1040
cur table: 1041
epoch: 1000
next table: 1024
cur table: 1024
epoch: 1000
next table: 1043
cur table: 1040
epoch: 1000
next table: 1026
cur table: 1024
epoch: 1000
next table: 1042
cur table: 1043
epoch: 1000
next table: 1025
cur table: 1026
epoch: 1000
next table: 1040
cur table: 1042
epoch: 1000
next table: 1025
cur table: 1025
epoch: 1000
next table: 1041
cur table: 1040
epoch: 1000
next table: 1024
cur table: 1025
epoch: 1000
next table: 1041
cur table: 1041
epoch: 1000
next table: 1025
cur table: 1024
epoch: 1000
next table: 1043
cur table: 1041
epoch: 1000
next table: 1026
cur table: 1025
epoch: 1000
next table: 1041
cur table: 1043
epoch: 1000
next table: 1025
cur table: 1026
epoch: 1000
next table: 1038
cur table: 1041
epoch: 1000
next table: 1027
cur table: 1025
epoch: 1000
next table: 1040
cur table: 1038
epoch: 1000
next table: 1025
cur table: 1027
epoch: 1000
next table: 1043
cur table: 1040
epoch: 1000
next table: 1025
cur table: 1025
epoch: 1000
next table: 1042
cur table: 1043
epoch: 1000
next table: 1024
cur table: 1025
epoch: 1000
next table: 1041
cur table: 1042
epoch: 1000
next table: 1024
cur table: 1024
epoch: 1000
next table: 1039
cur table: 1041
epoch: 1000
next table: 1024
cur table: 1024
epoch: 1000
next table: 1042
cur table: 1039
epoch: 1000
next table: 1026
cur table: 1024
epoch: 1000
next table: 1040
cur table: 1042
epoch: 1000
next table: 1025
cur table: 1026
epoch: 1000
next table: 1046
cur table: 1040
epoch: 1000
next table: 1026
cur table: 1025
epoch: 1000
next table: 1037
cur table: 1046
epoch: 1000
next table: 1026
cur table: 1026
epoch: 1000
next table: 1040
cur table: 1037
epoch: 1000
next table: 1043
cur table: 1026
epoch: 1000
next table: 1063
cur table: 1040
epoch: 1000
next table: 1025
cur table: 1043
epoch: 1000
next table: 1040
cur table: 1063
epoch: 1000
next table: 1027
cur table: 1025
epoch: 1000
next table: 1042
cur table: 1040
epoch: 1000
next table: 1027
cur table: 1027
epoch: 1000
next table: 1040
cur table: 1042
epoch: 1000
next table: 1025
cur table: 1027
epoch: 1000
next table: 1043
cur table: 1040
epoch: 1000
next table: 1024
cur table: 1025
epoch: 1000
next table: 1044
cur table: 1043
epoch: 1000
next table: 1025
cur table: 1024
epoch: 1000
next table: 1040
cur table: 1044
epoch: 1000
next table: 1027
cur table: 1025
epoch: 1000
next table: 1042
cur table: 1040
epoch: 1000
next table: 1027
cur table: 1027
epoch: 1000
next table: 1040
cur table: 1042
epoch: 1000
next table: 1025
cur table: 1027
epoch: 1000
next table: 1041
cur table: 1040
epoch: 1000
next table: 1024
cur table: 1025
epoch: 1000
next table: 1041
cur table: 1041
epoch: 1000
next table: 1027
cur table: 1024
epoch: 1000
next table: 1042
cur table: 1041
epoch: 1000
next table: 1025
cur table: 1027
epoch: 1000
next table: 1040
cur table: 1042
epoch: 1000
next table: 1027
cur table: 1025
epoch: 1000
next table: 1042
cur table: 1040
epoch: 1000
next table: 1025
cur table: 1027
epoch: 1000
next table: 1043
cur table: 1042
epoch: 1000
next table: 1026
cur table: 1025
epoch: 1000
next table: 1040
cur table: 1043
epoch: 1000
next table: 1026
cur table: 1026
epoch: 1000
next table: 1042
cur table: 1040
epoch: 1000
next table: 1026
cur table: 1026
epoch: 1000
next table: 1041
cur table: 1042
epoch: 1000
next table: 1023
cur table: 1026
epoch: 1000
next table: 1042
cur table: 1041
epoch: 1000
next table: 1025
cur table: 1023
epoch: 1000
next table: 1043
cur table: 1042
epoch: 1000
next table: 1025
cur table: 1025
epoch: 1000
next table: 1040
cur table: 1043
epoch: 1000
next table: 1025
cur table: 1025
epoch: 1000
next table: 1038
cur table: 1040
epoch: 1000
next table: 1026
cur table: 1025
epoch: 1000
next table: 1041
cur table: 1038
epoch: 1000
next table: 1025
cur table: 1026
epoch: 1000
next table: 1041
cur table: 1041
epoch: 1000
next table: 1027
cur table: 1025
epoch: 1000
next table: 1043
cur table: 1041
epoch: 1000
next table: 1024
cur table: 1027
epoch: 1000
next table: 1042
cur table: 1043
epoch: 1000
next table: 1026
cur table: 1024
epoch: 1000
next table: 1040
cur table: 1042
epoch: 1000
next table: 1025
cur table: 1026
epoch: 1000
next table: 1042
cur table: 1040
epoch: 1000
next table: 1025
cur table: 1025
epoch: 1000
next table: 1041
cur table: 1042
epoch: 1000
next table: 1027
cur table: 1025
epoch: 1000
next table: 1041
cur table: 1041
epoch: 1000
next table: 1025
cur table: 1027
epoch: 1000
next table: 1042
cur table: 1041
epoch: 1000
next table: 1024
cur table: 1025
epoch: 1000
next table: 1042
cur table: 1042
epoch: 1000
next table: 1027
cur table: 1024
epoch: 1000
next table: 1043
cur table: 1042
epoch: 1000
next table: 1027
cur table: 1027
epoch: 1000
next table: 1042
cur table: 1043
epoch: 1000
next table: 1025
cur table: 1027
epoch: 1000
next table: 1040
cur table: 1042
epoch: 1000
next table: 1025
cur table: 1025
epoch: 1000
next table: 1039
cur table: 1040
epoch: 1000
next table: 1025
cur table: 1025
epoch: 1000
next table: 1039
cur table: 1039
epoch: 1000
next table: 1026
cur table: 1025
epoch: 1000
next table: 1043
cur table: 1039
epoch: 1000
next table: 1026
cur table: 1026
epoch: 1000
next table: 1042
cur table: 1043
epoch: 1000
next table: 1024
cur table: 1026
epoch: 1000
next table: 1042
cur table: 1042
epoch: 1000
next table: 1024
cur table: 1024
epoch: 1000
next table: 1042
cur table: 1042
epoch: 1000
next table: 1025
cur table: 1024
epoch: 1000
next table: 1038
cur table: 1042
epoch: 1000
next table: 1026
cur table: 1025
epoch: 1000
next table: 1041
cur table: 1038
epoch: 1000
next table: 1025
cur table: 1026
epoch: 1000
next table: 1043
cur table: 1041
epoch: 1000
next table: 1026
cur table: 1025
epoch: 1000
next table: 1040
cur table: 1043
epoch: 1000
next table: 1024
cur table: 1026
epoch: 1000
next table: 1042
cur table: 1040
epoch: 1000
next table: 1028
cur table: 1024
epoch: 1000
next table: 1040
cur table: 1042
epoch: 1000
next table: 1025
cur table: 1028
epoch: 1000
next table: 1043
cur table: 1040
epoch: 1000
next table: 1025
cur table: 1025
epoch: 1000
next table: 1043
cur table: 1043
epoch: 1000
next table: 1026
cur table: 1025
epoch: 1000
next table: 1042
cur table: 1043
epoch: 1000
next table: 1029
cur table: 1026
epoch: 1000
next table: 1040
cur table: 1042
epoch: 1000
next table: 1023
cur table: 1029
epoch: 1000
next table: 1042
cur table: 1040
epoch: 1000
next table: 1024
cur table: 1023
epoch: 1000
next table: 1041
cur table: 1042
epoch: 1000
next table: 1024
cur table: 1024
epoch: 1000
next table: 1041
cur table: 1041
epoch: 1000
next table: 1024
cur table: 1024
epoch: 1000
next table: 1039
cur table: 1041
epoch: 1000
next table: 1025
cur table: 1024
epoch: 1000
next table: 1040
cur table: 1039
epoch: 1000
next table: 1024
cur table: 1025
epoch: 1000
next table: 1040
cur table: 1040
epoch: 1000
next table: 1025
cur table: 1024
epoch: 1000
next table: 1043
cur table: 1040
epoch: 1000
next table: 1028
cur table: 1025
epoch: 1000
next table: 1041
cur table: 1043
epoch: 1000
next table: 1027
cur table: 1028
epoch: 1000
next table: 1041
cur table: 1041
epoch: 1000
next table: 1026
cur table: 1027
epoch: 1000
next table: 1043
cur table: 1041
epoch: 1000
next table: 1024
cur table: 1026
epoch: 1000
next table: 1039
cur table: 1043
epoch: 1000
next table: 1025
cur table: 1024
epoch: 1000
next table: 1042
cur table: 1039
epoch: 1000
next table: 1026
cur table: 1025
epoch: 1000
next table: 1040
cur table: 1042
epoch: 1000
next table: 1026
cur table: 1026
epoch: 1000
next table: 1040
cur table: 1040
epoch: 1000
next table: 1023
cur table: 1026
epoch: 1000
next table: 1042
cur table: 1040
epoch: 1000
next table: 1025
cur table: 1023
epoch: 1000
next table: 1041
cur table: 1042
epoch: 1000
next table: 1024
cur table: 1025
epoch: 1000
next table: 1042
cur table: 1041
epoch: 1000
next table: 1027
cur table: 1024
epoch: 1000
next table: 1039
cur table: 1042
epoch: 1000
next table: 1024
cur table: 1027
epoch: 1000
next table: 1042
cur table: 1039
epoch: 1000
next table: 1025
cur table: 1024
epoch: 1000
next table: 1039
cur table: 1042
epoch: 1000
next table: 1024
cur table: 1025
epoch: 1000
next table: 1039
cur table: 1039
epoch: 1000
next table: 1027
cur table: 1024
epoch: 1000
next table: 1042
cur table: 1039
epoch: 1000
next table: 1026
cur table: 1027
epoch: 1000
next table: 1041
cur table: 1042
epoch: 1000
next table: 1023
cur table: 1026
epoch: 1000
next table: 1042
cur table: 1041
epoch: 1000
next table: 1026
cur table: 1023
epoch: 1000
next table: 1041
cur table: 1042
epoch: 1000
next table: 1024
cur table: 1026
epoch: 1000
next table: 1039
cur table: 1041
epoch: 1000
next table: 1026
cur table: 1024
epoch: 1000
next table: 1040
cur table: 1039
epoch: 1000
next table: 1025
cur table: 1026
epoch: 1000
next table: 1041
cur table: 1040
epoch: 1000
next table: 1025
cur table: 1025
epoch: 1000
next table: 1040
cur table: 1041
epoch: 1000
next table: 1024
cur table: 1025
epoch: 1000
next table: 1042
cur table: 1040
epoch: 1000
next table: 1025
cur table: 1024
epoch: 1000
next table: 1040
cur table: 1042
epoch: 1000
next table: 1025
cur table: 1025
epoch: 1000
next table: 1042
cur table: 1040
epoch: 1000
next table: 1025
cur table: 1025
epoch: 1000
next table: 1041
cur table: 1042
epoch: 1000
next table: 1026
cur table: 1025
epoch: 1000
next table: 1043
cur table: 1041
epoch: 1000
next table: 1024
cur table: 1026
epoch: 1000
next table: 1041
cur table: 1043
epoch: 1000
next table: 1027
cur table: 1024
epoch: 1000
next table: 1039
cur table: 1041
epoch: 1000
next table: 1024
cur table: 1027
epoch: 1000
next table: 1041
cur table: 1039
epoch: 1000
next table: 1024
cur table: 1024
epoch: 1000
next table: 1040
cur table: 1041
epoch: 1000
next table: 1023
cur table: 1024
epoch: 1000
next table: 1039
cur table: 1040
epoch: 1000
next table: 1025
cur table: 1023
epoch: 1000
next table: 1040
cur table: 1039
epoch: 1000
next table: 1027
cur table: 1025
epoch: 1000
next table: 1043
cur table: 1040
epoch: 1000
next table: 1025
cur table: 1027
epoch: 1000
next table: 1039
cur table: 1043
epoch: 1000
next table: 1027
cur table: 1025
epoch: 1000
next table: 1044
cur table: 1039
epoch: 1000
next table: 1024
cur table: 1027
epoch: 1000
next table: 1041
cur table: 1044
epoch: 1000
next table: 1023
cur table: 1024
epoch: 1000
next table: 1039
cur table: 1041
epoch: 1000
next table: 1025
cur table: 1023
epoch: 1000
next table: 1041
cur table: 1039
epoch: 1000
next table: 1024
cur table: 1025
epoch: 1000
next table: 1039
cur table: 1041
epoch: 1000
next table: 1025
cur table: 1024
epoch: 1000
next table: 1041
cur table: 1039
epoch: 1000
next table: 1025
cur table: 1025
epoch: 1000
next table: 1042
cur table: 1041
epoch: 1000
next table: 1024
cur table: 1025
epoch: 1000
next table: 1040
cur table: 1042
epoch: 1000
next table: 1026
cur table: 1024
epoch: 1000
next table: 1041
cur table: 1040
epoch: 1000
next table: 1024
cur table: 1026
epoch: 1000
next table: 1045
cur table: 1041
epoch: 1000
next table: 1027
cur table: 1024
epoch: 1000
next table: 1039
cur table: 1045
epoch: 1000
next table: 1023
cur table: 1027
epoch: 1000
next table: 1040
cur table: 1039
epoch: 1000
next table: 1028
cur table: 1023
epoch: 1000
next table: 1098
cur table: 1040
epoch: 1000
next table: 1215
cur table: 1028
epoch: 1000
next table: 1252
cur table: 1098
epoch: 1000
next table: 1277
cur table: 1215
epoch: 1000
next table: 1273
cur table: 1252
epoch: 1000
next table: 1275
cur table: 1277
epoch: 1000
next table: 1279
cur table: 1273
epoch: 1000
next table: 1264
cur table: 1275
epoch: 1000
next table: 1266
cur table: 1279
epoch: 1000
next table: 1260
cur table: 1266
epoch: 1000
next table: 1274
cur table: 1264
epoch: 1000
next table: 1276
cur table: 1260
epoch: 1000
next table: 1271
cur table: 1274
epoch: 1000
next table: 1272
cur table: 1276
epoch: 1000
next table: 1256
cur table: 1271
epoch: 1000
next table: 1261
cur table: 1272
epoch: 1000
next table: 1286
cur table: 1256
epoch: 1000
next table: 1273
cur table: 1261
epoch: 1000
next table: 1259
cur table: 1286
epoch: 1000
next table: 1274
cur table: 1273
epoch: 1000
next table: 1250
cur table: 1259
epoch: 1000
next table: 1270
cur table: 1274
epoch: 1000
next table: 1258
cur table: 1250
epoch: 1000
next table: 1274
cur table: 1270
epoch: 1000
next table: 1265
cur table: 1258
epoch: 1000
next table: 1281
cur table: 1274
epoch: 1000
next table: 1255
cur table: 1265
epoch: 1000
next table: 1283
cur table: 1281
epoch: 1000
next table: 1255
cur table: 1255
epoch: 1000
next table: 1275
cur table: 1283
epoch: 1000
next table: 1265
cur table: 1255
epoch: 1000
next table: 1294
cur table: 1275
epoch: 1000
next table: 1275
cur table: 1265
epoch: 1000
next table: 1272
cur table: 1294
epoch: 1000
next table: 1267
cur table: 1275
epoch: 1000
next table: 1275
cur table: 1272
epoch: 1000
next table: 1256
cur table: 1267
epoch: 1000
next table: 1280
cur table: 1275
epoch: 1000
next table: 1253
cur table: 1256
epoch: 1000
next table: 1280
cur table: 1280
epoch: 1000
next table: 1246
cur table: 1253
epoch: 1000
next table: 1286
cur table: 1280
epoch: 1000
next table: 1254
cur table: 1246
epoch: 1000
next table: 1270
cur table: 1286
epoch: 1000
next table: 1255
cur table: 1254
epoch: 1000
next table: 1282
cur table: 1270
epoch: 1000
next table: 1243
cur table: 1255
epoch: 1000
next table: 1278
cur table: 1282
epoch: 1000
next table: 1255
cur table: 1243
epoch: 1000
next table: 1261
cur table: 1278
epoch: 1000
next table: 1251
cur table: 1255
epoch: 1000
next table: 1274
cur table: 1261
epoch: 1000
next table: 1276
cur table: 1274
epoch: 1000
next table: 1262
cur table: 1251
epoch: 1000
next table: 1263
cur table: 1276
epoch: 1000
next table: 1244
cur table: 1262
epoch: 1000
next table: 1274
cur table: 1263
epoch: 1000
next table: 1252
cur table: 1244
epoch: 1000
next table: 1272
cur table: 1274
epoch: 1000
next table: 1253
cur table: 1252
epoch: 1000
next table: 1269
cur table: 1272
epoch: 1000
next table: 1256
cur table: 1253
epoch: 1000
next table: 1266
cur table: 1269
epoch: 1000
next table: 1272
cur table: 1256
epoch: 1000
next table: 1268
cur table: 1266
epoch: 1000
next table: 1253
cur table: 1272
epoch: 1000
next table: 1271
cur table: 1268
epoch: 1000
next table: 1255
cur table: 1253
epoch: 1000
next table: 1270
cur table: 1271
epoch: 1000
next table: 1269
cur table: 1255
epoch: 1000
next table: 1259
cur table: 1270
epoch: 1000
next table: 1253
cur table: 1269
epoch: 1000
next table: 1269
cur table: 1259
epoch: 1000
next table: 1256
cur table: 1253
epoch: 1000
next table: 1269
cur table: 1269
epoch: 1000
next table: 1243
cur table: 1256
epoch: 1000
next table: 1267
cur table: 1269
epoch: 1000
next table: 1262
cur table: 1243
epoch: 1000
next table: 1270
cur table: 1267
epoch: 1000
next table: 1252
cur table: 1262
epoch: 1000
next table: 1280
cur table: 1270
epoch: 1000
next table: 1266
cur table: 1252
epoch: 1000
next table: 1269
cur table: 1280
epoch: 1000
next table: 1248
cur table: 1266
epoch: 1000
next table: 1276
cur table: 1269
epoch: 1000
next table: 1264
cur table: 1248
epoch: 1000
next table: 1287
cur table: 1276
epoch: 1000
next table: 1262
cur table: 1264
epoch: 1000
next table: 1282
cur table: 1287
epoch: 1000
next table: 1285
cur table: 1262
epoch: 1000
next table: 1288
cur table: 1282
epoch: 1000
next table: 1267
cur table: 1285
epoch: 1000
next table: 1268
cur table: 1288
epoch: 1000
next table: 1285
cur table: 1267
epoch: 1000
next table: 1278
cur table: 1268
epoch: 1000
next table: 1282
cur table: 1285
epoch: 1000
next table: 1284
cur table: 1278
epoch: 1000
next table: 1267
cur table: 1282
epoch: 1000
next table: 1277
cur table: 1284
epoch: 1000
next table: 1251
cur table: 1267
epoch: 1000
next table: 1281
cur table: 1277
epoch: 1000
next table: 1255
cur table: 1251
epoch: 1000
next table: 1256
cur table: 1281
epoch: 1000
next table: 1259
cur table: 1255
epoch: 1000
next table: 1271
cur table: 1256
epoch: 1000
next table: 1262
cur table: 1259
epoch: 1000
next table: 1276
cur table: 1271
epoch: 1000
next table: 1259
cur table: 1276
epoch: 1000
next table: 1242
cur table: 1262
epoch: 1000
next table: 1270
cur table: 1259
epoch: 1000
next table: 1258
cur table: 1242
epoch: 1000
next table: 1272
cur table: 1270
epoch: 1000
next table: 1259
cur table: 1258
epoch: 1000
next table: 1263
cur table: 1272
epoch: 1000
next table: 1259
cur table: 1259
epoch: 1000
next table: 1272
cur table: 1263
epoch: 1000
next table: 1268
cur table: 1259
epoch: 1000
next table: 1270
cur table: 1272
epoch: 1000
next table: 1255
cur table: 1268
epoch: 1000
next table: 1279
cur table: 1270
epoch: 1000
next table: 1257
cur table: 1255
epoch: 1000
next table: 1265
cur table: 1279
epoch: 1000
next table: 1278
cur table: 1257
epoch: 1000
next table: 1285
cur table: 1265
epoch: 1000
next table: 1256
cur table: 1278
epoch: 1000
next table: 1270
cur table: 1285
epoch: 1000
next table: 1281
cur table: 1256
epoch: 1000
next table: 1277
cur table: 1270
epoch: 1000
next table: 1286
cur table: 1281
epoch: 1000
next table: 1285
cur table: 1277
epoch: 1000
next table: 1259
cur table: 1286
epoch: 1000
next table: 1282
cur table: 1285
epoch: 1000
next table: 1269
cur table: 1259
epoch: 1000
next table: 1284
cur table: 1282
epoch: 1000
next table: 1264
cur table: 1269
epoch: 1000
next table: 1274
cur table: 1284
epoch: 1000
next table: 1270
cur table: 1264
epoch: 1000
next table: 1282
cur table: 1274
epoch: 1000
next table: 1244
cur table: 1270
epoch: 1000
next table: 1279
cur table: 1282
epoch: 1000
next table: 1238
cur table: 1244
epoch: 1000
next table: 1275
cur table: 1279
epoch: 1000
next table: 1277
cur table: 1275
epoch: 1000
next table: 1256
cur table: 1238
epoch: 1000
next table: 1275
cur table: 1277
epoch: 1000
next table: 1246
cur table: 1256
epoch: 1000
next table: 1266
cur table: 1275
epoch: 1000
next table: 1245
cur table: 1246
epoch: 1000
next table: 1288
cur table: 1266
epoch: 1000
next table: 1257
cur table: 1245
epoch: 1000
next table: 1265
cur table: 1288
epoch: 1000
next table: 1243
cur table: 1257
epoch: 1000
next table: 1274
cur table: 1265
epoch: 1000
next table: 1247
cur table: 1243
epoch: 1000
next table: 1277
cur table: 1274
epoch: 1000
next table: 1248
cur table: 1247
epoch: 1000
next table: 1261
cur table: 1277
epoch: 1000
next table: 1246
cur table: 1248
epoch: 1000
next table: 1274
cur table: 1261
epoch: 1000
next table: 1246
cur table: 1246
epoch: 1000
next table: 1261
cur table: 1274
epoch: 1000
next table: 1238
cur table: 1246
epoch: 1000
next table: 1267
cur table: 1261
epoch: 1000
next table: 1250
cur table: 1238
epoch: 1000
next table: 1271
cur table: 1267
epoch: 1000
next table: 1244
cur table: 1250
epoch: 1000
next table: 1259
cur table: 1271
epoch: 1000
next table: 1241
cur table: 1244
epoch: 1000
next table: 1275
cur table: 1259
epoch: 1000
next table: 1255
cur table: 1241
epoch: 1000
next table: 1267
cur table: 1275
epoch: 1000
next table: 1246
cur table: 1255
epoch: 1000
next table: 1277
cur table: 1267
epoch: 1000
next table: 1251
cur table: 1246
epoch: 1000
next table: 1263
cur table: 1277
epoch: 1000
next table: 1246
cur table: 1251
epoch: 1000
next table: 1271
cur table: 1263
epoch: 1000
next table: 1249
cur table: 1246
epoch: 1000
next table: 1277
cur table: 1271
epoch: 1000
next table: 1249
cur table: 1249
epoch: 1000
next table: 1276
cur table: 1277
epoch: 1000
next table: 1256
cur table: 1249
epoch: 1000
next table: 1271
cur table: 1276
epoch: 1000
next table: 1253
cur table: 1256
epoch: 1000
next table: 1283
cur table: 1271
epoch: 1000
next table: 1260
cur table: 1253
epoch: 1000
next table: 1286
cur table: 1283
epoch: 1000
next table: 1264
cur table: 1260
epoch: 1000
next table: 1284
cur table: 1286
epoch: 1000
next table: 1262
cur table: 1264
epoch: 1000
next table: 1279
cur table: 1284
epoch: 1000
next table: 1266
cur table: 1262
epoch: 1000
next table: 1273
cur table: 1279
epoch: 1000
next table: 1249
cur table: 1266
epoch: 1000
next table: 1278
cur table: 1273
epoch: 1000
next table: 1260
cur table: 1249
epoch: 1000
next table: 1276
cur table: 1278
epoch: 1000
next table: 1253
cur table: 1260
epoch: 1000
next table: 1283
cur table: 1276
epoch: 1000
next table: 1265
cur table: 1253
epoch: 1000
next table: 1259
cur table: 1283
epoch: 1000
next table: 1238
cur table: 1265
epoch: 1000
next table: 1274
cur table: 1259
epoch: 1000
next table: 1246
cur table: 1238
epoch: 1000
next table: 1279
cur table: 1274
epoch: 1000
next table: 1257
cur table: 1246
epoch: 1000
next table: 1259
cur table: 1279
epoch: 1000
next table: 1245
cur table: 1257
epoch: 1000
next table: 1267
cur table: 1259
epoch: 1000
next table: 1237
cur table: 1245
epoch: 1000
next table: 1286
cur table: 1267
epoch: 1000
next table: 1253
cur table: 1237
epoch: 1000
next table: 1263
cur table: 1286
epoch: 1000
next table: 1252
cur table: 1253
epoch: 1000
next table: 1263
cur table: 1263
epoch: 1000
next table: 1238
cur table: 1252
epoch: 1000
next table: 1276
cur table: 1263
epoch: 1000
next table: 1244
cur table: 1238
epoch: 1000
next table: 1274
cur table: 1276
epoch: 1000
next table: 1254
cur table: 1244
epoch: 1000
next table: 1268
cur table: 1274
epoch: 1000
next table: 1246
cur table: 1254
epoch: 1000
next table: 1280
cur table: 1268
epoch: 1000
next table: 1251
cur table: 1246
epoch: 1000
next table: 1277
cur table: 1280
epoch: 1000
next table: 1258
cur table: 1251
epoch: 1000
next table: 1288
cur table: 1277
epoch: 1000
next table: 1254
cur table: 1258
epoch: 1000
next table: 1276
cur table: 1288
epoch: 1000
next table: 1240
cur table: 1254
epoch: 1000
next table: 1296
cur table: 1276
epoch: 1000
next table: 1256
cur table: 1240
epoch: 1000
next table: 1266
cur table: 1296
epoch: 1000
next table: 1246
cur table: 1256
epoch: 1000
next table: 1278
cur table: 1266
epoch: 1000
next table: 1243
cur table: 1246
epoch: 1000
next table: 1288
cur table: 1278
epoch: 1000
next table: 1242
cur table: 1243
epoch: 1000
next table: 1269
cur table: 1288
epoch: 1000
next table: 1257
cur table: 1242
epoch: 1000
next table: 1278
cur table: 1269
epoch: 1000
next table: 1250
cur table: 1257
epoch: 1000
next table: 1287
cur table: 1278
epoch: 1000
next table: 1240
cur table: 1250
epoch: 1000
next table: 1273
cur table: 1287
epoch: 1000
next table: 1258
cur table: 1240
epoch: 1000
next table: 1274
cur table: 1273
epoch: 1000
next table: 1243
cur table: 1258
epoch: 1000
next table: 1271
cur table: 1274
epoch: 1000
next table: 1237
cur table: 1243
epoch: 1000
next table: 1270
cur table: 1271
epoch: 1000
next table: 1256
cur table: 1237
epoch: 1000
next table: 1277
cur table: 1270
epoch: 1000
next table: 1244
cur table: 1256
epoch: 1000
next table: 1260
cur table: 1277
epoch: 1000
next table: 1240
cur table: 1244
epoch: 1000
next table: 1275
cur table: 1260
epoch: 1000
next table: 1253
cur table: 1240
epoch: 1000
next table: 1274
cur table: 1275
epoch: 1000
next table: 1248
cur table: 1253
epoch: 1000
next table: 1259
cur table: 1274
epoch: 1000
next table: 1247
cur table: 1248
epoch: 1000
next table: 1277
cur table: 1259
epoch: 1000
next table: 1252
cur table: 1247
epoch: 1000
next table: 1266
cur table: 1277
epoch: 1000
next table: 1239
cur table: 1252
epoch: 1000
next table: 1272
cur table: 1266
epoch: 1000
next table: 1247
cur table: 1239
epoch: 1000
next table: 1264
cur table: 1272
epoch: 1000
next table: 1245
cur table: 1247
epoch: 1000
next table: 1268
cur table: 1264
epoch: 1000
next table: 1242
cur table: 1245
epoch: 1000
next table: 1275
cur table: 1268
epoch: 1000
next table: 1248
cur table: 1242
epoch: 1000
next table: 1269
cur table: 1275
epoch: 1000
next table: 1244
cur table: 1248
epoch: 1000
next table: 1261
cur table: 1269
epoch: 1000
next table: 1254
cur table: 1244
epoch: 1000
next table: 1276
cur table: 1261
epoch: 1000
next table: 1255
cur table: 1254
epoch: 1000
next table: 1284
cur table: 1276
epoch: 1000
next table: 1254
cur table: 1255
epoch: 1000
next table: 1262
cur table: 1284
epoch: 1000
next table: 1263
cur table: 1254
epoch: 1000
next table: 1277
cur table: 1262
epoch: 1000
next table: 1249
cur table: 1263
epoch: 1000
next table: 1288
cur table: 1277
epoch: 1000
next table: 1261
cur table: 1249
epoch: 1000
next table: 1282
cur table: 1288
epoch: 1000
next table: 1264
cur table: 1261
epoch: 1000
next table: 1282
cur table: 1282
epoch: 1000
next table: 1260
cur table: 1264
epoch: 1000
next table: 1268
cur table: 1282
epoch: 1000
next table: 1264
cur table: 1260
epoch: 1000
next table: 1275
cur table: 1268
epoch: 1000
next table: 1244
cur table: 1264
epoch: 1000
next table: 1269
cur table: 1275
epoch: 1000
next table: 1253
cur table: 1244
epoch: 1000
next table: 1283
cur table: 1269
epoch: 1000
next table: 1252
cur table: 1253
epoch: 1000
next table: 1261
cur table: 1283
epoch: 1000
next table: 1257
cur table: 1252
epoch: 1000
next table: 1269
cur table: 1261
epoch: 1000
next table: 1232
cur table: 1257
epoch: 1000
next table: 1273
cur table: 1269
epoch: 1000
next table: 1245
cur table: 1232
epoch: 1000
next table: 1263
cur table: 1273
epoch: 1000
next table: 1260
cur table: 1245
epoch: 1000
next table: 1274
cur table: 1263
epoch: 1000
next table: 1236
cur table: 1260
epoch: 1000
next table: 1281
cur table: 1274
epoch: 1000
next table: 1246
cur table: 1236
epoch: 1000
next table: 1263
cur table: 1281
epoch: 1000
next table: 1252
cur table: 1246
epoch: 1000
next table: 1268
cur table: 1263
epoch: 1000
next table: 1244
cur table: 1252
epoch: 1000
next table: 1276
cur table: 1268
epoch: 1000
next table: 1246
cur table: 1244
epoch: 1000
next table: 1278
cur table: 1276
epoch: 1000
next table: 1258
cur table: 1246
epoch: 1000
next table: 1262
cur table: 1278
epoch: 1000
next table: 1248
cur table: 1258
epoch: 1000
next table: 1277
cur table: 1262
epoch: 1000
next table: 1237
cur table: 1248
epoch: 1000
next table: 1277
cur table: 1277
epoch: 1000
next table: 1258
cur table: 1237
epoch: 1000
next table: 1287
cur table: 1277
epoch: 1000
next table: 1249
cur table: 1258
epoch: 1000
next table: 1277
cur table: 1287
epoch: 1000
next table: 1247
cur table: 1249
epoch: 1000
next table: 1298
cur table: 1277
epoch: 1000
next table: 1247
cur table: 1247
epoch: 1000
next table: 1270
cur table: 1298
epoch: 1000
next table: 1258
cur table: 1247
epoch: 1000
next table: 1272
cur table: 1270
epoch: 1000
next table: 1251
cur table: 1258
epoch: 1000
next table: 1296
cur table: 1272
epoch: 1000
next table: 1238
cur table: 1251
epoch: 1000
next table: 1270
cur table: 1296
epoch: 1000
next table: 1255
cur table: 1238
epoch: 1000
next table: 1274
cur table: 1270
epoch: 1000
next table: 1244
cur table: 1255
epoch: 1000
next table: 1285
cur table: 1274
epoch: 1000
next table: 1242
cur table: 1244
epoch: 1000
next table: 1270
cur table: 1285
epoch: 1000
next table: 1258
cur table: 1242
epoch: 1000
next table: 1279
cur table: 1270
epoch: 1000
next table: 1241
cur table: 1258
epoch: 1000
next table: 1266
cur table: 1279
epoch: 1000
next table: 1247
cur table: 1241
epoch: 1000
next table: 1273
cur table: 1266
epoch: 1000
next table: 1252
cur table: 1247
epoch: 1000
next table: 1280
cur table: 1273
epoch: 1000
next table: 1245
cur table: 1252
epoch: 1000
next table: 1259
cur table: 1280
epoch: 1000
next table: 1248
cur table: 1245
epoch: 1000
next table: 1275
cur table: 1259
epoch: 1000
next table: 1243
cur table: 1248
epoch: 1000
next table: 1270
cur table: 1275
epoch: 1000
next table: 1245
cur table: 1243
epoch: 1000
next table: 1262
cur table: 1270
epoch: 1000
next table: 1245
cur table: 1245
epoch: 1000
next table: 1276
cur table: 1262
epoch: 1000
next table: 1244
cur table: 1245
epoch: 1000
next table: 1264
cur table: 1276
epoch: 1000
next table: 1254
cur table: 1244
epoch: 1000
next table: 1277
cur table: 1264
epoch: 1000
next table: 1247
cur table: 1254
epoch: 1000
next table: 1260
cur table: 1277
epoch: 1000
next table: 1240
cur table: 1247
epoch: 1000
next table: 1270
cur table: 1260
epoch: 1000
next table: 1253
cur table: 1240
epoch: 1000
next table: 1272
cur table: 1270
epoch: 1000
next table: 1248
cur table: 1253
epoch: 1000
next table: 1273
cur table: 1272
epoch: 1000
next table: 1250
cur table: 1248
epoch: 1000
next table: 1263
cur table: 1273
epoch: 1000
next table: 1247
cur table: 1250
epoch: 1000
next table: 1273
cur table: 1263
epoch: 1000
next table: 1251
cur table: 1247
epoch: 1000
next table: 1283
cur table: 1273
epoch: 1000
next table: 1254
cur table: 1251
epoch: 1000
next table: 1268
cur table: 1283
epoch: 1000
next table: 1261
cur table: 1254
epoch: 1000
next table: 1282
cur table: 1268
epoch: 1000
next table: 1251
cur table: 1261
epoch: 1000
next table: 1286
cur table: 1282
epoch: 1000
next table: 1263
cur table: 1251
epoch: 1000
next table: 1284
cur table: 1286
epoch: 1000
next table: 1264
cur table: 1263
epoch: 1000
next table: 1285
cur table: 1284
epoch: 1000
next table: 1259
cur table: 1264
epoch: 1000
next table: 1265
cur table: 1285
epoch: 1000
next table: 1266
cur table: 1259
epoch: 1000
next table: 1283
cur table: 1265
epoch: 1000
next table: 1253
cur table: 1266
epoch: 1000
next table: 1277
cur table: 1283
epoch: 1000
next table: 1256
cur table: 1253
epoch: 1000
next table: 1285
cur table: 1277
epoch: 1000
next table: 1253
cur table: 1256
epoch: 1000
next table: 1256
cur table: 1285
epoch: 1000
next table: 1253
cur table: 1253
epoch: 1000
next table: 1271
cur table: 1256
epoch: 1000
next table: 1237
cur table: 1253
epoch: 1000
next table: 1273
cur table: 1271
epoch: 1000
next table: 1250
cur table: 1237
epoch: 1000
next table: 1273
cur table: 1273
epoch: 1000
next table: 1256
cur table: 1250
epoch: 1000
next table: 1264
cur table: 1273
epoch: 1000
next table: 1248
cur table: 1256
epoch: 1000
next table: 1268
cur table: 1264
epoch: 1000
next table: 1235
cur table: 1248
epoch: 1000
next table: 1279
cur table: 1268
epoch: 1000
next table: 1251
cur table: 1235
epoch: 1000
next table: 1259
cur table: 1279
epoch: 1000
next table: 1254
cur table: 1251
epoch: 1000
next table: 1277
cur table: 1259
epoch: 1000
next table: 1234
cur table: 1254
epoch: 1000
next table: 1273
cur table: 1277
epoch: 1000
next table: 1252
cur table: 1234
epoch: 1000
next table: 1268
cur table: 1273
epoch: 1000
next table: 1254
cur table: 1252
epoch: 1000
next table: 1281
cur table: 1268
epoch: 1000
next table: 1247
cur table: 1254
epoch: 1000
next table: 1291
cur table: 1281
epoch: 1000
next table: 1247
cur table: 1247
epoch: 1000
next table: 1275
cur table: 1291
epoch: 1000
next table: 1260
cur table: 1247
epoch: 1000
next table: 1274
cur table: 1275
epoch: 1000
next table: 1252
cur table: 1260
epoch: 1000
next table: 1291
cur table: 1274
epoch: 1000
next table: 1241
cur table: 1252
epoch: 1000
next table: 1275
cur table: 1291
epoch: 1000
next table: 1249
cur table: 1241
epoch: 1000
next table: 1277
cur table: 1275
epoch: 1000
next table: 1247
cur table: 1249
epoch: 1000
next table: 1277
cur table: 1277
epoch: 1000
next table: 1246
cur table: 1247
Heartbeat CPU 0 instructions: 30000003 cycles: 9205673 heartbeat IPC: 2.85856 cumulative IPC: 3.25886 (Simulation time: 0 hr 19 min 39 sec) 
epoch: 1000
next table: 1279
cur table: 1277
epoch: 1000
next table: 1244
cur table: 1246
epoch: 1000
next table: 1287
cur table: 1279
epoch: 1000
next table: 1252
cur table: 1244
epoch: 1000
next table: 1269
cur table: 1287
epoch: 1000
next table: 1251
cur table: 1252
epoch: 1000
next table: 1276
cur table: 1269
epoch: 1000
next table: 1235
cur table: 1251
epoch: 1000
next table: 1277
cur table: 1276
epoch: 1000
next table: 1259
cur table: 1235
epoch: 1000
next table: 1263
cur table: 1277
epoch: 1000
next table: 1242
cur table: 1259
epoch: 1000
next table: 1277
cur table: 1263
epoch: 1000
next table: 1240
cur table: 1242
epoch: 1000
next table: 1276
cur table: 1277
epoch: 1000
next table: 1253
cur table: 1240
epoch: 1000
next table: 1267
cur table: 1276
epoch: 1000
next table: 1242
cur table: 1253
epoch: 1000
next table: 1275
cur table: 1267
epoch: 1000
next table: 1242
cur table: 1242
epoch: 1000
next table: 1267
cur table: 1275
epoch: 1000
next table: 1252
cur table: 1242
epoch: 1000
next table: 1274
cur table: 1267
epoch: 1000
next table: 1249
cur table: 1252
epoch: 1000
next table: 1270
cur table: 1274
epoch: 1000
next table: 1246
cur table: 1249
epoch: 1000
next table: 1264
cur table: 1270
epoch: 1000
next table: 1248
cur table: 1246
epoch: 1000
next table: 1268
cur table: 1264
epoch: 1000
next table: 1243
cur table: 1248
epoch: 1000
next table: 1267
cur table: 1268
epoch: 1000
next table: 1244
cur table: 1243
epoch: 1000
next table: 1265
cur table: 1267
epoch: 1000
next table: 1252
cur table: 1244
epoch: 1000
next table: 1265
cur table: 1265
epoch: 1000
next table: 1242
cur table: 1252
epoch: 1000
next table: 1271
cur table: 1265
epoch: 1000
next table: 1250
cur table: 1242
epoch: 1000
next table: 1272
cur table: 1271
epoch: 1000
next table: 1251
cur table: 1250
epoch: 1000
next table: 1278
cur table: 1272
epoch: 1000
next table: 1248
cur table: 1251
epoch: 1000
next table: 1275
cur table: 1278
epoch: 1000
next table: 1253
cur table: 1248
epoch: 1000
next table: 1285
cur table: 1275
epoch: 1000
next table: 1255
cur table: 1253
epoch: 1000
next table: 1269
cur table: 1285
epoch: 1000
next table: 1266
cur table: 1255
epoch: 1000
next table: 1283
cur table: 1269
epoch: 1000
next table: 1254
cur table: 1266
epoch: 1000
next table: 1288
cur table: 1283
epoch: 1000
next table: 1264
cur table: 1254
epoch: 1000
next table: 1282
cur table: 1288
epoch: 1000
next table: 1261
cur table: 1264
epoch: 1000
next table: 1282
cur table: 1282
epoch: 1000
next table: 1258
cur table: 1261
epoch: 1000
next table: 1267
cur table: 1282
epoch: 1000
next table: 1267
cur table: 1258
epoch: 1000
next table: 1281
cur table: 1267
epoch: 1000
next table: 1245
cur table: 1267
epoch: 1000
next table: 1277
cur table: 1281
epoch: 1000
next table: 1251
cur table: 1245
epoch: 1000
next table: 1281
cur table: 1277
epoch: 1000
next table: 1247
cur table: 1251
epoch: 1000
next table: 1258
cur table: 1281
epoch: 1000
next table: 1268
cur table: 1247
epoch: 1000
next table: 1265
cur table: 1258
epoch: 1000
next table: 1232
cur table: 1268
epoch: 1000
next table: 1276
cur table: 1265
epoch: 1000
next table: 1252
cur table: 1232
epoch: 1000
next table: 1263
cur table: 1276
epoch: 1000
next table: 1249
cur table: 1252
epoch: 1000
next table: 1273
cur table: 1263
epoch: 1000
next table: 1241
cur table: 1249
epoch: 1000
next table: 1273
cur table: 1273
epoch: 1000
next table: 1246
cur table: 1241
epoch: 1000
next table: 1265
cur table: 1273
epoch: 1000
next table: 1257
cur table: 1246
epoch: 1000
next table: 1275
cur table: 1265
epoch: 1000
next table: 1257
cur table: 1257
epoch: 1000
next table: 1285
cur table: 1275
epoch: 1000
next table: 1236
cur table: 1257
epoch: 1000
next table: 1273
cur table: 1285
epoch: 1000
next table: 1255
cur table: 1236
epoch: 1000
next table: 1260
cur table: 1273
epoch: 1000
next table: 1245
cur table: 1255
epoch: 1000
next table: 1283
cur table: 1260
epoch: 1000
next table: 1243
cur table: 1245
epoch: 1000
next table: 1278
cur table: 1283
epoch: 1000
next table: 1251
cur table: 1243
epoch: 1000
next table: 1284
cur table: 1278
epoch: 1000
next table: 1259
cur table: 1251
epoch: 1000
next table: 1283
cur table: 1284
epoch: 1000
next table: 1255
cur table: 1259
epoch: 1000
next table: 1283
cur table: 1283
epoch: 1000
next table: 1236
cur table: 1255
epoch: 1000
next table: 1282
cur table: 1283
epoch: 1000
next table: 1253
cur table: 1236
epoch: 1000
next table: 1268
cur table: 1282
epoch: 1000
next table: 1243
cur table: 1253
epoch: 1000
next table: 1292
cur table: 1268
epoch: 1000
next table: 1243
cur table: 1243
epoch: 1000
next table: 1268
cur table: 1292
epoch: 1000
next table: 1259
cur table: 1243
epoch: 1000
next table: 1271
cur table: 1268
epoch: 1000
next table: 1243
cur table: 1259
epoch: 1000
next table: 1297
cur table: 1271
epoch: 1000
next table: 1249
cur table: 1243
epoch: 1000
next table: 1263
cur table: 1297
epoch: 1000
next table: 1250
cur table: 1249
epoch: 1000
next table: 1276
cur table: 1263
epoch: 1000
next table: 1247
cur table: 1250
epoch: 1000
next table: 1273
cur table: 1276
epoch: 1000
next table: 1248
cur table: 1247
epoch: 1000
next table: 1267
cur table: 1273
epoch: 1000
next table: 1237
cur table: 1248
epoch: 1000
next table: 1281
cur table: 1267
epoch: 1000
next table: 1251
cur table: 1237
epoch: 1000
next table: 1256
cur table: 1281
epoch: 1000
next table: 1243
cur table: 1251
epoch: 1000
next table: 1272
cur table: 1256
epoch: 1000
next table: 1243
cur table: 1243
epoch: 1000
next table: 1267
cur table: 1272
epoch: 1000
next table: 1251
cur table: 1243
epoch: 1000
next table: 1263
cur table: 1267
epoch: 1000
next table: 1245
cur table: 1251
epoch: 1000
next table: 1274
cur table: 1263
epoch: 1000
next table: 1245
cur table: 1245
epoch: 1000
next table: 1267
cur table: 1274
epoch: 1000
next table: 1253
cur table: 1245
epoch: 1000
next table: 1270
cur table: 1267
epoch: 1000
next table: 1247
cur table: 1253
epoch: 1000
next table: 1266
cur table: 1270
epoch: 1000
next table: 1245
cur table: 1247
epoch: 1000
next table: 1273
cur table: 1266
epoch: 1000
next table: 1247
cur table: 1245
epoch: 1000
next table: 1277
cur table: 1273
epoch: 1000
next table: 1247
cur table: 1247
epoch: 1000
next table: 1260
cur table: 1277
epoch: 1000
next table: 1247
cur table: 1247
epoch: 1000
next table: 1276
cur table: 1260
epoch: 1000
next table: 1253
cur table: 1247
epoch: 1000
next table: 1271
cur table: 1276
epoch: 1000
next table: 1249
cur table: 1253
epoch: 1000
next table: 1287
cur table: 1271
epoch: 1000
next table: 1259
cur table: 1249
epoch: 1000
next table: 1269
cur table: 1287
epoch: 1000
next table: 1255
cur table: 1259
epoch: 1000
next table: 1284
cur table: 1269
epoch: 1000
next table: 1267
cur table: 1255
epoch: 1000
next table: 1288
cur table: 1284
epoch: 1000
next table: 1253
cur table: 1267
epoch: 1000
next table: 1279
cur table: 1288
epoch: 1000
next table: 1259
cur table: 1253
epoch: 1000
next table: 1284
cur table: 1279
epoch: 1000
next table: 1259
cur table: 1259
epoch: 1000
next table: 1265
cur table: 1284
epoch: 1000
next table: 1255
cur table: 1259
epoch: 1000
next table: 1283
cur table: 1265
epoch: 1000
next table: 1270
cur table: 1255
epoch: 1000
next table: 1243
cur table: 1283
epoch: 1000
next table: 1168
cur table: 1270
epoch: 1000
next table: 1045
cur table: 1243
epoch: 1000
next table: 1044
cur table: 1168
epoch: 1000
next table: 1047
cur table: 1045
epoch: 1000
next table: 1045
cur table: 1047
epoch: 1000
next table: 1050
cur table: 1044
epoch: 1000
next table: 1046
cur table: 1045
epoch: 1000
next table: 1032
cur table: 1050
epoch: 1000
next table: 1045
cur table: 1046
epoch: 1000
next table: 1028
cur table: 1032
epoch: 1000
next table: 1047
cur table: 1045
epoch: 1000
next table: 1030
cur table: 1028
epoch: 1000
next table: 1045
cur table: 1047
epoch: 1000
next table: 1028
cur table: 1030
epoch: 1000
next table: 1046
cur table: 1045
epoch: 1000
next table: 1030
cur table: 1028
epoch: 1000
next table: 1046
cur table: 1046
epoch: 1000
next table: 1032
cur table: 1030
epoch: 1000
next table: 1049
cur table: 1046
epoch: 1000
next table: 1029
cur table: 1032
epoch: 1000
next table: 1045
cur table: 1049
epoch: 1000
next table: 1028
cur table: 1029
epoch: 1000
next table: 1044
cur table: 1045
epoch: 1000
next table: 1028
cur table: 1028
epoch: 1000
next table: 1046
cur table: 1044
epoch: 1000
next table: 1029
cur table: 1028
epoch: 1000
next table: 1048
cur table: 1046
epoch: 1000
next table: 1030
cur table: 1029
epoch: 1000
next table: 1045
cur table: 1048
epoch: 1000
next table: 1029
cur table: 1030
epoch: 1000
next table: 1044
cur table: 1045
epoch: 1000
next table: 1028
cur table: 1029
epoch: 1000
next table: 1048
cur table: 1044
epoch: 1000
next table: 1029
cur table: 1028
epoch: 1000
next table: 1046
cur table: 1048
epoch: 1000
next table: 1029
cur table: 1029
epoch: 1000
next table: 1045
cur table: 1046
epoch: 1000
next table: 1029
cur table: 1029
epoch: 1000
next table: 1045
cur table: 1045
epoch: 1000
next table: 1029
cur table: 1029
epoch: 1000
next table: 1048
cur table: 1045
epoch: 1000
next table: 1032
cur table: 1029
epoch: 1000
next table: 1047
cur table: 1048
epoch: 1000
next table: 1029
cur table: 1032
epoch: 1000
next table: 1045
cur table: 1047
epoch: 1000
next table: 1027
cur table: 1029
epoch: 1000
next table: 1044
cur table: 1045
epoch: 1000
next table: 1028
cur table: 1027
epoch: 1000
next table: 1043
cur table: 1044
epoch: 1000
next table: 1029
cur table: 1028
epoch: 1000
next table: 1046
cur table: 1043
epoch: 1000
next table: 1026
cur table: 1029
epoch: 1000
next table: 1044
cur table: 1046
epoch: 1000
next table: 1028
cur table: 1026
epoch: 1000
next table: 1044
cur table: 1044
epoch: 1000
next table: 1027
cur table: 1028
epoch: 1000
next table: 1045
cur table: 1044
epoch: 1000
next table: 1027
cur table: 1027
epoch: 1000
next table: 1045
cur table: 1045
epoch: 1000
next table: 1027
cur table: 1027
epoch: 1000
next table: 1044
cur table: 1045
epoch: 1000
next table: 1028
cur table: 1027
epoch: 1000
next table: 1044
cur table: 1044
epoch: 1000
next table: 1028
cur table: 1028
epoch: 1000
next table: 1044
cur table: 1044
epoch: 1000
next table: 1030
cur table: 1028
epoch: 1000
next table: 1047
cur table: 1044
epoch: 1000
next table: 1028
cur table: 1030
epoch: 1000
next table: 1045
cur table: 1047
epoch: 1000
next table: 1027
cur table: 1028
epoch: 1000
next table: 1044
cur table: 1045
epoch: 1000
next table: 1028
cur table: 1027
epoch: 1000
next table: 1044
cur table: 1044
epoch: 1000
next table: 1027
cur table: 1028
epoch: 1000
next table: 1045
cur table: 1044
epoch: 1000
next table: 1029
cur table: 1027
epoch: 1000
next table: 1044
cur table: 1045
epoch: 1000
next table: 1025
cur table: 1029
epoch: 1000
next table: 1044
cur table: 1044
epoch: 1000
next table: 1030
cur table: 1025
epoch: 1000
next table: 1047
cur table: 1044
epoch: 1000
next table: 1027
cur table: 1030
epoch: 1000
next table: 1043
cur table: 1047
epoch: 1000
next table: 1028
cur table: 1027
epoch: 1000
next table: 1044
cur table: 1043
epoch: 1000
next table: 1026
cur table: 1028
epoch: 1000
next table: 1044
cur table: 1044
epoch: 1000
next table: 1028
cur table: 1026
epoch: 1000
next table: 1044
cur table: 1044
epoch: 1000
next table: 1030
cur table: 1028
epoch: 1000
next table: 1049
cur table: 1044
epoch: 1000
next table: 1026
cur table: 1030
epoch: 1000
next table: 1041
cur table: 1049
epoch: 1000
next table: 1028
cur table: 1026
epoch: 1000
next table: 1044
cur table: 1041
epoch: 1000
next table: 1026
cur table: 1028
epoch: 1000
next table: 1046
cur table: 1044
epoch: 1000
next table: 1028
cur table: 1026
epoch: 1000
next table: 1044
cur table: 1046
epoch: 1000
next table: 1027
cur table: 1028
epoch: 1000
next table: 1043
cur table: 1044
epoch: 1000
next table: 1028
cur table: 1027
epoch: 1000
next table: 1044
cur table: 1043
epoch: 1000
next table: 1026
cur table: 1028
epoch: 1000
next table: 1046
cur table: 1044
epoch: 1000
next table: 1028
cur table: 1026
epoch: 1000
next table: 1044
cur table: 1046
epoch: 1000
next table: 1027
cur table: 1028
epoch: 1000
next table: 1043
cur table: 1044
epoch: 1000
next table: 1028
cur table: 1027
epoch: 1000
next table: 1044
cur table: 1043
epoch: 1000
next table: 1026
cur table: 1028
epoch: 1000
next table: 1046
cur table: 1044
epoch: 1000
next table: 1030
cur table: 1026
epoch: 1000
next table: 1048
cur table: 1046
epoch: 1000
next table: 1029
cur table: 1030
epoch: 1000
next table: 1042
cur table: 1048
epoch: 1000
next table: 1026
cur table: 1029
epoch: 1000
next table: 1043
cur table: 1042
epoch: 1000
next table: 1029
cur table: 1026
epoch: 1000
next table: 1046
cur table: 1043
epoch: 1000
next table: 1026
cur table: 1029
epoch: 1000
next table: 1044
cur table: 1046
epoch: 1000
next table: 1028
cur table: 1026
epoch: 1000
next table: 1044
cur table: 1044
epoch: 1000
next table: 1027
cur table: 1028
epoch: 1000
next table: 1045
cur table: 1044
epoch: 1000
next table: 1028
cur table: 1027
epoch: 1000
next table: 1043
cur table: 1045
epoch: 1000
next table: 1026
cur table: 1028
epoch: 1000
next table: 1045
cur table: 1043
epoch: 1000
next table: 1030
cur table: 1026
epoch: 1000
next table: 1044
cur table: 1045
epoch: 1000
next table: 1026
cur table: 1030
epoch: 1000
next table: 1042
cur table: 1044
epoch: 1000
next table: 1030
cur table: 1026
epoch: 1000
next table: 1045
cur table: 1042
epoch: 1000
next table: 1029
cur table: 1030
epoch: 1000
next table: 1046
cur table: 1045
epoch: 1000
next table: 1027
cur table: 1029
epoch: 1000
next table: 1041
cur table: 1046
epoch: 1000
next table: 1028
cur table: 1027
epoch: 1000
next table: 1042
cur table: 1041
epoch: 1000
next table: 1047
cur table: 1028
epoch: 1000
next table: 1061
cur table: 1042
epoch: 1000
next table: 1027
cur table: 1047
epoch: 1000
next table: 1044
cur table: 1061
epoch: 1000
next table: 1029
cur table: 1027
epoch: 1000
next table: 1044
cur table: 1044
epoch: 1000
next table: 1030
cur table: 1029
epoch: 1000
next table: 1044
cur table: 1044
epoch: 1000
next table: 1045
cur table: 1044
epoch: 1000
next table: 1031
cur table: 1030
epoch: 1000
next table: 1044
cur table: 1045
epoch: 1000
next table: 1033
cur table: 1031
epoch: 1000
next table: 1044
cur table: 1044
epoch: 1000
next table: 1033
cur table: 1033
epoch: 1000
next table: 1044
cur table: 1044
epoch: 1000
next table: 1031
cur table: 1033
epoch: 1000
next table: 1048
cur table: 1044
epoch: 1000
next table: 1035
cur table: 1031
epoch: 1000
next table: 1045
cur table: 1048
epoch: 1000
next table: 1028
cur table: 1035
epoch: 1000
next table: 1041
cur table: 1045
epoch: 1000
next table: 1028
cur table: 1028
epoch: 1000
next table: 1046
cur table: 1041
epoch: 1000
next table: 1028
cur table: 1028
epoch: 1000
next table: 1044
cur table: 1046
epoch: 1000
next table: 1026
cur table: 1028
epoch: 1000
next table: 1043
cur table: 1044
epoch: 1000
next table: 1027
cur table: 1026
epoch: 1000
next table: 1044
cur table: 1043
epoch: 1000
next table: 1026
cur table: 1027
epoch: 1000
next table: 1046
cur table: 1044
epoch: 1000
next table: 1029
cur table: 1026
epoch: 1000
next table: 1044
cur table: 1046
epoch: 1000
next table: 1027
cur table: 1029
epoch: 1000
next table: 1043
cur table: 1044
epoch: 1000
next table: 1027
cur table: 1027
epoch: 1000
next table: 1046
cur table: 1043
epoch: 1000
next table: 1029
cur table: 1027
epoch: 1000
next table: 1044
cur table: 1046
epoch: 1000
next table: 1027
cur table: 1029
epoch: 1000
next table: 1046
cur table: 1044
epoch: 1000
next table: 1030
cur table: 1027
epoch: 1000
next table: 1046
cur table: 1046
epoch: 1000
next table: 1029
cur table: 1030
epoch: 1000
next table: 1042
cur table: 1046
epoch: 1000
next table: 1029
cur table: 1029
epoch: 1000
next table: 1048
cur table: 1042
epoch: 1000
next table: 1029
cur table: 1029
epoch: 1000
next table: 1045
cur table: 1048
epoch: 1000
next table: 1027
cur table: 1029
epoch: 1000
next table: 1045
cur table: 1045
epoch: 1000
next table: 1028
cur table: 1027
epoch: 1000
next table: 1044
cur table: 1045
epoch: 1000
next table: 1028
cur table: 1028
epoch: 1000
next table: 1045
cur table: 1044
epoch: 1000
next table: 1029
cur table: 1028
epoch: 1000
next table: 1047
cur table: 1045
epoch: 1000
next table: 1028
cur table: 1029
epoch: 1000
next table: 1045
cur table: 1047
epoch: 1000
next table: 1029
cur table: 1028
epoch: 1000
next table: 1045
cur table: 1045
epoch: 1000
next table: 1029
cur table: 1029
epoch: 1000
next table: 1045
cur table: 1045
epoch: 1000
next table: 1029
cur table: 1029
epoch: 1000
next table: 1050
cur table: 1045
epoch: 1000
next table: 1032
cur table: 1029
epoch: 1000
next table: 1048
cur table: 1050
epoch: 1000
next table: 1028
cur table: 1032
epoch: 1000
next table: 1043
cur table: 1048
epoch: 1000
next table: 1027
cur table: 1028
epoch: 1000
next table: 1046
cur table: 1043
epoch: 1000
next table: 1029
cur table: 1027
epoch: 1000
next table: 1046
cur table: 1046
epoch: 1000
next table: 1030
cur table: 1029
epoch: 1000
next table: 1046
cur table: 1046
epoch: 1000
next table: 1026
cur table: 1030
epoch: 1000
next table: 1044
cur table: 1046
epoch: 1000
next table: 1029
cur table: 1026
epoch: 1000
[...]
epoch: 1000
next table: 1045
cur table: 1046
epoch: 1000
next table: 1029
cur table: 1030
epoch: 1000
next table: 1044
cur table: 1045
epoch: 1000
next table: 1026
cur table: 1029
epoch: 1000
next table: 1045
cur table: 1044
epoch: 1000
next table: 1029
cur table: 1026
epoch: 1000
next table: 1046
cur table: 1045
epoch: 1000
next table: 1026
cur table: 1029
epoch: 1000
next table: 1044
cur table: 1046
epoch: 1000
next table: 1030
cur table: 1026
epoch: 1000
next table: 1043
cur table: 1044
epoch: 1000
next table: 1029
cur table: 1030
epoch: 1000
next table: 1042
cur table: 1043
epoch: 1000
next table: 1029
cur table: 1029
epoch: 1000
next table: 1046
cur table: 1042
epoch: 1000
next table: 1028
cur table: 1029
epoch: 1000
next table: 1047
cur table: 1046
epoch: 1000
next table: 1030
cur table: 1028
epoch: 1000
next table: 1047
cur table: 1047
epoch: 1000
next table: 1030
cur table: 1030
epoch: 1000
next table: 1042
cur table: 1047
epoch: 1000
next table: 1026
cur table: 1030
epoch: 1000
next table: 1044
cur table: 1042
epoch: 1000
next table: 1028
cur table: 1026
epoch: 1000
next table: 1042
cur table: 1044
epoch: 1000
next table: 1029
cur table: 1028
epoch: 1000
next table: 1047
cur table: 1042
epoch: 1000
next table: 1030
cur table: 1029
epoch: 1000
next table: 1041
cur table: 1047
epoch: 1000
next table: 1029
cur table: 1030
epoch: 1000
next table: 1045
cur table: 1041
epoch: 1000
next table: 1028
cur table: 1029
epoch: 1000
next table: 1043
cur table: 1045
epoch: 1000
next table: 1029
cur table: 1028
epoch: 1000
next table: 1044
cur table: 1043
epoch: 1000
next table: 1030
cur table: 1029
epoch: 1000
next table: 1047
cur table: 1044
epoch: 1000
next table: 1032
cur table: 1030
epoch: 1000
next table: 1043
cur table: 1047
epoch: 1000
next table: 1029
cur table: 1032
epoch: 1000
next table: 1045
cur table: 1043
epoch: 1000
next table: 1027
cur table: 1029
epoch: 1000
next table: 1046
cur table: 1045
epoch: 1000
next table: 1030
cur table: 1027
epoch: 1000
next table: 1046
cur table: 1046
epoch: 1000
next table: 1032
cur table: 1030
epoch: 1000
next table: 1046
cur table: 1046
epoch: 1000
next table: 1025
cur table: 1032
epoch: 1000
next table: 1042
cur table: 1046
epoch: 1000
next table: 1029
cur table: 1025
epoch: 1000
next table: 1042
cur table: 1042
epoch: 1000
next table: 1030
cur table: 1029
epoch: 1000
next table: 1047
cur table: 1042
epoch: 1000
next table: 1030
cur table: 1030
epoch: 1000
next table: 1047
cur table: 1047
Heartbeat CPU 0 instructions: 100000001 cycles: 66912099 heartbeat IPC: 0.887751 cumulative IPC: 0.973435 (Simulation time: 1 hr 2 min 45 sec) 
Finished CPU 0 instructions: 50000000 cycles: 51364506 cumulative IPC: 0.973435 (Simulation time: 1 hr 2 min 45 sec) 

ChampSim completed all CPUs

Region of Interest Statistics

CPU 0 cumulative IPC: 0.973435 instructions: 50000000 cycles: 51364506
ITLB TOTAL     ACCESS:    7503046  HIT:    7503046  MISS:          0  HIT %:        100  MISS %:          0   MPKI: 0
ITLB LOAD TRANSLATION ACCESS:    7503046  HIT:    7503046  MISS:          0  HIT %:        100  MISS %:          0   MPKI: 0
ITLB PREFETCH  REQUESTED:          0  ISSUED:          0  USEFUL:          0  USELESS:          0
ITLB USEFUL LOAD PREFETCHES:          0 PREFETCH ISSUED TO LOWER LEVEL:          0  ACCURACY: -nan
ITLB TIMELY PREFETCHES:          0 LATE PREFETCHES: 0 DROPPED PREFETCHES: 0
ITLB PREFETCHES SAME FILL-ORIGIN LEVEL: 0 DIFFERENT FILL-ORIGIN LEVEL: 0
ITLB AVERAGE MISS LATENCY: -nan cycles
ITLB RQ	ACCESS:    8922929	FORWARD:          0	MERGED:    1419884	TO_CACHE:    7503045

Revised Interactions: positive negative neutral
ITLB_interactions 0 0 0 -nan -nan -nan
DTLB TOTAL     ACCESS:   12205973  HIT:   12184374  MISS:      21599  HIT %:     99.823  MISS %:   0.176954   MPKI: 0.43198
DTLB LOAD TRANSLATION ACCESS:   12205973  HIT:   12184374  MISS:      21599  HIT %:     99.823  MISS %:   0.176954   MPKI: 0.43198
DTLB PREFETCH  REQUESTED:          0  ISSUED:          0  USEFUL:          0  USELESS:          0
DTLB USEFUL LOAD PREFETCHES:          0 PREFETCH ISSUED TO LOWER LEVEL:          0  ACCURACY: -nan
DTLB TIMELY PREFETCHES:          0 LATE PREFETCHES: 0 DROPPED PREFETCHES: 0
DTLB PREFETCHES SAME FILL-ORIGIN LEVEL: 0 DIFFERENT FILL-ORIGIN LEVEL: 0
DTLB AVERAGE MISS LATENCY: 87.2462 cycles
DTLB RQ	ACCESS:   13569687	FORWARD:          0	MERGED:    1342025	TO_CACHE:   12227662

Revised Interactions: positive negative neutral
DTLB_interactions 0 0 0 -nan -nan -nan
STLB TOTAL     ACCESS:    1153966  HIT:    1132607  MISS:      21359  HIT %:    98.1491  MISS %:    1.85092   MPKI: 0.42718
STLB LOAD TRANSLATION ACCESS:      21599  HIT:        240  MISS:      21359  HIT %:    1.11116  MISS %:    98.8888   MPKI: 0.42718
STLB TRANSLATION FROM L1D PREFETCHER ACCESS:    1132367  HIT:    1132367  MISS:          0  HIT %:        100  MISS %:          0   MPKI: 0
STLB PREFETCH  REQUESTED:          0  ISSUED:          0  USEFUL:          0  USELESS:          0
STLB USEFUL LOAD PREFETCHES:          0 PREFETCH ISSUED TO LOWER LEVEL:          0  ACCURACY: -nan
STLB TIMELY PREFETCHES:          0 LATE PREFETCHES: 0 DROPPED PREFETCHES: 0
STLB PREFETCHES SAME FILL-ORIGIN LEVEL: 0 DIFFERENT FILL-ORIGIN LEVEL: 0
STLB AVERAGE MISS LATENCY: 79.1199 cycles
STLB RQ	ACCESS:    3127915	FORWARD:          0	MERGED:    1973949	TO_CACHE:    1153966

Revised Interactions: positive negative neutral
STLB_interactions 0 0 0 -nan -nan -nan
STLB Hit, L1D data hit: 0
STLB Hit, L2C data hit: 0
STLB Hit, LLC data hit: 0
STLB Hit, LLC data miss: 0
STLB STLB hints to L2: 0
L1D TOTAL     ACCESS:   14755210  HIT:   13744197  MISS:    1011013  HIT %:    93.1481  MISS %:    6.85191   MPKI: 20.2203
L1D LOAD      ACCESS:   11083900  HIT:   11062614  MISS:      21286  HIT %:     99.808  MISS %:   0.192044   MPKI: 0.42572
L1D RFO       ACCESS:     572765  HIT:     272166  MISS:     300599  HIT %:    47.5179  MISS %:    52.4821   MPKI: 6.01198
L1D PREFETCH  ACCESS:    3098545  HIT:    2409417  MISS:     689128  HIT %:    77.7596  MISS %:    22.2404   MPKI: 13.7826
L1D PREFETCH  REQUESTED:    6217724  ISSUED:    6212638  USEFUL:     646542  USELESS:      42598
L1D USEFUL LOAD PREFETCHES:     646542 PREFETCH ISSUED TO LOWER LEVEL:     689785  ACCURACY: 93.7309
L1D TIMELY PREFETCHES:     646542 LATE PREFETCHES: 46007 DROPPED PREFETCHES: 0
L1D PREFETCHES SAME FILL-ORIGIN LEVEL: 689785 DIFFERENT FILL-ORIGIN LEVEL: 0
L1D AVERAGE MISS LATENCY: 11557 cycles
L1D RQ	ACCESS:   17075430	FORWARD:          0	MERGED:    5922140	TO_CACHE:   11153153
L1D WQ	ACCESS:    2416534	FORWARD:        139	MERGED:          0	TO_CACHE:    2416534
L1D PQ	ACCESS:    3106322	FORWARD:          0	MERGED:          4	TO_CACHE:    3106316

Revised Interactions: positive negative neutral
L1D_interactions 0 0 0 -nan -nan -nan
L1D UNIQUE REGIONS ACCESSED: 0
L1D REGIONS CONFLICTS: 0
L1D Cross Page Prefetch Requests: 0
L1D Same Page Prefetch Requests: 6016211
L1D ROI Sum of L1D PQ occupancy: 43358860
L1D PREFETCHES PUSHED FROM L2C: 0
L1I TOTAL     ACCESS:    8922915  HIT:    8922883  MISS:         32  HIT %:    99.9996  MISS %: 0.000358627   MPKI: 0.00064
L1I LOAD      ACCESS:    8922915  HIT:    8922883  MISS:         32  HIT %:    99.9996  MISS %: 0.000358627   MPKI: 0.00064
L1I PREFETCH  REQUESTED:          0  ISSUED:          0  USEFUL:          0  USELESS:          0
L1I USEFUL LOAD PREFETCHES:          0 PREFETCH ISSUED TO LOWER LEVEL:          0  ACCURACY: -nan
L1I TIMELY PREFETCHES:          0 LATE PREFETCHES: 0 DROPPED PREFETCHES: 0
L1I PREFETCHES SAME FILL-ORIGIN LEVEL: 0 DIFFERENT FILL-ORIGIN LEVEL: 0
L1I AVERAGE MISS LATENCY: 281.531 cycles
L1I RQ	ACCESS:   13686794	FORWARD:          0	MERGED:    4763865	TO_CACHE:    8922929

Revised Interactions: positive negative neutral
L1I_interactions 0 0 0 -nan -nan -nan
BTB TOTAL     ACCESS:    3013576  HIT:    3013542  MISS:         34  HIT %:    99.9989  MISS %: 0.00112823   MPKI: 0.00068
BTB BRANCH_DIRECT_JUMP	ACCESS:     404359  HIT:     404354  MISS:          5
BTB BRANCH_INDIRECT	ACCESS:          0  HIT:          0  MISS:          0
BTB BRANCH_CONDITIONAL	ACCESS:    2609217  HIT:    2609188  MISS:         29
BTB BRANCH_DIRECT_CALL	ACCESS:          0  HIT:          0  MISS:          0
BTB BRANCH_INDIRECT_CALL	ACCESS:          0  HIT:          0  MISS:          0
BTB BRANCH_RETURN	ACCESS:          0  HIT:          0  MISS:          0
BTB BRANCH_OTHER ACCESS:          0  HIT:          0  MISS:          0

L2C TOTAL     ACCESS:    4006642  HIT:    2951571  MISS:    1055071  HIT %:     73.667  MISS %:     26.333   MPKI: 21.1014
L2C LOAD      ACCESS:      21313  HIT:        410  MISS:      20903  HIT %:    1.92371  MISS %:    98.0763   MPKI: 0.41806
L2C DATA LOAD MPKI: 0.41742
L2C INSTRUCTION LOAD MPKI: 0.00064
L2C RFO       ACCESS:     300422  HIT:          0  MISS:     300422  HIT %:          0  MISS %:        100   MPKI: 6.00844
L2C PREFETCH  ACCESS:    3343075  HIT:    2620494  MISS:     722581  HIT %:    78.3857  MISS %:    21.6143   MPKI: 14.4516
L2C DATA PREFETCH MPKI: 14.4516
L2C INSTRUCTION PREFETCH MPKI: 0
L2C WRITEBACK ACCESS:     320450  HIT:     313708  MISS:       6742  HIT %:    97.8961  MISS %:    2.10392   MPKI: 0.13484
L2C LOAD TRANSLATION ACCESS:      21382  HIT:      16959  MISS:       4423  HIT %:    79.3144  MISS %:    20.6856   MPKI: 0.08846
L2C PREFETCH  REQUESTED:    3251104  ISSUED:    3241776  USEFUL:        268  USELESS:     721944
L2C USEFUL LOAD PREFETCHES:        268 PREFETCH ISSUED TO LOWER LEVEL:     722694  ACCURACY: 0.0370835
L2C TIMELY PREFETCHES:        268 LATE PREFETCHES: 113 DROPPED PREFETCHES: 0
L2C PREFETCHES SAME FILL-ORIGIN LEVEL: 606595 DIFFERENT FILL-ORIGIN LEVEL: 0
L2C AVERAGE MISS LATENCY: 244.635 cycles
L2C RQ	ACCESS:     343122	FORWARD:          0	MERGED:          0	TO_CACHE:     343117
L2C WQ	ACCESS:     320450	FORWARD:          5	MERGED:          0	TO_CACHE:     320450
L2C PQ	ACCESS:    3931080	FORWARD:          0	MERGED:     158896	TO_CACHE:    3772184

Revised Interactions: positive negative neutral
L2C_interactions 3358 721026 186218 0.368767 79.1812 20.45
L2C Instructions Evicting Data 32
L2C Translations Evicting Data 4420
L2C Data Evicting Data 1039461
L2C Instructions Evicting Instructions 0
L2C Translations Evicting Instructions 0
L2C Data Evicting Instructions 32
L2C Instructions Evicting Translations 0
L2C Translations Evicting Translations 3
L2C Data Evicting Translations 4381
L2C Dense regions hint from L2: 0
PSCL5 TOTAL     ACCESS:      21359  HIT:      21359  MISS:          0  HIT %:        100  MISS %:          0   MPKI: 0
PSCL5 LOAD TRANSLATION ACCESS:      21359  HIT:      21359  MISS:          0  HIT %:        100  MISS %:          0   MPKI: 0
PSCL5 PREFETCH  REQUESTED:          0  ISSUED:          0  USEFUL:          0  USELESS:          0
PSCL5 USEFUL LOAD PREFETCHES:          0 PREFETCH ISSUED TO LOWER LEVEL:          0  ACCURACY: -nan
PSCL5 TIMELY PREFETCHES:          0 LATE PREFETCHES: 0 DROPPED PREFETCHES: 0
PSCL5 PREFETCHES SAME FILL-ORIGIN LEVEL: 0 DIFFERENT FILL-ORIGIN LEVEL: 0

Revised Interactions: positive negative neutral
PSCL5_interactions 0 0 0 -nan -nan -nan
PSCL4 TOTAL     ACCESS:      21359  HIT:      21359  MISS:          0  HIT %:        100  MISS %:          0   MPKI: 0
PSCL4 LOAD TRANSLATION ACCESS:      21359  HIT:      21359  MISS:          0  HIT %:        100  MISS %:          0   MPKI: 0
PSCL4 PREFETCH  REQUESTED:          0  ISSUED:          0  USEFUL:          0  USELESS:          0
PSCL4 USEFUL LOAD PREFETCHES:          0 PREFETCH ISSUED TO LOWER LEVEL:          0  ACCURACY: -nan
PSCL4 TIMELY PREFETCHES:          0 LATE PREFETCHES: 0 DROPPED PREFETCHES: 0
PSCL4 PREFETCHES SAME FILL-ORIGIN LEVEL: 0 DIFFERENT FILL-ORIGIN LEVEL: 0

Revised Interactions: positive negative neutral
PSCL4_interactions 0 0 0 -nan -nan -nan
PSCL3 TOTAL     ACCESS:      21359  HIT:      21359  MISS:          0  HIT %:        100  MISS %:          0   MPKI: 0
PSCL3 LOAD TRANSLATION ACCESS:      21359  HIT:      21359  MISS:          0  HIT %:        100  MISS %:          0   MPKI: 0
PSCL3 PREFETCH  REQUESTED:          0  ISSUED:          0  USEFUL:          0  USELESS:          0
PSCL3 USEFUL LOAD PREFETCHES:          0 PREFETCH ISSUED TO LOWER LEVEL:          0  ACCURACY: -nan
PSCL3 TIMELY PREFETCHES:          0 LATE PREFETCHES: 0 DROPPED PREFETCHES: 0
PSCL3 PREFETCHES SAME FILL-ORIGIN LEVEL: 0 DIFFERENT FILL-ORIGIN LEVEL: 0

Revised Interactions: positive negative neutral
PSCL3_interactions 0 0 0 -nan -nan -nan
PSCL2 TOTAL     ACCESS:      21359  HIT:      21328  MISS:         31  HIT %:    99.8549  MISS %:   0.145138   MPKI: 0.00062
PSCL2 LOAD TRANSLATION ACCESS:      21359  HIT:      21328  MISS:         31  HIT %:    99.8549  MISS %:   0.145138   MPKI: 0.00062
PSCL2 PREFETCH  REQUESTED:          0  ISSUED:          0  USEFUL:          0  USELESS:          0
PSCL2 USEFUL LOAD PREFETCHES:          0 PREFETCH ISSUED TO LOWER LEVEL:          0  ACCURACY: -nan
PSCL2 TIMELY PREFETCHES:          0 LATE PREFETCHES: 0 DROPPED PREFETCHES: 0
PSCL2 PREFETCHES SAME FILL-ORIGIN LEVEL: 0 DIFFERENT FILL-ORIGIN LEVEL: 0

Revised Interactions: positive negative neutral
PSCL2_interactions 0 0 0 -nan -nan -nan
LLC TOTAL     ACCESS:    1367461  HIT:     115194  MISS:    1252267  HIT %:    8.42393  MISS %:    91.5761   MPKI: 25.0453
LLC LOAD      ACCESS:      20790  HIT:       3702  MISS:      17088  HIT %:    17.8066  MISS %:    82.1934   MPKI: 0.34176
LLC RFO       ACCESS:     300422  HIT:          3  MISS:     300419  HIT %: 0.000998595  MISS %:     99.999   MPKI: 6.00838
LLC PREFETCH  ACCESS:     722694  HIT:      46728  MISS:     675966  HIT %:    6.46581  MISS %:    93.5342   MPKI: 13.5193
LLC WRITEBACK ACCESS:     319132  HIT:      63433  MISS:     255699  HIT %:    19.8767  MISS %:    80.1233   MPKI: 5.11398
LLC LOAD TRANSLATION ACCESS:       4423  HIT:       1328  MISS:       3095  HIT %:    30.0249  MISS %:    69.9751   MPKI: 0.0619
LLC PREFETCH  REQUESTED:          0  ISSUED:          0  USEFUL:         31  USELESS:     690709
LLC USEFUL LOAD PREFETCHES:         31 PREFETCH ISSUED TO LOWER LEVEL:     675966  ACCURACY: 0.00458603
LLC TIMELY PREFETCHES:         31 LATE PREFETCHES: 0 DROPPED PREFETCHES: 0
LLC PREFETCHES SAME FILL-ORIGIN LEVEL: 0 DIFFERENT FILL-ORIGIN LEVEL: 0
LLC AVERAGE MISS LATENCY: 180.742 cycles
LLC RQ	ACCESS:     325635	FORWARD:          0	MERGED:          0	TO_CACHE:     325635
LLC WQ	ACCESS:     319139	FORWARD:          0	MERGED:          0	TO_CACHE:     319139
LLC PQ	ACCESS:     722694	FORWARD:          0	MERGED:          0	TO_CACHE:     722694

Revised Interactions: positive negative neutral
LLC_interactions 27 674446 166115 0.00321204 80.235 19.7618
LLC Dense regions hint to LLC: 0

RAW hits: 5152
Loads Generated: 17080579
Loads sent to L1D: 17075430
Stores Generated: 2416536
Stores sent to L1D: 2416534
Major fault: 0 Minor fault: 20696
Allocated PAGES: 20696

stream: 
stream:times selected: 3519904
stream:pref_filled: 1621170
stream:pref_useful: 1526046
stream:pref_late: 12047
stream:misses: 244
stream:misses_by_poll: 0

CS: 
CS:times selected: 3444954
CS:pref_filled: 1778
CS:pref_useful: 1685
CS:pref_late: 59
CS:misses: 115763
CS:misses_by_poll: 8

CPLX: 
CPLX:times selected: 74872
CPLX:pref_filled: 358
CPLX:pref_useful: 49
CPLX:pref_late: 2
CPLX:misses: 4247
CPLX:misses_by_poll: 0

NL_L1: 
NL:times selected: 66
NL:pref_filled: 1
NL:pref_useful: 1
NL:pref_late: 0
NL:misses: 25
NL:misses_by_poll: 0

total selections: 7039796
total_filled: 689128
total_useful: 646542
total_late: 12110
total_polluted: 8
total_misses_after_warmup: 90544
conflicts: 3117
Degree Incremented Times: 168381
Degree Decremented Times: 2271

L1 IP Table Write Accesses: 11135837
L1 IP Table Read Accesses: 11132720
L1 RST Write Accesses: 1785932
L1 RST Read Accesses: 3571864
L1 CSPT Write Accesses: 1785932
L1 CSPT Read Accesses: 1852320
L1 RR Filter Tag Write Accesses: 3111408
L1 RR Filter Tag Read Accesses: 345987816
L1 IP Table Tag Write Accesses: 11153158
L1 IP Table Tag Read Accesses: 11153158
L1 RST Tag Write Accesses: 0
L1 RST Tag Read Accesses: 16115018
L1 RR Filter Write Accesses: 0
L1 RR Filter Read Accesses: 15217746
test: 86296
L2 IP Table Read Accesses: 1155684
L2 IP Table Write Accesses: 1134611
L2 IP Table Tag Read Accesses: 577908
L2 IP Table Tag Write Accesses: 577908

DRAM Statistics
 CHANNEL 0
 RQ ROW_BUFFER_HIT:     113701  ROW_BUFFER_MISS:     882842
 DBUS_CONGESTED:        119
 WQ ROW_BUFFER_HIT:      60336  ROW_BUFFER_MISS:     243757  FULL:        233

 AVG_CONGESTED_CYCLE: 7
 All warmup complete: 2
Channel 0 Bank busy for read cycles: 0
Channel 0 Bank busy for write cycles: 0
Channel 0
Rank 0
0banks busy for read cycles: 475801
0banks busy for write cycles: 1719
1banks busy for read cycles: 7607791
1banks busy for write cycles: 301688
2banks busy for read cycles: 10299315
2banks busy for write cycles: 191340
3banks busy for read cycles: 7284223
3banks busy for write cycles: 142348
4banks busy for read cycles: 5177948
4banks busy for write cycles: 134570
5banks busy for read cycles: 2919762
5banks busy for write cycles: 132240
6banks busy for read cycles: 2259412
6banks busy for write cycles: 166009
7banks busy for read cycles: 2897439
7banks busy for write cycles: 584234
8banks busy for read cycles: 2890673
8banks busy for write cycles: 7897995

CPU 0 Branch Prediction Accuracy: 99.8544% MPKI: 0.09014 Average ROB Occupancy at Mispredict: 88.6998
Branch types
NOT_BRANCH: 46904185 93.8084%
BRANCH_DIRECT_JUMP: 404359 0.808718%
BRANCH_INDIRECT: 0 0%
BRANCH_CONDITIONAL: 2691433 5.38287%
BRANCH_DIRECT_CALL: 0 0%
BRANCH_INDIRECT_CALL: 0 0%
BRANCH_RETURN: 0 0%
BRANCH_OTHER: 0 0%

@sumon_overall_L1D    646542     46007     46007     42598    689128   6212638   6217724
@Sumon_Early_by_class_L1D    645568       931        37         0
@Sumon_Late_by_class_L1D     11239        59         2         0

@Sumon_Early_by_cycle_L1D     18015     25852     67222     75018    102632    252697    103475       948       672        11         0         0
@Sumon_Late_by_cycle_L1D      2538      2105      1186      1523      3737       213
@Sumon_Early_stream_L1D     17887     25699     66979     74841    102529    252554    103451       946       671        11         0         0
@Sumon_Early_CS_L1D       122       141       242       176       103       143         1         2         1         0         0         0
@Sumon_Early_CPLX_L1D         3        11         0         0         0         0        23         0         0         0         0         0
@Sumon_Late_stream_L1D      2514      2087      1179      1518      3728       213
@Sumon_Late_CS_L1D        24        18         6         5         6         0
@Sumon_Late_CPLX_L1D         0         0         1         0         1         0
@sumon_overall_L2C       268       113         0    721944    722581   3241776   3251104
@Sumon_Early_by_class_L2C       245         0         0         0
@Sumon_Late_by_class_L2C       110         0         0         0

@Sumon_Early_by_cycle_L2C        40        29        25        18        22        52        48        22         0        12         0         0
@Sumon_Late_by_cycle_L2C         0        15         9         8        62        19
@Sumon_Early_stream_L2C        38        23        22        13        19        48        48        22         0        12         0         0
@Sumon_Early_CS_L2C         0         0         0         0         0         0         0         0         0         0         0         0
@Sumon_Early_CPLX_L2C         0         0         0         0         0         0         0         0         0         0         0         0
@Sumon_Late_stream_L2C         0        15         8         8        60        19
@Sumon_Late_CS_L2C         0         0         0         0         0         0
@Sumon_Late_CPLX_L2C         0         0         0         0         0         0
DRAM PAGES: 1048576
Allocated PAGES: 20696
