
*** ChampSim Multicore Out-of-Order Simulator ***

Warmup Instructions: 50000000
Simulation Instructions: 50000000
Number of CPUs: 1
LLC sets: 2048
LLC ways: 16
Off-chip DRAM Size: 4096 MB Channels: 1 Width: 64-bit Data Rate: 6400 MT/s
CPU 0 runs ../../biswa/SPEC2017Traces/657.xz_s-2302B.champsimtrace.xz
.xz
CPU 0 Bimodal branch predictor
BTB has LRU replacement policy
ITLB has LRU replacement policy
DTLB has LRU replacement policy
STLB has LRU replacement policy
L1I has LRU replacement policy
IP Table Entries: 256
L1D has LRU replacement policy
IP_Table L2 entries: 256
Initialize DRRIP state for L2C
Initialize SRRIP state
epoch: 1000
next table: 2717
cur table: 7032
epoch: 1000
next table: 2478
cur table: 2717
epoch: 1000
next table: 2035
cur table: 2478
epoch: 1000
next table: 2046
cur table: 2035
epoch: 1000
next table: 2044
cur table: 2046
epoch: 1000
next table: 2001
cur table: 2044
epoch: 1000
next table: 2061
cur table: 2001
epoch: 1000
next table: 1982
cur table: 2061
epoch: 1000
next table: 1907
cur table: 1982
epoch: 1000
next table: 1942
cur table: 1907
epoch: 1000
next table: 2008
cur table: 1942
epoch: 1000
next table: 2085
cur table: 2008
epoch: 1000
next table: 2146
cur table: 2085
epoch: 1000
next table: 2104
cur table: 2146
epoch: 1000
next table: 2087
cur table: 2104
epoch: 1000
next table: 1869
cur table: 2087
epoch: 1000
next table: 1943
cur table: 1869
epoch: 1000
next table: 1995
cur table: 1943
epoch: 1000
next table: 2031
cur table: 1995
epoch: 1000
next table: 2086
cur table: 2031
epoch: 1000
next table: 1945
cur table: 2086
epoch: 1000
next table: 2083
cur table: 1945
epoch: 1000
next table: 2033
cur table: 2083
epoch: 1000
next table: 2012
cur table: 2033
epoch: 1000
next table: 1997
cur table: 2012
epoch: 1000
next table: 2058
cur table: 1997
epoch: 1000
next table: 2046
cur table: 2058
epoch: 1000
next table: 2114
cur table: 2046
epoch: 1000
next table: 4484
cur table: 16099
epoch: 1000
next table: 1960
cur table: 2114
epoch: 1000
next table: 2058
cur table: 1960
epoch: 1000
next table: 2121
cur table: 2058
epoch: 1000
next table: 1931
cur table: 2121
epoch: 1000
next table: 2146
cur table: 1931
epoch: 1000
next table: 3460
cur table: 4484
epoch: 1000
next table: 2009
cur table: 2146
epoch: 1000
next table: 2162
cur table: 2009
epoch: 1000
next table: 2284
cur table: 2162
epoch: 1000
next table: 2720
cur table: 3460
epoch: 1000
next table: 2149
cur table: 2284
epoch: 1000
next table: 2201
cur table: 2149
epoch: 1000
next table: 2245
cur table: 2201
epoch: 1000
next table: 2168
cur table: 2245
epoch: 1000
next table: 2488
cur table: 2720
epoch: 1000
next table: 2136
cur table: 2168
epoch: 1000
next table: 2143
cur table: 2136
epoch: 1000
next table: 2358
cur table: 2488
epoch: 1000
next table: 2157
cur table: 2143
epoch: 1000
next table: 2260
cur table: 2157
epoch: 1000
next table: 2161
cur table: 2260
epoch: 1000
next table: 2435
cur table: 2358
epoch: 1000
next table: 1970
cur table: 2161
epoch: 1000
next table: 1957
cur table: 1970
epoch: 1000
next table: 2017
cur table: 1957
epoch: 1000
next table: 2296
cur table: 2435
epoch: 1000
next table: 2022
cur table: 2017
epoch: 1000
next table: 1690
cur table: 2022
epoch: 1000
next table: 1999
cur table: 2296
epoch: 1000
next table: 1995
cur table: 1690
epoch: 1000
next table: 2005
cur table: 1995
epoch: 1000
next table: 2262
cur table: 1999
epoch: 1000
next table: 2037
cur table: 2005
epoch: 1000
next table: 2203
cur table: 2037
epoch: 1000
next table: 1995
cur table: 2203
epoch: 1000
next table: 2230
cur table: 2262
epoch: 1000
next table: 1994
cur table: 1995
epoch: 1000
next table: 2192
cur table: 1994
epoch: 1000
next table: 1950
cur table: 2230
epoch: 1000
next table: 2043
cur table: 2192
epoch: 1000
next table: 1933
cur table: 2043
epoch: 1000
next table: 1988
cur table: 1950
epoch: 1000
next table: 1980
cur table: 1933
epoch: 1000
next table: 1975
cur table: 1980
epoch: 1000
next table: 1949
cur table: 1988
epoch: 1000
next table: 2137
cur table: 1975
epoch: 1000
next table: 2022
cur table: 2137
epoch: 1000
next table: 1979
cur table: 1949
epoch: 1000
next table: 2061
cur table: 2022
epoch: 1000
next table: 2037
cur table: 2061
epoch: 1000
next table: 2003
cur table: 1979
epoch: 1000
next table: 2040
cur table: 2037
epoch: 1000
next table: 2013
cur table: 2040
epoch: 1000
next table: 2003
cur table: 2003
Heartbeat CPU 0 instructions: 10000003 cycles: 2790794 heartbeat IPC: 3.58321 cumulative IPC: 3.58321 (Simulation time: 0 hr 6 min 19 sec) 
epoch: 1000
next table: 2003
cur table: 2013
epoch: 1000
next table: 1996
cur table: 2003
epoch: 1000
next table: 1937
cur table: 2003
epoch: 1000
next table: 2104
cur table: 1996
epoch: 1000
next table: 2033
cur table: 2104
epoch: 1000
next table: 2193
cur table: 1937
epoch: 1000
next table: 1921
cur table: 2033
epoch: 1000
next table: 2136
cur table: 1921
epoch: 1000
next table: 2119
cur table: 2193
epoch: 1000
next table: 2085
cur table: 2136
epoch: 1000
next table: 1994
cur table: 2085
epoch: 1000
next table: 2034
cur table: 2119
epoch: 1000
next table: 2138
cur table: 1994
epoch: 1000
next table: 2286
cur table: 2138
epoch: 1000
next table: 2160
cur table: 2286
epoch: 1000
next table: 2144
cur table: 2034
epoch: 1000
next table: 2037
cur table: 2160
epoch: 1000
next table: 1833
cur table: 2144
epoch: 1000
next table: 2016
cur table: 2037
epoch: 1000
next table: 2141
cur table: 2016
epoch: 1000
next table: 2085
cur table: 1833
epoch: 1000
next table: 2104
cur table: 2141
epoch: 1000
next table: 2067
cur table: 2104
epoch: 1000
next table: 1936
cur table: 2085
epoch: 1000
next table: 2084
cur table: 2067
epoch: 1000
next table: 2298
cur table: 2084
epoch: 1000
next table: 2270
cur table: 2298
epoch: 1000
next table: 2048
cur table: 1936
epoch: 1000
next table: 2297
cur table: 2270
epoch: 1000
next table: 1981
cur table: 2048
epoch: 1000
next table: 2318
cur table: 2297
epoch: 1000
next table: 2168
cur table: 2318
epoch: 1000
next table: 2009
cur table: 2168
epoch: 1000
next table: 2118
cur table: 1981
epoch: 1000
next table: 2033
cur table: 2009
epoch: 1000
next table: 1969
cur table: 2033
epoch: 1000
next table: 2133
cur table: 2118
epoch: 1000
next table: 2019
cur table: 1969
epoch: 1000
next table: 1963
cur table: 2019
epoch: 1000
next table: 1955
cur table: 2133
epoch: 1000
next table: 2090
cur table: 1963
epoch: 1000
next table: 2043
cur table: 2090
epoch: 1000
next table: 2055
cur table: 1955
epoch: 1000
next table: 2094
cur table: 2043
epoch: 1000
next table: 2028
cur table: 2094
epoch: 1000
next table: 2077
cur table: 2055
epoch: 1000
next table: 2178
cur table: 2028
epoch: 1000
next table: 2028
cur table: 2178
epoch: 1000
next table: 2179
cur table: 2077
epoch: 1000
next table: 2088
cur table: 2028
epoch: 1000
next table: 2046
cur table: 2088
epoch: 1000
next table: 2200
cur table: 2046
epoch: 1000
next table: 2050
cur table: 2179
epoch: 1000
next table: 2013
cur table: 2200
epoch: 1000
next table: 2140
cur table: 2013
epoch: 1000
next table: 2058
cur table: 2050
epoch: 1000
next table: 1965
cur table: 2140
epoch: 1000
next table: 2244
cur table: 1965
epoch: 1000
next table: 1999
cur table: 2058
epoch: 1000
next table: 1910
cur table: 2244
epoch: 1000
next table: 1945
cur table: 1910
epoch: 1000
next table: 1922
cur table: 1999
epoch: 1000
next table: 2051
cur table: 1945
epoch: 1000
next table: 2025
cur table: 2051
epoch: 1000
next table: 2086
cur table: 1922
epoch: 1000
next table: 1898
cur table: 2025
epoch: 1000
next table: 2057
cur table: 1898
epoch: 1000
next table: 1951
cur table: 2086
epoch: 1000
next table: 1978
cur table: 2057
epoch: 1000
next table: 2104
cur table: 1978
epoch: 1000
next table: 2096
cur table: 1951
epoch: 1000
next table: 1988
cur table: 2104
epoch: 1000
next table: 1998
cur table: 1988
epoch: 1000
next table: 1928
cur table: 2096
epoch: 1000
next table: 2034
cur table: 1998
epoch: 1000
next table: 1937
cur table: 2034
epoch: 1000
next table: 2007
cur table: 1928
epoch: 1000
next table: 1986
cur table: 1937
epoch: 1000
next table: 2044
cur table: 1986
epoch: 1000
next table: 2090
cur table: 2007
epoch: 1000
next table: 2153
cur table: 2044
epoch: 1000
next table: 2028
cur table: 2153
epoch: 1000
next table: 2088
cur table: 2090
epoch: 1000
next table: 2255
cur table: 2028
epoch: 1000
next table: 2165
cur table: 2255
epoch: 1000
next table: 2150
cur table: 2088
epoch: 1000
next table: 1998
cur table: 2165
epoch: 1000
next table: 2202
cur table: 1998
epoch: 1000
next table: 1859
cur table: 2150
epoch: 1000
next table: 2159
cur table: 2202
epoch: 1000
next table: 1944
cur table: 2159
epoch: 1000
next table: 1962
cur table: 1859
epoch: 1000
next table: 2210
cur table: 1944
epoch: 1000
next table: 2198
cur table: 2210
epoch: 1000
next table: 2084
cur table: 2198
epoch: 1000
next table: 2194
cur table: 1962
epoch: 1000
next table: 2027
cur table: 2084
epoch: 1000
next table: 2134
cur table: 2027
epoch: 1000
next table: 2141
cur table: 2194
epoch: 1000
next table: 1986
cur table: 2134
epoch: 1000
next table: 2010
cur table: 1986
epoch: 1000
next table: 1913
cur table: 2141
epoch: 1000
next table: 1929
cur table: 2010
Heartbeat CPU 0 instructions: 20000002 cycles: 5585653 heartbeat IPC: 3.578 cumulative IPC: 3.5806 (Simulation time: 0 hr 12 min 11 sec) 
epoch: 1000
next table: 2226
cur table: 1929
epoch: 1000
next table: 2028
cur table: 1913
epoch: 1000
next table: 2144
cur table: 2226
epoch: 1000
next table: 2053
cur table: 2144
epoch: 1000
next table: 1971
cur table: 2028
epoch: 1000
next table: 1429
cur table: 2053
epoch: 1000
next table: 1477
cur table: 1971
epoch: 1000
next table: 1536
cur table: 1429
epoch: 1000
next table: 1614
cur table: 1477
epoch: 1000
next table: 1896
cur table: 1536
epoch: 1000
next table: 1911
cur table: 1896
epoch: 1000
next table: 2024
cur table: 1614
epoch: 1000
next table: 1876
cur table: 1911
epoch: 1000
next table: 2059
cur table: 1876
epoch: 1000
next table: 2091
cur table: 2024
epoch: 1000
next table: 2034
cur table: 2059
epoch: 1000
next table: 1975
cur table: 2034
epoch: 1000
next table: 1941
cur table: 2091
epoch: 1000
next table: 2243
cur table: 1975
epoch: 1000
next table: 1892
cur table: 2243
epoch: 1000
next table: 1946
cur table: 1941
epoch: 1000
next table: 2392
cur table: 1892
epoch: 1000
next table: 1914
cur table: 2392
epoch: 1000
next table: 2105
cur table: 1914
epoch: 1000
next table: 2185
cur table: 1946
epoch: 1000
next table: 2145
cur table: 2105
epoch: 1000
next table: 2216
cur table: 2145
epoch: 1000
next table: 2256
cur table: 2185
epoch: 1000
next table: 2018
cur table: 2216
epoch: 1000
next table: 1998
cur table: 2018
epoch: 1000
next table: 1966
cur table: 2256
epoch: 1000
next table: 1933
cur table: 1998
epoch: 1000
next table: 1993
cur table: 1933
epoch: 1000
next table: 1973
cur table: 1966
epoch: 1000
next table: 2056
cur table: 1993
epoch: 1000
next table: 2026
cur table: 2056
epoch: 1000
next table: 2149
cur table: 1973
epoch: 1000
next table: 2096
cur table: 2026
epoch: 1000
next table: 2107
cur table: 2096
epoch: 1000
next table: 2013
cur table: 2149
epoch: 1000
next table: 1986
cur table: 2107
epoch: 1000
next table: 1950
cur table: 1986
epoch: 1000
next table: 2087
cur table: 1950
epoch: 1000
next table: 2047
cur table: 2013
epoch: 1000
next table: 2235
cur table: 2087
epoch: 1000
next table: 1936
cur table: 2235
epoch: 1000
next table: 2036
cur table: 2047
epoch: 1000
next table: 2029
cur table: 1936
epoch: 1000
next table: 1933
cur table: 2029
epoch: 1000
next table: 1951
cur table: 2036
epoch: 1000
next table: 1963
cur table: 1933
epoch: 1000
next table: 1755
cur table: 1951
epoch: 1000
next table: 1991
cur table: 1963
epoch: 1000
next table: 2057
cur table: 1991
epoch: 1000
next table: 2013
cur table: 2057
epoch: 1000
next table: 2076
cur table: 1755
epoch: 1000
next table: 2115
cur table: 2013
epoch: 1000
next table: 1939
cur table: 2076
epoch: 1000
next table: 2078
cur table: 2115
epoch: 1000
next table: 2122
cur table: 2078
epoch: 1000
next table: 2082
cur table: 2122
epoch: 1000
next table: 2062
cur table: 1939
epoch: 1000
next table: 2039
cur table: 2082
epoch: 1000
next table: 1986
cur table: 2039
epoch: 1000
next table: 2076
cur table: 2062
epoch: 1000
next table: 2016
cur table: 1986
epoch: 1000
next table: 2169
cur table: 2016
epoch: 1000
next table: 2002
cur table: 2076
epoch: 1000
next table: 1963
cur table: 2169
epoch: 1000
next table: 1956
cur table: 1963
epoch: 1000
next table: 2185
cur table: 2002
epoch: 1000
next table: 2256
cur table: 1956
epoch: 1000
next table: 2238
cur table: 2256
epoch: 1000
next table: 2113
cur table: 2185
epoch: 1000
next table: 1901
cur table: 2238
epoch: 1000
next table: 1989
cur table: 1901
epoch: 1000
next table: 1910
cur table: 1989
epoch: 1000
next table: 2060
cur table: 2113
epoch: 1000
next table: 1961
cur table: 1910
epoch: 1000
next table: 1965
cur table: 1961
epoch: 1000
next table: 1980
cur table: 2060
epoch: 1000
next table: 2053
cur table: 1965
epoch: 1000
next table: 1978
cur table: 2053
epoch: 1000
next table: 1975
cur table: 1980
epoch: 1000
next table: 2007
cur table: 1978
epoch: 1000
next table: 2064
cur table: 2007
epoch: 1000
next table: 2032
cur table: 1975
epoch: 1000
next table: 1905
cur table: 2064
epoch: 1000
next table: 1981
cur table: 1905
epoch: 1000
next table: 2071
cur table: 2032
epoch: 1000
next table: 2009
cur table: 1981
epoch: 1000
next table: 2052
cur table: 2009
epoch: 1000
next table: 2082
cur table: 2071
epoch: 1000
next table: 2163
cur table: 2052
epoch: 1000
next table: 2019
cur table: 2163
epoch: 1000
next table: 2111
cur table: 2082
epoch: 1000
next table: 1916
cur table: 2019
epoch: 1000
next table: 2001
cur table: 1916
epoch: 1000
next table: 1918
cur table: 2111
epoch: 1000
next table: 1945
cur table: 2001
epoch: 1000
next table: 1938
cur table: 1945
epoch: 1000
next table: 2095
cur table: 1918
epoch: 1000
next table: 1979
cur table: 1938
epoch: 1000
next table: 2047
cur table: 1979
epoch: 1000
next table: 1984
cur table: 2047
epoch: 1000
next table: 2074
cur table: 2095
epoch: 1000
next table: 2016
cur table: 1984
epoch: 1000
next table: 2142
cur table: 2016
Heartbeat CPU 0 instructions: 30000000 cycles: 8411304 heartbeat IPC: 3.53901 cumulative IPC: 3.56663 (Simulation time: 0 hr 17 min 37 sec) 
epoch: 1000
next table: 2072
cur table: 2074
epoch: 1000
next table: 1984
cur table: 2142
epoch: 1000
next table: 1931
cur table: 1984
epoch: 1000
next table: 2074
cur table: 2072
epoch: 1000
next table: 1919
cur table: 1931
epoch: 1000
next table: 2131
cur table: 1919
epoch: 1000
next table: 2040
cur table: 2074
epoch: 1000
next table: 2019
cur table: 2131
epoch: 1000
next table: 2091
cur table: 2019
epoch: 1000
next table: 2122
cur table: 2040
epoch: 1000
next table: 2042
cur table: 2091
epoch: 1000
next table: 2195
cur table: 2042
epoch: 1000
next table: 1911
cur table: 2195
epoch: 1000
next table: 2040
cur table: 2122
epoch: 1000
next table: 2114
cur table: 1911
epoch: 1000
next table: 2035
cur table: 2114
epoch: 1000
next table: 2100
cur table: 2040
epoch: 1000
next table: 1989
cur table: 2035
epoch: 1000
next table: 2035
cur table: 1989
epoch: 1000
next table: 1942
cur table: 2100
epoch: 1000
next table: 1906
cur table: 2035
epoch: 1000
next table: 1976
cur table: 1906
epoch: 1000
next table: 2002
cur table: 1942
epoch: 1000
next table: 2161
cur table: 1976
epoch: 1000
next table: 2083
cur table: 2161
epoch: 1000
next table: 2200
cur table: 2002
epoch: 1000
next table: 2093
cur table: 2083
epoch: 1000
next table: 2048
cur table: 2093
epoch: 1000
next table: 2018
cur table: 2200
epoch: 1000
next table: 2149
cur table: 2048
epoch: 1000
next table: 1975
cur table: 2149
epoch: 1000
next table: 2191
cur table: 1975
epoch: 1000
next table: 2150
cur table: 2018
epoch: 1000
next table: 2183
cur table: 2191
epoch: 1000
next table: 2128
cur table: 2183
epoch: 1000
next table: 2047
cur table: 2150
epoch: 1000
next table: 1956
cur table: 2128
epoch: 1000
next table: 2072
cur table: 1956
epoch: 1000
next table: 2100
cur table: 2047
epoch: 1000
next table: 1939
cur table: 2072
epoch: 1000
next table: 1966
cur table: 1939
epoch: 1000
next table: 2002
cur table: 1966
epoch: 1000
next table: 2134
cur table: 2100
epoch: 1000
next table: 2097
cur table: 2002
epoch: 1000
next table: 1697
cur table: 2134
epoch: 1000
next table: 1716
cur table: 2097
epoch: 1000
next table: 1925
cur table: 1716
epoch: 1000
next table: 2063
cur table: 1697
epoch: 1000
next table: 2136
cur table: 1925
epoch: 1000
next table: 2009
cur table: 2136
epoch: 1000
next table: 2018
cur table: 2009
epoch: 1000
next table: 2127
cur table: 2063
epoch: 1000
next table: 1915
cur table: 2018
epoch: 1000
next table: 2385
cur table: 1915
epoch: 1000
next table: 1893
cur table: 2127
epoch: 1000
next table: 2152
cur table: 2385
epoch: 1000
next table: 2121
cur table: 2152
epoch: 1000
next table: 2065
cur table: 1893
epoch: 1000
next table: 1968
cur table: 2121
epoch: 1000
next table: 1993
cur table: 1968
epoch: 1000
next table: 2146
cur table: 2065
epoch: 1000
next table: 2006
cur table: 1993
epoch: 1000
next table: 2089
cur table: 2006
epoch: 1000
next table: 2125
cur table: 2146
epoch: 1000
next table: 1957
cur table: 2089
epoch: 1000
next table: 2070
cur table: 1957
epoch: 1000
next table: 2160
cur table: 2070
epoch: 1000
next table: 2125
cur table: 2125
epoch: 1000
next table: 2091
cur table: 2160
epoch: 1000
next table: 2031
cur table: 2091
epoch: 1000
next table: 2105
cur table: 2125
epoch: 1000
next table: 2110
cur table: 2031
epoch: 1000
next table: 2003
cur table: 2110
epoch: 1000
next table: 2139
cur table: 2105
epoch: 1000
next table: 1931
cur table: 2003
epoch: 1000
next table: 1945
cur table: 1931
epoch: 1000
next table: 2079
cur table: 2139
epoch: 1000
next table: 1981
cur table: 1945
epoch: 1000
next table: 2156
cur table: 1981
epoch: 1000
next table: 2061
cur table: 2156
epoch: 1000
next table: 2105
cur table: 2079
epoch: 1000
next table: 2092
cur table: 2061
epoch: 1000
next table: 2152
cur table: 2092
epoch: 1000
next table: 2151
cur table: 2105
epoch: 1000
next table: 2091
cur table: 2152
epoch: 1000
next table: 2000
cur table: 2091
epoch: 1000
next table: 2144
cur table: 2151
epoch: 1000
next table: 2028
cur table: 2000
epoch: 1000
next table: 2016
cur table: 2028
epoch: 1000
next table: 2109
cur table: 2016
epoch: 1000
next table: 2231
cur table: 2144
epoch: 1000
next table: 2022
cur table: 2109
epoch: 1000
next table: 2030
cur table: 2022
epoch: 1000
next table: 2083
cur table: 2231
epoch: 1000
next table: 2229
cur table: 2030
epoch: 1000
next table: 1999
cur table: 2229
epoch: 1000
next table: 1989
cur table: 2083
epoch: 1000
next table: 1925
cur table: 1999
epoch: 1000
next table: 2017
cur table: 1925
epoch: 1000
next table: 1912
cur table: 1989
epoch: 1000
next table: 2046
cur table: 2017
epoch: 1000
next table: 2197
cur table: 2046
epoch: 1000
next table: 1981
cur table: 1912
epoch: 1000
next table: 2019
cur table: 2197
Heartbeat CPU 0 instructions: 40000003 cycles: 11197233 heartbeat IPC: 3.58947 cumulative IPC: 3.57231 (Simulation time: 0 hr 22 min 12 sec) 
epoch: 1000
next table: 2131
cur table: 2019
epoch: 1000
next table: 1988
cur table: 1981
epoch: 1000
next table: 2063
cur table: 2131
epoch: 1000
next table: 2052
cur table: 2063
epoch: 1000
next table: 1976
cur table: 2052
epoch: 1000
next table: 2082
cur table: 1988
epoch: 1000
next table: 1987
cur table: 1976
epoch: 1000
next table: 1932
cur table: 1987
epoch: 1000
next table: 2116
cur table: 2082
epoch: 1000
next table: 1931
cur table: 1932
epoch: 1000
next table: 2053
cur table: 1931
epoch: 1000
next table: 2135
cur table: 2116
epoch: 1000
next table: 1950
cur table: 2053
epoch: 1000
next table: 2051
cur table: 1950
epoch: 1000
next table: 2110
cur table: 2135
epoch: 1000
next table: 2067
cur table: 2051
epoch: 1000
next table: 2166
cur table: 2067
epoch: 1000
next table: 1954
cur table: 2110
epoch: 1000
next table: 2064
cur table: 2166
epoch: 1000
next table: 1903
cur table: 2064
epoch: 1000
next table: 2088
cur table: 1954
epoch: 1000
next table: 2060
cur table: 1903
epoch: 1000
next table: 2158
cur table: 2060
epoch: 1000
next table: 2146
cur table: 2158
epoch: 1000
next table: 2194
cur table: 2088
epoch: 1000
next table: 2071
cur table: 2146
epoch: 1000
next table: 2123
cur table: 2071
epoch: 1000
next table: 2136
cur table: 2194
epoch: 1000
next table: 1956
cur table: 2123
epoch: 1000
next table: 2105
cur table: 1956
epoch: 1000
next table: 2046
cur table: 2136
epoch: 1000
next table: 1943
cur table: 2105
epoch: 1000
next table: 2077
cur table: 1943
epoch: 1000
next table: 1951
cur table: 2046
epoch: 1000
next table: 2081
cur table: 2077
epoch: 1000
next table: 2060
cur table: 2081
epoch: 1000
next table: 2029
cur table: 1951
epoch: 1000
next table: 2086
cur table: 2060
epoch: 1000
next table: 2022
cur table: 2086
epoch: 1000
next table: 1933
cur table: 2022
epoch: 1000
next table: 2090
cur table: 2029
epoch: 1000
next table: 1980
cur table: 1933
epoch: 1000
next table: 1823
cur table: 2090
epoch: 1000
next table: 1676
cur table: 1980
epoch: 1000
next table: 1939
cur table: 1676
epoch: 1000
next table: 2020
cur table: 1939
epoch: 1000
next table: 2137
cur table: 1823
epoch: 1000
next table: 2093
cur table: 2020
epoch: 1000
next table: 2042
cur table: 2093
epoch: 1000
next table: 2082
cur table: 2137
epoch: 1000
next table: 2047
cur table: 2042
epoch: 1000
next table: 1965
cur table: 2047
epoch: 1000
next table: 2160
cur table: 2082
epoch: 1000
next table: 2078
cur table: 1965
epoch: 1000
next table: 2050
cur table: 2078
epoch: 1000
next table: 2053
cur table: 2160
epoch: 1000
next table: 1975
cur table: 2050
epoch: 1000
next table: 1979
cur table: 1975
epoch: 1000
next table: 2028
cur table: 1979
epoch: 1000
next table: 2058
cur table: 2053
epoch: 1000
next table: 2045
cur table: 2028
epoch: 1000
next table: 2057
cur table: 2045
epoch: 1000
next table: 2181
cur table: 2058
epoch: 1000
next table: 1934
cur table: 2057
epoch: 1000
next table: 2010
cur table: 1934
epoch: 1000
next table: 2084
cur table: 2181
epoch: 1000
next table: 2086
cur table: 2010
epoch: 1000
next table: 1974
cur table: 2086
epoch: 1000
next table: 2148
cur table: 2084
epoch: 1000
next table: 2081
cur table: 1974
epoch: 1000
next table: 2109
cur table: 2081
epoch: 1000
next table: 2119
cur table: 2109
epoch: 1000
next table: 2112
cur table: 2148
epoch: 1000
next table: 2048
cur table: 2119
epoch: 1000
next table: 1950
cur table: 2048
epoch: 1000
next table: 2145
cur table: 2112
epoch: 1000
next table: 1920
cur table: 1950
epoch: 1000
next table: 1939
cur table: 1920
epoch: 1000
next table: 2040
cur table: 2145
epoch: 1000
next table: 2026
cur table: 1939
epoch: 1000
next table: 2067
cur table: 2026
epoch: 1000
next table: 2094
cur table: 2040
epoch: 1000
next table: 2088
cur table: 2067
epoch: 1000
next table: 2054
cur table: 2088
epoch: 1000
next table: 2064
cur table: 2094
epoch: 1000
next table: 2056
cur table: 2054
epoch: 1000
next table: 2044
cur table: 2056
epoch: 1000
next table: 2025
cur table: 2044
epoch: 1000
next table: 2168
cur table: 2064
epoch: 1000
next table: 2152
cur table: 2025
epoch: 1000
next table: 2092
cur table: 2152
epoch: 1000
next table: 2140
cur table: 2168
epoch: 1000
next table: 2031
cur table: 2092
epoch: 1000
next table: 2001
cur table: 2031
epoch: 1000
next table: 2134
cur table: 2140
epoch: 1000
next table: 2241
cur table: 2001
epoch: 1000
next table: 2059
cur table: 2241
epoch: 1000
next table: 2028
cur table: 2059
epoch: 1000
next table: 2097
cur table: 2134
epoch: 1000
next table: 1952
cur table: 2028
epoch: 1000
next table: 1967
cur table: 1952
epoch: 1000
next table: 2188
cur table: 2097
epoch: 1000
next table: 1972
cur table: 1967
epoch: 1000
next table: 2066
cur table: 1972
epoch: 1000
next table: 1976
cur table: 2188
epoch: 1000
next table: 1915
cur table: 2066
epoch: 1000
next table: 1959
cur table: 1915
Heartbeat CPU 0 instructions: 50000000 cycles: 13988976 heartbeat IPC: 3.58199 cumulative IPC: 3.57424 (Simulation time: 0 hr 26 min 3 sec) 

Warmup complete CPU 0 instructions: 50000004 cycles: 13988977 (Simulation time: 0 hr 26 min 3 sec) 

epoch: 1000
next table: 1979
cur table: 1981
epoch: 1000
next table: 1930
cur table: 1979
epoch: 1000
next table: 2058
cur table: 1930
epoch: 1000
next table: 2002
cur table: 2058
epoch: 1000
next table: 2271
cur table: 2173
epoch: 1000
next table: 2001
cur table: 2002
epoch: 1000
next table: 2093
cur table: 2001
epoch: 1000
next table: 2183
cur table: 2271
epoch: 1000
next table: 2108
cur table: 2093
epoch: 1000
next table: 2090
cur table: 2108
epoch: 1000
next table: 2145
cur table: 2183
epoch: 1000
next table: 1932
cur table: 2090
epoch: 1000
next table: 1996
cur table: 1932
epoch: 1000
next table: 2033
cur table: 2145
epoch: 1000
next table: 1927
cur table: 1996
epoch: 1000
next table: 2061
cur table: 1927
epoch: 1000
next table: 1748
cur table: 2033
epoch: 1000
next table: 1963
cur table: 2061
epoch: 1000
next table: 1930
cur table: 1963
epoch: 1000
next table: 1994
cur table: 1748
epoch: 1000
next table: 2202
cur table: 1930
epoch: 1000
next table: 1981
cur table: 2202
epoch: 1000
next table: 2153
cur table: 1994
epoch: 1000
next table: 1866
cur table: 1981
epoch: 1000
next table: 1963
cur table: 1866
epoch: 1000
next table: 2070
cur table: 2153
epoch: 1000
next table: 2158
cur table: 1963
epoch: 1000
next table: 2118
cur table: 2158
epoch: 1000
next table: 1866
cur table: 2070
epoch: 1000
next table: 2054
cur table: 2118
epoch: 1000
next table: 1897
cur table: 2054
epoch: 1000
next table: 1964
cur table: 1866
epoch: 1000
next table: 1919
cur table: 1897
epoch: 1000
next table: 2013
cur table: 1919
epoch: 1000
next table: 1951
cur table: 1964
epoch: 1000
next table: 1996
cur table: 2013
epoch: 1000
next table: 1755
cur table: 1996
epoch: 1000
next table: 1737
cur table: 1951
epoch: 1000
next table: 2102
cur table: 1755
epoch: 1000
next table: 1924
cur table: 2102
epoch: 1000
next table: 2007
cur table: 1737
epoch: 1000
next table: 1884
cur table: 1924
epoch: 1000
next table: 1873
cur table: 1884
epoch: 1000
next table: 2139
cur table: 2007
epoch: 1000
next table: 1925
cur table: 1873
epoch: 1000
next table: 1972
cur table: 1925
epoch: 1000
next table: 2007
cur table: 2139
epoch: 1000
next table: 1921
cur table: 1972
epoch: 1000
next table: 1992
cur table: 1921
epoch: 1000
next table: 1986
cur table: 1992
epoch: 1000
next table: 2204
cur table: 2007
epoch: 1000
next table: 1911
cur table: 1986
epoch: 1000
next table: 2065
cur table: 1911
epoch: 1000
next table: 2234
cur table: 2204
epoch: 1000
next table: 2112
cur table: 2065
epoch: 1000
next table: 1972
cur table: 2112
epoch: 1000
next table: 2196
cur table: 1972
epoch: 1000
next table: 2357
cur table: 2234
epoch: 1000
next table: 2089
cur table: 2196
epoch: 1000
next table: 2235
cur table: 2089
epoch: 1000
next table: 2018
cur table: 2357
epoch: 1000
next table: 2052
cur table: 2235
epoch: 1000
next table: 2027
cur table: 2052
epoch: 1000
next table: 2068
cur table: 2018
epoch: 1000
next table: 1948
cur table: 2027
epoch: 1000
next table: 1958
cur table: 1948
epoch: 1000
next table: 2104
cur table: 1958
epoch: 1000
next table: 2191
cur table: 2068
epoch: 1000
next table: 2069
cur table: 2104
epoch: 1000
next table: 2015
cur table: 2069
epoch: 1000
next table: 2190
cur table: 2191
epoch: 1000
next table: 2040
cur table: 2015
epoch: 1000
next table: 2061
cur table: 2040
epoch: 1000
next table: 2103
cur table: 2190
epoch: 1000
next table: 2027
cur table: 2061
epoch: 1000
next table: 1818
cur table: 2027
epoch: 1000
next table: 1614
cur table: 2103
epoch: 1000
next table: 1885
cur table: 1818
epoch: 1000
next table: 1943
cur table: 1885
epoch: 1000
next table: 1965
cur table: 1614
epoch: 1000
next table: 1958
cur table: 1943
epoch: 1000
next table: 1974
cur table: 1958
epoch: 1000
next table: 1957
cur table: 1965
epoch: 1000
next table: 2056
cur table: 1974
epoch: 1000
next table: 2035
cur table: 2056
epoch: 1000
next table: 2217
cur table: 1957
epoch: 1000
next table: 1858
cur table: 2035
epoch: 1000
next table: 1911
cur table: 1858
epoch: 1000
next table: 1976
cur table: 1911
epoch: 1000
next table: 2072
cur table: 2217
epoch: 1000
next table: 2075
cur table: 1976
epoch: 1000
next table: 1908
cur table: 2075
epoch: 1000
next table: 2177
cur table: 2072
epoch: 1000
next table: 2045
cur table: 1908
epoch: 1000
next table: 2061
cur table: 2045
epoch: 1000
next table: 2087
cur table: 2177
epoch: 1000
next table: 2044
cur table: 2061
epoch: 1000
next table: 2021
cur table: 2044
epoch: 1000
next table: 1974
cur table: 2021
epoch: 1000
next table: 2068
cur table: 2087
epoch: 1000
next table: 2106
cur table: 1974
epoch: 1000
next table: 1957
cur table: 2106
epoch: 1000
next table: 2145
cur table: 2068
epoch: 1000
next table: 1981
cur table: 1957
epoch: 1000
next table: 2080
cur table: 1981
epoch: 1000
next table: 2072
cur table: 2080
epoch: 1000
next table: 2204
cur table: 2145
epoch: 1000
next table: 1980
cur table: 2072
epoch: 1000
next table: 2009
cur table: 1980
epoch: 1000
next table: 2134
cur table: 2204
epoch: 1000
next table: 2103
cur table: 2009
epoch: 1000
next table: 2010
cur table: 2103
Heartbeat CPU 0 instructions: 60000001 cycles: 33420956 heartbeat IPC: 0.514616 cumulative IPC: 0.514615 (Simulation time: 0 hr 28 min 59 sec) 
epoch: 1000
next table: 2154
cur table: 2134
epoch: 1000
next table: 1993
cur table: 2010
epoch: 1000
next table: 1947
cur table: 1993
epoch: 1000
next table: 2003
cur table: 1947
epoch: 1000
next table: 2028
cur table: 2154
epoch: 1000
next table: 2273
cur table: 2003
epoch: 1000
next table: 2115
cur table: 2273
epoch: 1000
next table: 1996
cur table: 2028
epoch: 1000
next table: 2015
cur table: 2115
epoch: 1000
next table: 2116
cur table: 2015
epoch: 1000
next table: 2053
cur table: 1996
epoch: 1000
next table: 2029
cur table: 2116
epoch: 1000
next table: 1846
cur table: 2029
epoch: 1000
next table: 1861
cur table: 2053
epoch: 1000
next table: 2027
cur table: 1846
epoch: 1000
next table: 1986
cur table: 2027
epoch: 1000
next table: 1766
cur table: 1861
epoch: 1000
next table: 2177
cur table: 1986
epoch: 1000
next table: 1947
cur table: 1766
epoch: 1000
next table: 2209
cur table: 2177
epoch: 1000
next table: 2215
cur table: 2209
epoch: 1000
next table: 1727
cur table: 1947
epoch: 1000
next table: 1725
cur table: 2215
epoch: 1000
next table: 1876
cur table: 1725
epoch: 1000
next table: 1802
cur table: 1876
epoch: 1000
next table: 2176
cur table: 1727
epoch: 1000
next table: 1825
cur table: 1802
epoch: 1000
next table: 1916
cur table: 1825
epoch: 1000
next table: 2189
cur table: 2176
epoch: 1000
next table: 1966
cur table: 1916
epoch: 1000
next table: 2069
cur table: 1966
epoch: 1000
next table: 2245
cur table: 2189
epoch: 1000
next table: 2096
cur table: 2069
epoch: 1000
next table: 2338
cur table: 2096
epoch: 1000
next table: 1987
cur table: 2338
epoch: 1000
next table: 2137
cur table: 2245
epoch: 1000
next table: 2015
cur table: 1987
epoch: 1000
next table: 2082
cur table: 2015
epoch: 1000
next table: 2227
cur table: 2137
epoch: 1000
next table: 2017
cur table: 2082
epoch: 1000
next table: 2049
cur table: 2017
epoch: 1000
next table: 2044
cur table: 2049
epoch: 1000
next table: 2145
cur table: 2227
epoch: 1000
next table: 1988
cur table: 2044
epoch: 1000
next table: 2041
cur table: 1988
epoch: 1000
next table: 2075
cur table: 2145
epoch: 1000
next table: 2034
cur table: 2041
epoch: 1000
next table: 1958
cur table: 2034
epoch: 1000
next table: 2102
cur table: 1958
epoch: 1000
next table: 2208
cur table: 2075
epoch: 1000
next table: 1904
cur table: 2102
epoch: 1000
next table: 1946
cur table: 1904
epoch: 1000
next table: 2163
cur table: 2208
epoch: 1000
next table: 2032
cur table: 1946
epoch: 1000
next table: 2023
cur table: 2032
epoch: 1000
next table: 2122
cur table: 2163
epoch: 1000
next table: 2080
cur table: 2023
epoch: 1000
next table: 2075
cur table: 2080
epoch: 1000
next table: 1942
cur table: 2075
epoch: 1000
next table: 2140
cur table: 2122
epoch: 1000
next table: 1973
cur table: 1942
epoch: 1000
next table: 1991
cur table: 1973
epoch: 1000
next table: 2155
cur table: 2140
epoch: 1000
next table: 2129
cur table: 1991
epoch: 1000
next table: 2268
cur table: 2129
epoch: 1000
next table: 2113
cur table: 2155
epoch: 1000
next table: 2076
cur table: 2268
epoch: 1000
next table: 2201
cur table: 2076
epoch: 1000
next table: 2104
cur table: 2113
epoch: 1000
next table: 2121
cur table: 2201
epoch: 1000
next table: 1851
cur table: 2121
epoch: 1000
next table: 2046
cur table: 2104
epoch: 1000
next table: 2104
cur table: 1851
epoch: 1000
next table: 2080
cur table: 2104
epoch: 1000
next table: 2007
cur table: 2080
epoch: 1000
next table: 2196
cur table: 2046
epoch: 1000
next table: 2032
cur table: 2007
epoch: 1000
next table: 1990
cur table: 2032
epoch: 1000
next table: 2209
cur table: 2196
epoch: 1000
next table: 2016
cur table: 1990
epoch: 1000
next table: 2086
cur table: 2016
epoch: 1000
next table: 1990
cur table: 2086
epoch: 1000
next table: 2144
cur table: 2209
epoch: 1000
next table: 1906
cur table: 1990
epoch: 1000
next table: 2003
cur table: 1906
epoch: 1000
next table: 2257
cur table: 2144
epoch: 1000
next table: 2072
cur table: 2003
epoch: 1000
next table: 1928
cur table: 2072
epoch: 1000
next table: 1996
cur table: 1928
epoch: 1000
next table: 2136
cur table: 2257
epoch: 1000
next table: 2017
cur table: 1996
epoch: 1000
next table: 2043
cur table: 2017
epoch: 1000
next table: 2078
cur table: 2136
epoch: 1000
next table: 2012
cur table: 2043
epoch: 1000
next table: 2143
cur table: 2012
epoch: 1000
next table: 2185
cur table: 2078
epoch: 1000
next table: 2028
cur table: 2143
epoch: 1000
next table: 2060
cur table: 2028
epoch: 1000
next table: 1970
cur table: 2060
epoch: 1000
next table: 2077
cur table: 2185
epoch: 1000
next table: 1922
cur table: 1970
epoch: 1000
next table: 2015
cur table: 1922
Heartbeat CPU 0 instructions: 70000000 cycles: 52253114 heartbeat IPC: 0.531007 cumulative IPC: 0.522683 (Simulation time: 0 hr 32 min 44 sec) 
epoch: 1000
next table: 2117
cur table: 2077
epoch: 1000
next table: 2013
cur table: 2015
epoch: 1000
next table: 1962
cur table: 2013
epoch: 1000
next table: 1853
cur table: 2117
epoch: 1000
next table: 1836
cur table: 1962
epoch: 1000
next table: 2023
cur table: 1836
epoch: 1000
next table: 2088
cur table: 1853
epoch: 1000
next table: 2109
cur table: 2023
epoch: 1000
next table: 1976
cur table: 2109
epoch: 1000
next table: 2072
cur table: 2088
epoch: 1000
next table: 2094
cur table: 1976
epoch: 1000
next table: 2358
cur table: 2094
epoch: 1000
next table: 2033
cur table: 2072
epoch: 1000
next table: 2014
cur table: 2358
epoch: 1000
next table: 2109
cur table: 2014
epoch: 1000
next table: 1986
cur table: 2109
epoch: 1000
next table: 2266
cur table: 2033
epoch: 1000
next table: 1986
cur table: 1986
epoch: 1000
next table: 2025
cur table: 1986
epoch: 1000
next table: 2192
cur table: 2266
epoch: 1000
next table: 2060
cur table: 2025
epoch: 1000
next table: 2012
cur table: 2060
epoch: 1000
next table: 2043
cur table: 2192
epoch: 1000
next table: 1916
cur table: 2012
epoch: 1000
next table: 1932
cur table: 1916
epoch: 1000
next table: 1978
cur table: 2043
epoch: 1000
next table: 2190
cur table: 1932
epoch: 1000
next table: 2083
cur table: 2190
epoch: 1000
next table: 2130
cur table: 2083
epoch: 1000
next table: 2126
cur table: 1978
epoch: 1000
next table: 2012
cur table: 2130
epoch: 1000
next table: 2106
cur table: 2012
epoch: 1000
next table: 2164
cur table: 2126
epoch: 1000
next table: 2037
cur table: 2106
epoch: 1000
next table: 2127
cur table: 2037
epoch: 1000
next table: 1984
cur table: 2164
epoch: 1000
next table: 2048
cur table: 2127
epoch: 1000
next table: 1950
cur table: 2048
epoch: 1000
next table: 2130
cur table: 1950
epoch: 1000
next table: 2191
cur table: 1984
epoch: 1000
next table: 2379
cur table: 2130
epoch: 1000
next table: 1907
cur table: 2191
epoch: 1000
next table: 2129
cur table: 2379
epoch: 1000
next table: 2069
cur table: 2129
epoch: 1000
next table: 1921
cur table: 2069
epoch: 1000
next table: 2077
cur table: 1907
epoch: 1000
next table: 1948
cur table: 1921
epoch: 1000
next table: 1975
cur table: 1948
epoch: 1000
next table: 2171
cur table: 2077
epoch: 1000
next table: 1973
cur table: 1975
epoch: 1000
next table: 1981
cur table: 1973
epoch: 1000
next table: 2039
cur table: 1981
epoch: 1000
next table: 2194
cur table: 2171
epoch: 1000
next table: 2082
cur table: 2039
epoch: 1000
next table: 2045
cur table: 2082
epoch: 1000
next table: 2271
cur table: 2194
epoch: 1000
next table: 2140
cur table: 2045
epoch: 1000
next table: 2008
cur table: 2140
epoch: 1000
next table: 1978
cur table: 2008
epoch: 1000
next table: 2117
cur table: 2271
epoch: 1000
next table: 1968
cur table: 1978
epoch: 1000
next table: 2111
cur table: 1968
epoch: 1000
next table: 2073
cur table: 2117
epoch: 1000
next table: 1814
cur table: 2111
epoch: 1000
next table: 2006
cur table: 1814
epoch: 1000
next table: 1990
cur table: 2073
epoch: 1000
next table: 1952
cur table: 2006
epoch: 1000
next table: 1936
cur table: 1952
epoch: 1000
next table: 2026
cur table: 1990
epoch: 1000
next table: 2041
cur table: 1936
epoch: 1000
next table: 1904
cur table: 2041
epoch: 1000
next table: 1995
cur table: 2026
epoch: 1000
next table: 2012
cur table: 1904
epoch: 1000
next table: 1966
cur table: 2012
epoch: 1000
next table: 1939
cur table: 1966
epoch: 1000
next table: 2106
cur table: 1995
epoch: 1000
next table: 2086
cur table: 1939
epoch: 1000
next table: 2288
cur table: 2086
epoch: 1000
next table: 2015
cur table: 2106
epoch: 1000
next table: 1996
cur table: 2288
epoch: 1000
next table: 1989
cur table: 1996
epoch: 1000
next table: 2113
cur table: 2015
epoch: 1000
next table: 1914
cur table: 1989
epoch: 1000
next table: 2013
cur table: 1914
epoch: 1000
next table: 2005
cur table: 2113
epoch: 1000
next table: 1853
cur table: 2013
epoch: 1000
next table: 1667
cur table: 1853
epoch: 1000
next table: 1828
cur table: 2005
epoch: 1000
next table: 1882
cur table: 1667
epoch: 1000
next table: 2135
cur table: 1882
epoch: 1000
next table: 1995
cur table: 1828
epoch: 1000
next table: 2138
cur table: 2135
epoch: 1000
next table: 1955
cur table: 2138
epoch: 1000
next table: 1950
cur table: 1955
epoch: 1000
next table: 2192
cur table: 1995
epoch: 1000
next table: 1980
cur table: 1950
epoch: 1000
next table: 2051
cur table: 1980
epoch: 1000
next table: 2068
cur table: 2192
epoch: 1000
next table: 1912
cur table: 2051
epoch: 1000
next table: 1909
cur table: 1912
epoch: 1000
next table: 1949
cur table: 2068
epoch: 1000
next table: 1954
cur table: 1909
epoch: 1000
next table: 1976
cur table: 1954
epoch: 1000
next table: 2031
cur table: 1976
epoch: 1000
next table: 2158
cur table: 1949
epoch: 1000
next table: 1913
cur table: 2031
epoch: 1000
next table: 1959
cur table: 1913
epoch: 1000
next table: 2074
cur table: 2158
epoch: 1000
next table: 1945
cur table: 1959
epoch: 1000
next table: 2021
cur table: 1945
Heartbeat CPU 0 instructions: 80000003 cycles: 71428746 heartbeat IPC: 0.521495 cumulative IPC: 0.522286 (Simulation time: 0 hr 38 min 26 sec) 
epoch: 1000
next table: 2152
cur table: 2074
epoch: 1000
next table: 1923
cur table: 2021
epoch: 1000
next table: 1975
cur table: 1923
epoch: 1000
next table: 2046
cur table: 1975
epoch: 1000
next table: 2163
cur table: 2152
epoch: 1000
next table: 1997
cur table: 2046
epoch: 1000
next table: 1956
cur table: 1997
epoch: 1000
next table: 2149
cur table: 2163
epoch: 1000
next table: 2018
cur table: 1956
epoch: 1000
next table: 2042
cur table: 2018
epoch: 1000
next table: 2067
cur table: 2149
epoch: 1000
next table: 1979
cur table: 2042
epoch: 1000
next table: 2012
cur table: 1979
epoch: 1000
next table: 2106
cur table: 2067
epoch: 1000
next table: 1991
cur table: 2012
epoch: 1000
next table: 1998
cur table: 1991
epoch: 1000
next table: 1984
cur table: 1998
epoch: 1000
next table: 2112
cur table: 2106
epoch: 1000
next table: 1987
cur table: 1984
epoch: 1000
next table: 1955
cur table: 1987
epoch: 1000
next table: 2024
cur table: 2112
epoch: 1000
next table: 1983
cur table: 1955
epoch: 1000
next table: 1988
cur table: 1983
epoch: 1000
next table: 2180
cur table: 2024
epoch: 1000
next table: 1947
cur table: 1988
epoch: 1000
next table: 2053
cur table: 1947
epoch: 1000
next table: 2017
cur table: 2053
epoch: 1000
next table: 2126
cur table: 2180
epoch: 1000
next table: 1992
cur table: 2017
epoch: 1000
next table: 1997
cur table: 1992
epoch: 1000
next table: 2093
cur table: 2126
epoch: 1000
next table: 2031
cur table: 1997
epoch: 1000
next table: 2010
cur table: 2031
epoch: 1000
next table: 2044
cur table: 2093
epoch: 1000
next table: 1974
cur table: 2010
epoch: 1000
next table: 1986
cur table: 1974
epoch: 1000
next table: 2094
cur table: 2044
epoch: 1000
next table: 1860
cur table: 1986
epoch: 1000
next table: 1919
cur table: 1860
epoch: 1000
next table: 1963
cur table: 1919
epoch: 1000
next table: 2082
cur table: 2094
epoch: 1000
next table: 2015
cur table: 1963
epoch: 1000
next table: 1909
cur table: 2015
epoch: 1000
next table: 2021
cur table: 2082
epoch: 1000
next table: 1935
cur table: 1909
epoch: 1000
next table: 2051
cur table: 1935
epoch: 1000
next table: 2050
cur table: 2021
epoch: 1000
next table: 2039
cur table: 2051
epoch: 1000
next table: 1986
cur table: 2039
epoch: 1000
next table: 2171
cur table: 2050
epoch: 1000
next table: 1942
cur table: 1986
epoch: 1000
next table: 1989
cur table: 1942
epoch: 1000
next table: 2023
cur table: 1989
epoch: 1000
next table: 2050
cur table: 2171
epoch: 1000
next table: 2061
cur table: 2023
epoch: 1000
next table: 2005
cur table: 2061
epoch: 1000
next table: 2013
cur table: 2050
epoch: 1000
next table: 1920
cur table: 2005
epoch: 1000
next table: 1770
cur table: 1920
epoch: 1000
next table: 2116
cur table: 2013
epoch: 1000
next table: 1926
cur table: 1770
epoch: 1000
next table: 2131
cur table: 1926
epoch: 1000
next table: 2031
cur table: 2131
epoch: 1000
next table: 2277
cur table: 2116
epoch: 1000
next table: 2087
cur table: 2031
epoch: 1000
next table: 2045
cur table: 2087
epoch: 1000
next table: 2150
cur table: 2277
epoch: 1000
next table: 2115
cur table: 2045
epoch: 1000
next table: 1995
cur table: 2115
epoch: 1000
next table: 2043
cur table: 2150
epoch: 1000
next table: 1930
cur table: 1995
epoch: 1000
next table: 2021
cur table: 1930
epoch: 1000
next table: 2014
cur table: 2043
epoch: 1000
next table: 2027
cur table: 2021
epoch: 1000
next table: 1913
cur table: 2027
epoch: 1000
next table: 2005
cur table: 1913
epoch: 1000
next table: 2094
cur table: 2014
epoch: 1000
next table: 1915
cur table: 2005
epoch: 1000
next table: 2084
cur table: 1915
epoch: 1000
next table: 2146
cur table: 2094
epoch: 1000
next table: 2035
cur table: 2084
epoch: 1000
next table: 1947
cur table: 2035
epoch: 1000
next table: 1926
cur table: 2146
epoch: 1000
next table: 1966
cur table: 1947
epoch: 1000
next table: 2137
cur table: 1966
epoch: 1000
next table: 2078
cur table: 1926
epoch: 1000
next table: 2126
cur table: 2137
epoch: 1000
next table: 2169
cur table: 2126
epoch: 1000
next table: 1903
cur table: 2078
epoch: 1000
next table: 1782
cur table: 2169
epoch: 1000
next table: 1925
cur table: 1782
epoch: 1000
next table: 1918
cur table: 1903
epoch: 1000
next table: 2029
cur table: 1925
epoch: 1000
next table: 2124
cur table: 2029
epoch: 1000
next table: 2055
cur table: 1918
epoch: 1000
next table: 1925
cur table: 2124
epoch: 1000
next table: 1940
cur table: 1925
epoch: 1000
next table: 1876
cur table: 1940
epoch: 1000
next table: 2144
cur table: 2055
epoch: 1000
next table: 1996
cur table: 1876
epoch: 1000
next table: 2012
cur table: 1996
epoch: 1000
next table: 2221
cur table: 2144
epoch: 1000
next table: 2036
cur table: 2012
epoch: 1000
next table: 2284
cur table: 2036
epoch: 1000
next table: 2076
cur table: 2221
epoch: 1000
next table: 2321
cur table: 2284
epoch: 1000
next table: 1922
cur table: 2321
epoch: 1000
next table: 2056
cur table: 1922
epoch: 1000
next table: 2128
cur table: 2076
epoch: 1000
next table: 2031
cur table: 2056
epoch: 1000
next table: 2063
cur table: 2031
epoch: 1000
next table: 2152
cur table: 2128
epoch: 1000
next table: 2021
cur table: 2063
epoch: 1000
next table: 2131
cur table: 2021
epoch: 1000
next table: 1957
cur table: 2131
epoch: 1000
next table: 2213
cur table: 2152
epoch: 1000
next table: 2071
cur table: 1957
Heartbeat CPU 0 instructions: 90000002 cycles: 90916290 heartbeat IPC: 0.513148 cumulative IPC: 0.519971 (Simulation time: 0 hr 44 min 10 sec) 
epoch: 1000
next table: 2091
cur table: 2071
epoch: 1000
next table: 2043
cur table: 2213
epoch: 1000
next table: 2124
cur table: 2091
epoch: 1000
next table: 2212
cur table: 2124
epoch: 1000
next table: 1925
cur table: 2043
epoch: 1000
next table: 2238
cur table: 2212
epoch: 1000
next table: 2060
cur table: 2238
epoch: 1000
next table: 2146
cur table: 1925
epoch: 1000
next table: 2054
cur table: 2060
epoch: 1000
next table: 2118
cur table: 2054
epoch: 1000
next table: 1971
cur table: 2146
epoch: 1000
next table: 2071
cur table: 2118
epoch: 1000
next table: 1867
cur table: 2071
epoch: 1000
next table: 2083
cur table: 1867
epoch: 1000
next table: 2047
cur table: 1971
epoch: 1000
next table: 2027
cur table: 2083
epoch: 1000
next table: 1932
cur table: 2027
epoch: 1000
next table: 2164
cur table: 2047
epoch: 1000
next table: 1947
cur table: 1932
epoch: 1000
next table: 1929
cur table: 1947
epoch: 1000
next table: 2105
cur table: 2164
epoch: 1000
next table: 1949
cur table: 1929
epoch: 1000
next table: 1969
cur table: 1949
epoch: 1000
next table: 2135
cur table: 2105
epoch: 1000
next table: 1871
cur table: 1969
epoch: 1000
next table: 1920
cur table: 1871
epoch: 1000
next table: 1758
cur table: 2135
epoch: 1000
next table: 1937
cur table: 1920
epoch: 1000
next table: 1995
cur table: 1937
epoch: 1000
next table: 1872
cur table: 1758
epoch: 1000
next table: 2030
cur table: 1995
epoch: 1000
next table: 1814
cur table: 1872
epoch: 1000
next table: 1986
cur table: 2030
epoch: 1000
next table: 1906
cur table: 1986
epoch: 1000
next table: 1717
cur table: 1814
epoch: 1000
next table: 1850
cur table: 1906
epoch: 1000
next table: 1788
cur table: 1717
epoch: 1000
next table: 2127
cur table: 1850
epoch: 1000
next table: 1992
cur table: 2127
epoch: 1000
next table: 1768
cur table: 1788
epoch: 1000
next table: 2302
cur table: 1992
epoch: 1000
next table: 1886
cur table: 2302
epoch: 1000
next table: 2087
cur table: 1768
epoch: 1000
next table: 1895
cur table: 1886
epoch: 1000
next table: 2038
cur table: 1895
epoch: 1000
next table: 2026
cur table: 2087
epoch: 1000
next table: 1938
cur table: 2038
epoch: 1000
next table: 2005
cur table: 1938
epoch: 1000
next table: 2062
cur table: 2026
epoch: 1000
next table: 1899
cur table: 2005
epoch: 1000
next table: 2085
cur table: 1899
epoch: 1000
next table: 1916
cur table: 2062
epoch: 1000
next table: 1906
cur table: 2085
epoch: 1000
next table: 1976
cur table: 1906
epoch: 1000
next table: 1935
cur table: 1916
epoch: 1000
next table: 1727
cur table: 1976
epoch: 1000
next table: 2296
cur table: 1727
epoch: 1000
next table: 1726
cur table: 1935
epoch: 1000
next table: 1884
cur table: 2296
epoch: 1000
next table: 1977
cur table: 1884
epoch: 1000
next table: 2071
cur table: 1726
epoch: 1000
next table: 2085
cur table: 1977
epoch: 1000
next table: 1936
cur table: 2085
epoch: 1000
next table: 2023
cur table: 2071
epoch: 1000
next table: 2009
cur table: 1936
epoch: 1000
next table: 2122
cur table: 2009
epoch: 1000
next table: 2047
cur table: 2023
epoch: 1000
next table: 1986
cur table: 2122
epoch: 1000
next table: 1910
cur table: 1986
epoch: 1000
next table: 2066
cur table: 2047
epoch: 1000
next table: 2105
cur table: 1910
epoch: 1000
next table: 1904
cur table: 2105
epoch: 1000
next table: 2082
cur table: 1904
epoch: 1000
next table: 2095
cur table: 2066
epoch: 1000
next table: 1983
cur table: 2082
epoch: 1000
next table: 2403
cur table: 1983
epoch: 1000
next table: 1947
cur table: 2095
epoch: 1000
next table: 2207
cur table: 2403
epoch: 1000
next table: 1871
cur table: 2207
epoch: 1000
next table: 2047
cur table: 1947
epoch: 1000
next table: 2345
cur table: 1871
epoch: 1000
next table: 2169
cur table: 2345
epoch: 1000
next table: 1915
cur table: 2047
epoch: 1000
next table: 2101
cur table: 2169
epoch: 1000
next table: 2260
cur table: 2101
epoch: 1000
next table: 1966
cur table: 1915
epoch: 1000
next table: 2120
cur table: 2260
epoch: 1000
next table: 2016
cur table: 2120
epoch: 1000
next table: 2070
cur table: 1966
epoch: 1000
next table: 2029
cur table: 2016
epoch: 1000
next table: 2246
cur table: 2029
epoch: 1000
next table: 2124
cur table: 2070
epoch: 1000
next table: 1942
cur table: 2246
epoch: 1000
next table: 1998
cur table: 1942
epoch: 1000
next table: 2053
cur table: 2124
epoch: 1000
next table: 2159
cur table: 1998
epoch: 1000
next table: 1959
cur table: 2159
epoch: 1000
next table: 2054
cur table: 1959
epoch: 1000
next table: 2160
cur table: 2053
epoch: 1000
next table: 1968
cur table: 2054
epoch: 1000
next table: 2016
cur table: 1968
Heartbeat CPU 0 instructions: 100000001 cycles: 109843380 heartbeat IPC: 0.528343 cumulative IPC: 0.521624 (Simulation time: 0 hr 49 min 32 sec) 
Finished CPU 0 instructions: 50000001 cycles: 95854404 cumulative IPC: 0.521624 (Simulation time: 0 hr 49 min 32 sec) 

ChampSim completed all CPUs

Region of Interest Statistics

CPU 0 cumulative IPC: 0.521624 instructions: 50000001 cycles: 95854404
ITLB TOTAL     ACCESS:    7242616  HIT:    7242616  MISS:          0  HIT %:        100  MISS %:          0   MPKI: 0
ITLB LOAD TRANSLATION ACCESS:    7242616  HIT:    7242616  MISS:          0  HIT %:        100  MISS %:          0   MPKI: 0
ITLB PREFETCH  REQUESTED:          0  ISSUED:          0  USEFUL:          0  USELESS:          0
ITLB USEFUL LOAD PREFETCHES:          0 PREFETCH ISSUED TO LOWER LEVEL:          0  ACCURACY: -nan
ITLB TIMELY PREFETCHES:          0 LATE PREFETCHES: 0 DROPPED PREFETCHES: 0
ITLB PREFETCHES SAME FILL-ORIGIN LEVEL: 0 DIFFERENT FILL-ORIGIN LEVEL: 0
ITLB AVERAGE MISS LATENCY: -nan cycles
ITLB RQ	ACCESS:    8573894	FORWARD:          0	MERGED:    1331279	TO_CACHE:    7242615

Revised Interactions: positive negative neutral
ITLB_interactions 0 0 0 -nan -nan -nan
DTLB TOTAL     ACCESS:   10099907  HIT:    9797971  MISS:     301936  HIT %:    97.0105  MISS %:    2.98949   MPKI: 6.03872
DTLB LOAD TRANSLATION ACCESS:   10099907  HIT:    9797971  MISS:     301936  HIT %:    97.0105  MISS %:    2.98949   MPKI: 6.03872
DTLB PREFETCH  REQUESTED:          0  ISSUED:          0  USEFUL:          0  USELESS:          0
DTLB USEFUL LOAD PREFETCHES:          0 PREFETCH ISSUED TO LOWER LEVEL:          0  ACCURACY: -nan
DTLB TIMELY PREFETCHES:          0 LATE PREFETCHES: 0 DROPPED PREFETCHES: 0
DTLB PREFETCHES SAME FILL-ORIGIN LEVEL: 0 DIFFERENT FILL-ORIGIN LEVEL: 0
DTLB AVERAGE MISS LATENCY: 14.0307 cycles
DTLB RQ	ACCESS:   12066909	FORWARD:          0	MERGED:    1964889	TO_CACHE:   10102020

Revised Interactions: positive negative neutral
DTLB_interactions 0 0 0 -nan -nan -nan
STLB TOTAL     ACCESS:    1332141  HIT:    1285521  MISS:      46620  HIT %:    96.5004  MISS %:    3.49963   MPKI: 0.9324
STLB LOAD TRANSLATION ACCESS:     301936  HIT:     255316  MISS:      46620  HIT %:    84.5596  MISS %:    15.4404   MPKI: 0.9324
STLB TRANSLATION FROM L1D PREFETCHER ACCESS:    1030205  HIT:    1030205  MISS:          0  HIT %:        100  MISS %:          0   MPKI: 0
STLB PREFETCH  REQUESTED:          0  ISSUED:          0  USEFUL:          0  USELESS:          0
STLB USEFUL LOAD PREFETCHES:          0 PREFETCH ISSUED TO LOWER LEVEL:          0  ACCURACY: -nan
STLB TIMELY PREFETCHES:          0 LATE PREFETCHES: 0 DROPPED PREFETCHES: 0
STLB PREFETCHES SAME FILL-ORIGIN LEVEL: 0 DIFFERENT FILL-ORIGIN LEVEL: 0
STLB AVERAGE MISS LATENCY: 32.5163 cycles
STLB RQ	ACCESS:    1541808	FORWARD:          0	MERGED:     209667	TO_CACHE:    1332141

Revised Interactions: positive negative neutral
STLB_interactions 0 0 0 -nan -nan -nan
STLB Hit, L1D data hit: 0
STLB Hit, L2C data hit: 0
STLB Hit, LLC data hit: 0
STLB Hit, LLC data miss: 0
STLB STLB hints to L2: 0
L1D TOTAL     ACCESS:   13265995  HIT:   12555022  MISS:     710973  HIT %:    94.6406  MISS %:    5.35936   MPKI: 14.2195
L1D LOAD      ACCESS:    8269346  HIT:    7974615  MISS:     294731  HIT %:    96.4359  MISS %:    3.56414   MPKI: 5.89462
L1D RFO       ACCESS:    3757937  HIT:    3718568  MISS:      39369  HIT %:    98.9524  MISS %:    1.04762   MPKI: 0.78738
L1D PREFETCH  ACCESS:    1238712  HIT:     861839  MISS:     376873  HIT %:    69.5754  MISS %:    30.4246   MPKI: 7.53746
L1D PREFETCH  REQUESTED:    2480125  ISSUED:    2480125  USEFUL:      44703  USELESS:     332150
L1D USEFUL LOAD PREFETCHES:      44703 PREFETCH ISSUED TO LOWER LEVEL:     376888  ACCURACY: 11.8611
L1D TIMELY PREFETCHES:      44703 LATE PREFETCHES: 1006 DROPPED PREFETCHES: 0
L1D PREFETCHES SAME FILL-ORIGIN LEVEL: 376888 DIFFERENT FILL-ORIGIN LEVEL: 0
L1D AVERAGE MISS LATENCY: 1405.86 cycles
L1D RQ	ACCESS:   11315839	FORWARD:          0	MERGED:    2994481	TO_CACHE:    8297836
L1D WQ	ACCESS:    3834337	FORWARD:      23903	MERGED:      65264	TO_CACHE:    3769073
L1D PQ	ACCESS:    1240253	FORWARD:          0	MERGED:          0	TO_CACHE:    1239872

Revised Interactions: positive negative neutral
L1D_interactions 0 0 0 -nan -nan -nan
L1D UNIQUE REGIONS ACCESSED: 0
L1D REGIONS CONFLICTS: 0
L1D Cross Page Prefetch Requests: 0
L1D Same Page Prefetch Requests: 2493770
L1D ROI Sum of L1D PQ occupancy: 16143173
L1D PREFETCHES PUSHED FROM L2C: 0
L1I TOTAL     ACCESS:    8573852  HIT:    8573753  MISS:         99  HIT %:    99.9988  MISS %: 0.00115467   MPKI: 0.00198
L1I LOAD      ACCESS:    8573852  HIT:    8573753  MISS:         99  HIT %:    99.9988  MISS %: 0.00115467   MPKI: 0.00198
L1I PREFETCH  REQUESTED:          0  ISSUED:          0  USEFUL:          0  USELESS:          0
L1I USEFUL LOAD PREFETCHES:          0 PREFETCH ISSUED TO LOWER LEVEL:          0  ACCURACY: -nan
L1I TIMELY PREFETCHES:          0 LATE PREFETCHES: 0 DROPPED PREFETCHES: 0
L1I PREFETCHES SAME FILL-ORIGIN LEVEL: 0 DIFFERENT FILL-ORIGIN LEVEL: 0
L1I AVERAGE MISS LATENCY: 94.9091 cycles
L1I RQ	ACCESS:   13066546	FORWARD:          0	MERGED:    4492652	TO_CACHE:    8573894

Revised Interactions: positive negative neutral
L1I_interactions 0 0 0 -nan -nan -nan
BTB TOTAL     ACCESS:    6282462  HIT:    6229962  MISS:      52500  HIT %:    99.1643  MISS %:    0.83566   MPKI: 1.05
BTB BRANCH_DIRECT_JUMP	ACCESS:     665651  HIT:     665574  MISS:         77
BTB BRANCH_INDIRECT	ACCESS:      91529  HIT:      41384  MISS:      50145
BTB BRANCH_CONDITIONAL	ACCESS:    5411196  HIT:    5410957  MISS:        239
BTB BRANCH_DIRECT_CALL	ACCESS:      35840  HIT:      35821  MISS:         19
BTB BRANCH_INDIRECT_CALL	ACCESS:      21203  HIT:      21196  MISS:          7
BTB BRANCH_RETURN	ACCESS:      57043  HIT:      55030  MISS:       2013
BTB BRANCH_OTHER ACCESS:          0  HIT:          0  MISS:          0

L2C TOTAL     ACCESS:    1006380  HIT:     629538  MISS:     376842  HIT %:    62.5547  MISS %:    37.4453   MPKI: 7.53684
L2C LOAD      ACCESS:     294830  HIT:     138380  MISS:     156450  HIT %:    46.9355  MISS %:    53.0645   MPKI: 3.129
L2C DATA LOAD MPKI: 3.12702
L2C INSTRUCTION LOAD MPKI: 0.00198
L2C RFO       ACCESS:      39355  HIT:      23638  MISS:      15717  HIT %:    60.0635  MISS %:    39.9365   MPKI: 0.31434
L2C PREFETCH  ACCESS:     382667  HIT:     188312  MISS:     194355  HIT %:    49.2104  MISS %:    50.7896   MPKI: 3.8871
L2C DATA PREFETCH MPKI: 3.8871
L2C INSTRUCTION PREFETCH MPKI: 0
L2C WRITEBACK ACCESS:     242881  HIT:     241203  MISS:       1678  HIT %:    99.3091  MISS %:   0.690873   MPKI: 0.03356
L2C LOAD TRANSLATION ACCESS:      46647  HIT:      38005  MISS:       8642  HIT %:    81.4736  MISS %:    18.5264   MPKI: 0.17284
L2C PREFETCH  REQUESTED:       6221  ISSUED:       6221  USEFUL:      13232  USELESS:     180954
L2C USEFUL LOAD PREFETCHES:      13232 PREFETCH ISSUED TO LOWER LEVEL:     194370  ACCURACY: 6.80763
L2C TIMELY PREFETCHES:      13232 LATE PREFETCHES: 15 DROPPED PREFETCHES: 0
L2C PREFETCHES SAME FILL-ORIGIN LEVEL: 636 DIFFERENT FILL-ORIGIN LEVEL: 0
L2C AVERAGE MISS LATENCY: 108.265 cycles
L2C RQ	ACCESS:     380832	FORWARD:          0	MERGED:          0	TO_CACHE:     380832
L2C WQ	ACCESS:     242881	FORWARD:          1	MERGED:          0	TO_CACHE:     242881
L2C PQ	ACCESS:     383109	FORWARD:          0	MERGED:        410	TO_CACHE:     382698

Revised Interactions: positive negative neutral
L2C_interactions 10114 191444 78278 3.61426 68.4129 27.9728
L2C Instructions Evicting Data 94
L2C Translations Evicting Data 8489
L2C Data Evicting Data 357857
L2C Instructions Evicting Instructions 2
L2C Translations Evicting Instructions 4
L2C Data Evicting Instructions 93
L2C Instructions Evicting Translations 3
L2C Translations Evicting Translations 149
L2C Data Evicting Translations 8473
L2C Dense regions hint from L2: 0
PSCL5 TOTAL     ACCESS:      46620  HIT:      46620  MISS:          0  HIT %:        100  MISS %:          0   MPKI: 0
PSCL5 LOAD TRANSLATION ACCESS:      46620  HIT:      46620  MISS:          0  HIT %:        100  MISS %:          0   MPKI: 0
PSCL5 PREFETCH  REQUESTED:          0  ISSUED:          0  USEFUL:          0  USELESS:          0
PSCL5 USEFUL LOAD PREFETCHES:          0 PREFETCH ISSUED TO LOWER LEVEL:          0  ACCURACY: -nan
PSCL5 TIMELY PREFETCHES:          0 LATE PREFETCHES: 0 DROPPED PREFETCHES: 0
PSCL5 PREFETCHES SAME FILL-ORIGIN LEVEL: 0 DIFFERENT FILL-ORIGIN LEVEL: 0

Revised Interactions: positive negative neutral
PSCL5_interactions 0 0 0 -nan -nan -nan
PSCL4 TOTAL     ACCESS:      46620  HIT:      46620  MISS:          0  HIT %:        100  MISS %:          0   MPKI: 0
PSCL4 LOAD TRANSLATION ACCESS:      46620  HIT:      46620  MISS:          0  HIT %:        100  MISS %:          0   MPKI: 0
PSCL4 PREFETCH  REQUESTED:          0  ISSUED:          0  USEFUL:          0  USELESS:          0
PSCL4 USEFUL LOAD PREFETCHES:          0 PREFETCH ISSUED TO LOWER LEVEL:          0  ACCURACY: -nan
PSCL4 TIMELY PREFETCHES:          0 LATE PREFETCHES: 0 DROPPED PREFETCHES: 0
PSCL4 PREFETCHES SAME FILL-ORIGIN LEVEL: 0 DIFFERENT FILL-ORIGIN LEVEL: 0

Revised Interactions: positive negative neutral
PSCL4_interactions 0 0 0 -nan -nan -nan
PSCL3 TOTAL     ACCESS:      46620  HIT:      46620  MISS:          0  HIT %:        100  MISS %:          0   MPKI: 0
PSCL3 LOAD TRANSLATION ACCESS:      46620  HIT:      46620  MISS:          0  HIT %:        100  MISS %:          0   MPKI: 0
PSCL3 PREFETCH  REQUESTED:          0  ISSUED:          0  USEFUL:          0  USELESS:          0
PSCL3 USEFUL LOAD PREFETCHES:          0 PREFETCH ISSUED TO LOWER LEVEL:          0  ACCURACY: -nan
PSCL3 TIMELY PREFETCHES:          0 LATE PREFETCHES: 0 DROPPED PREFETCHES: 0
PSCL3 PREFETCHES SAME FILL-ORIGIN LEVEL: 0 DIFFERENT FILL-ORIGIN LEVEL: 0

Revised Interactions: positive negative neutral
PSCL3_interactions 0 0 0 -nan -nan -nan
PSCL2 TOTAL     ACCESS:      46620  HIT:      46593  MISS:         27  HIT %:    99.9421  MISS %:  0.0579151   MPKI: 0.00054
PSCL2 LOAD TRANSLATION ACCESS:      46620  HIT:      46593  MISS:         27  HIT %:    99.9421  MISS %:  0.0579151   MPKI: 0.00054
PSCL2 PREFETCH  REQUESTED:          0  ISSUED:          0  USEFUL:          0  USELESS:          0
PSCL2 USEFUL LOAD PREFETCHES:          0 PREFETCH ISSUED TO LOWER LEVEL:          0  ACCURACY: -nan
PSCL2 TIMELY PREFETCHES:          0 LATE PREFETCHES: 0 DROPPED PREFETCHES: 0
PSCL2 PREFETCHES SAME FILL-ORIGIN LEVEL: 0 DIFFERENT FILL-ORIGIN LEVEL: 0

Revised Interactions: positive negative neutral
PSCL2_interactions 0 0 0 -nan -nan -nan
LLC TOTAL     ACCESS:     521302  HIT:     320617  MISS:     200685  HIT %:    61.5031  MISS %:    38.4969   MPKI: 4.0137
LLC LOAD      ACCESS:     156435  HIT:      95808  MISS:      60627  HIT %:    61.2446  MISS %:    38.7554   MPKI: 1.21254
LLC RFO       ACCESS:      15717  HIT:       8316  MISS:       7401  HIT %:    52.9109  MISS %:    47.0891   MPKI: 0.14802
LLC PREFETCH  ACCESS:     194370  HIT:      93616  MISS:     100754  HIT %:    48.1638  MISS %:    51.8362   MPKI: 2.01508
LLC WRITEBACK ACCESS:     146138  HIT:     115345  MISS:      30793  HIT %:    78.9288  MISS %:    21.0712   MPKI: 0.61586
LLC LOAD TRANSLATION ACCESS:       8642  HIT:       7532  MISS:       1110  HIT %:    87.1558  MISS %:    12.8442   MPKI: 0.0222
LLC PREFETCH  REQUESTED:          0  ISSUED:          0  USEFUL:        889  USELESS:     100448
LLC USEFUL LOAD PREFETCHES:        889 PREFETCH ISSUED TO LOWER LEVEL:     100754  ACCURACY: 0.882347
LLC TIMELY PREFETCHES:        889 LATE PREFETCHES: 0 DROPPED PREFETCHES: 0
LLC PREFETCHES SAME FILL-ORIGIN LEVEL: 0 DIFFERENT FILL-ORIGIN LEVEL: 0
LLC AVERAGE MISS LATENCY: 147.134 cycles
LLC RQ	ACCESS:     180794	FORWARD:          0	MERGED:          0	TO_CACHE:     180794
LLC WQ	ACCESS:     146139	FORWARD:          0	MERGED:          0	TO_CACHE:     146139
LLC PQ	ACCESS:     194370	FORWARD:          0	MERGED:          0	TO_CACHE:     194370

Revised Interactions: positive negative neutral
LLC_interactions 324 99644 33743 0.242314 74.5219 25.2358
LLC Dense regions hint to LLC: 0

RAW hits: 443026
Loads Generated: 11758865
Loads sent to L1D: 11315839
Stores Generated: 3834339
Stores sent to L1D: 3834337
Major fault: 0 Minor fault: 7115
Allocated PAGES: 7115

stream: 
stream:times selected: 3346708
stream:pref_filled: 533107
stream:pref_useful: 56691
stream:pref_late: 881
stream:misses: 94008
stream:misses_by_poll: 0

CS: 
CS:times selected: 291452
CS:pref_filled: 28020
CS:pref_useful: 20600
CS:pref_late: 12
CS:misses: 794
CS:misses_by_poll: 3

CPLX: 
CPLX:times selected: 3036407
CPLX:pref_filled: 168673
CPLX:pref_useful: 11305
CPLX:pref_late: 91
CPLX:misses: 400872
CPLX:misses_by_poll: 327

NL_L1: 
NL:times selected: 17491
NL:pref_filled: 5561
NL:pref_useful: 747
NL:pref_late: 12
NL:misses: 4248
NL:misses_by_poll: 0

total selections: 6692058
total_filled: 376873
total_useful: 44703
total_late: 1001
total_polluted: 330
total_misses_after_warmup: 323221
conflicts: 392827
Degree Incremented Times: 0
Degree Decremented Times: 206289

L1 IP Table Write Accesses: 7495016
L1 IP Table Read Accesses: 7102189
L1 RST Write Accesses: 1691762
L1 RST Read Accesses: 3383524
L1 CSPT Write Accesses: 1691762
L1 CSPT Read Accesses: 3235002
L1 RR Filter Tag Write Accesses: 1240253
L1 RR Filter Tag Read Accesses: 67179747
L1 IP Table Tag Write Accesses: 8297836
L1 IP Table Tag Read Accesses: 8297836
L1 RST Tag Write Accesses: 0
L1 RST Tag Read Accesses: 15415140
L1 RR Filter Write Accesses: 0
L1 RR Filter Read Accesses: 2445732
test: 1265724
L2 IP Table Read Accesses: 1336124
L2 IP Table Write Accesses: 1048024
L2 IP Table Tag Read Accesses: 671193
L2 IP Table Tag Write Accesses: 671193

DRAM Statistics
 CHANNEL 0
 RQ ROW_BUFFER_HIT:       4500  ROW_BUFFER_MISS:     165392
 DBUS_CONGESTED:          7
 WQ ROW_BUFFER_HIT:       9138  ROW_BUFFER_MISS:      54923  FULL:          0

 AVG_CONGESTED_CYCLE: 6
 All warmup complete: 2
Channel 0 Bank busy for read cycles: 0
Channel 0 Bank busy for write cycles: 0
Channel 0
Rank 0
0banks busy for read cycles: 71700294
0banks busy for write cycles: 40498
1banks busy for read cycles: 9685064
1banks busy for write cycles: 5709083
2banks busy for read cycles: 4858012
2banks busy for write cycles: 1577225
3banks busy for read cycles: 1184381
3banks busy for write cycles: 427744
4banks busy for read cycles: 341414
4banks busy for write cycles: 127640
5banks busy for read cycles: 95039
5banks busy for write cycles: 39642
6banks busy for read cycles: 29526
6banks busy for write cycles: 12365
7banks busy for read cycles: 6747
7banks busy for write cycles: 8263
8banks busy for read cycles: 1798
8banks busy for write cycles: 9670

CPU 0 Branch Prediction Accuracy: 87.826% MPKI: 16.1242 Average ROB Occupancy at Mispredict: 21.2219
Branch types
NOT_BRANCH: 43377258 86.7545%
BRANCH_DIRECT_JUMP: 665651 1.3313%
BRANCH_INDIRECT: 91529 0.183058%
BRANCH_CONDITIONAL: 5751130 11.5023%
BRANCH_DIRECT_CALL: 35840 0.07168%
BRANCH_INDIRECT_CALL: 21203 0.042406%
BRANCH_RETURN: 57043 0.114086%
BRANCH_OTHER: 0 0%

@sumon_overall_L1D     44703      1006      1006    332150    376873   2480125   2480125
@Sumon_Early_by_class_L1D     28268      9780      6211         8
@Sumon_Late_by_class_L1D       702         7        74         8

@Sumon_Early_by_cycle_L1D      2548      1625       592       306       329      2592      6292      6002      6471      8808      5788      3350
@Sumon_Late_by_cycle_L1D       347       283        77        25        64         0
@Sumon_Early_stream_L1D      2303      1069       253       230       258      2115      4074      3809      3271      4753      3982      2151
@Sumon_Early_CS_L1D        14       455       292        26        21       126      1604      1536      2390      2418       341       557
@Sumon_Early_CPLX_L1D       200        94        45        40        44       315       536       604       750      1555      1416       612
@Sumon_Late_stream_L1D       300       254        68        24        56         0
@Sumon_Late_CS_L1D         4         2         0         0         1         0
@Sumon_Late_CPLX_L1D        35        24         8         1         6         0
@sumon_overall_L2C     13232        15         0    180954    194355      6221      6221
@Sumon_Early_by_class_L2C      8646       418      3859         0
@Sumon_Late_by_class_L2C         0         0         0         0

@Sumon_Early_by_cycle_L2C         4         6         4         0         0         6        19        34        49        41       326     12743
@Sumon_Late_by_cycle_L2C         1         0         3         6         5         0
@Sumon_Early_stream_L2C         0         0         0         0         0         0         0         0         0        22       210      8414
@Sumon_Early_CS_L2C         0         0         0         0         0         0         0         0         0         1         4       413
@Sumon_Early_CPLX_L2C         0         0         0         0         0         0         0         0         0         6       105      3748
@Sumon_Late_stream_L2C         0         0         0         0         0         0
@Sumon_Late_CS_L2C         0         0         0         0         0         0
@Sumon_Late_CPLX_L2C         0         0         0         0         0         0
DRAM PAGES: 1048576
Allocated PAGES: 7115
