
*** ChampSim Multicore Out-of-Order Simulator ***

Warmup Instructions: 10000000
Simulation Instructions: 50000000
Number of CPUs: 1
LLC sets: 2048
LLC ways: 16
Off-chip DRAM Size: 4096 MB Channels: 1 Width: 64-bit Data Rate: 1600 MT/s
CPU 0 runs traces/clientserver/server_032.champsimtrace.xz
.xz
CPU 0 Bimodal branch predictor
BTB has LRU replacement policy
ITLB has LRU replacement policy
DTLB has LRU replacement policy
STLB has LRU replacement policy
L1I has LRU replacement policy
IP Table Entries: 256
L1D has LRU replacement policy
IP_Table L2 entries: 256
L2C has LRU replacement policy
LLC has LRU replacement policy
Heartbeat CPU 0 instructions: 10000002 cycles: 2883301 heartbeat IPC: 3.46825 cumulative IPC: 3.46825 (Simulation time: 0 hr 18 min 3 sec) 

Warmup complete CPU 0 instructions: 10000002 cycles: 2883301 (Simulation time: 0 hr 18 min 3 sec) 

Heartbeat CPU 0 instructions: 20000003 cycles: 27686614 heartbeat IPC: 0.403172 cumulative IPC: 0.403172 (Simulation time: 0 hr 35 min 9 sec) 
Heartbeat CPU 0 instructions: 30000001 cycles: 52421548 heartbeat IPC: 0.404286 cumulative IPC: 0.403728 (Simulation time: 0 hr 52 min 22 sec) 
Heartbeat CPU 0 instructions: 40000002 cycles: 77123812 heartbeat IPC: 0.404821 cumulative IPC: 0.404092 (Simulation time: 1 hr 9 min 27 sec) 
Heartbeat CPU 0 instructions: 50000000 cycles: 101847855 heartbeat IPC: 0.404465 cumulative IPC: 0.404185 (Simulation time: 1 hr 26 min 30 sec) 
Heartbeat CPU 0 instructions: 60000002 cycles: 126568280 heartbeat IPC: 0.404524 cumulative IPC: 0.404253 (Simulation time: 1 hr 41 min 37 sec) 
Finished CPU 0 instructions: 50000000 cycles: 123684979 cumulative IPC: 0.404253 (Simulation time: 1 hr 41 min 37 sec) 

ChampSim completed all CPUs

Region of Interest Statistics

CPU 0 cumulative IPC: 0.404253 instructions: 50000000 cycles: 123684979
ITLB TOTAL     ACCESS:    8554425  HIT:    7966492  MISS:     587933  HIT %:    93.1271  MISS %:    6.87285   MPKI: 11.7587
ITLB LOAD TRANSLATION ACCESS:    8554425  HIT:    7966492  MISS:     587933  HIT %:    93.1271  MISS %:    6.87285   MPKI: 11.7587
ITLB PREFETCH  REQUESTED:          0  ISSUED:          0  USEFUL:          0  USELESS:          0
ITLB USEFUL LOAD PREFETCHES:          0 PREFETCH ISSUED TO LOWER LEVEL:          0  ACCURACY: -nan
ITLB TIMELY PREFETCHES:          0 LATE PREFETCHES: 0 DROPPED PREFETCHES: 0
ITLB PREFETCHES SAME FILL-ORIGIN LEVEL: 0 DIFFERENT FILL-ORIGIN LEVEL: 0
ITLB AVERAGE MISS LATENCY: 9.01117 cycles
ITLB RQ	ACCESS:   10332663	FORWARD:          0	MERGED:    1631503	TO_CACHE:    8701160

DTLB TOTAL     ACCESS:   12828780  HIT:   12316465  MISS:     512315  HIT %:    96.0065  MISS %:    3.99348   MPKI: 10.2463
DTLB LOAD TRANSLATION ACCESS:   12828780  HIT:   12316465  MISS:     512315  HIT %:    96.0065  MISS %:    3.99348   MPKI: 10.2463
DTLB PREFETCH  REQUESTED:          0  ISSUED:          0  USEFUL:          0  USELESS:          0
DTLB USEFUL LOAD PREFETCHES:          0 PREFETCH ISSUED TO LOWER LEVEL:          0  ACCURACY: -nan
DTLB TIMELY PREFETCHES:          0 LATE PREFETCHES: 0 DROPPED PREFETCHES: 0
DTLB PREFETCHES SAME FILL-ORIGIN LEVEL: 0 DIFFERENT FILL-ORIGIN LEVEL: 0
DTLB AVERAGE MISS LATENCY: 9.0703 cycles
DTLB RQ	ACCESS:   16054237	FORWARD:          0	MERGED:    3209838	TO_CACHE:   12844399

STLB TOTAL     ACCESS:    1393756  HIT:    1393305  MISS:        451  HIT %:    99.9676  MISS %:  0.0323586   MPKI: 0.00902
STLB LOAD TRANSLATION ACCESS:    1100248  HIT:    1099797  MISS:        451  HIT %:     99.959  MISS %:  0.0409908   MPKI: 0.00902
STLB TRANSLATION FROM L1D PREFETCHER ACCESS:     293508  HIT:     293508  MISS:          0  HIT %:        100  MISS %:          0   MPKI: 0
STLB PREFETCH  REQUESTED:          0  ISSUED:          0  USEFUL:          0  USELESS:          0
STLB USEFUL LOAD PREFETCHES:          0 PREFETCH ISSUED TO LOWER LEVEL:          0  ACCURACY: -nan
STLB TIMELY PREFETCHES:          0 LATE PREFETCHES: 0 DROPPED PREFETCHES: 0
STLB PREFETCHES SAME FILL-ORIGIN LEVEL: 0 DIFFERENT FILL-ORIGIN LEVEL: 0
STLB AVERAGE MISS LATENCY: 72.153 cycles
STLB RQ	ACCESS:    1463929	FORWARD:          0	MERGED:      70172	TO_CACHE:    1393757

STLB Hit, L1D data hit: 0
STLB Hit, L2C data hit: 0
STLB Hit, LLC data hit: 0
STLB Hit, LLC data miss: 0
STLB STLB hints to L2: 0
L1D TOTAL     ACCESS:   15926596  HIT:   14645271  MISS:    1281325  HIT %:    91.9548  MISS %:    8.04519   MPKI: 25.6265
L1D LOAD      ACCESS:    8830768  HIT:    7989430  MISS:     841338  HIT %:    90.4727  MISS %:    9.52735   MPKI: 16.8268
L1D RFO       ACCESS:    6751785  HIT:    6447334  MISS:     304451  HIT %:    95.4908  MISS %:    4.50919   MPKI: 6.08902
L1D PREFETCH  ACCESS:     344043  HIT:     208507  MISS:     135536  HIT %:    60.6049  MISS %:    39.3951   MPKI: 2.71072
L1D PREFETCH  REQUESTED:     727550  ISSUED:     727550  USEFUL:      22752  USELESS:     112773
L1D USEFUL LOAD PREFETCHES:      22752 PREFETCH ISSUED TO LOWER LEVEL:     143442  ACCURACY: 15.8615
L1D TIMELY PREFETCHES:      22752 LATE PREFETCHES: 7902 DROPPED PREFETCHES: 0
L1D PREFETCHES SAME FILL-ORIGIN LEVEL: 143442 DIFFERENT FILL-ORIGIN LEVEL: 0
L1D AVERAGE MISS LATENCY: 401215 cycles
L1D RQ	ACCESS:   12026775	FORWARD:          0	MERGED:    3035849	TO_CACHE:    8863379
L1D WQ	ACCESS:    7236665	FORWARD:     127737	MERGED:      45807	TO_CACHE:    7190858
L1D PQ	ACCESS:     363870	FORWARD:          0	MERGED:          0	TO_CACHE:     363680

L1D UNIQUE REGIONS ACCESSED: 0
L1D REGIONS CONFLICTS: 0
L1D Cross Page Prefetch Requests: 0
L1D Same Page Prefetch Requests: 430054
L1D ROI Sum of L1D PQ occupancy: 4705136
L1D PREFETCHES PUSHED FROM L2C: 0
L1I TOTAL     ACCESS:    9779254  HIT:    6612407  MISS:    3166847  HIT %:    67.6167  MISS %:    32.3833   MPKI: 63.3369
L1I LOAD      ACCESS:    9779254  HIT:    6612407  MISS:    3166847  HIT %:    67.6167  MISS %:    32.3833   MPKI: 63.3369
L1I PREFETCH  REQUESTED:          0  ISSUED:          0  USEFUL:          0  USELESS:          0
L1I USEFUL LOAD PREFETCHES:          0 PREFETCH ISSUED TO LOWER LEVEL:          0  ACCURACY: -nan
L1I TIMELY PREFETCHES:          0 LATE PREFETCHES: 0 DROPPED PREFETCHES: 0
L1I PREFETCHES SAME FILL-ORIGIN LEVEL: 0 DIFFERENT FILL-ORIGIN LEVEL: 0
L1I AVERAGE MISS LATENCY: 16.4896 cycles
L1I RQ	ACCESS:   14042957	FORWARD:          0	MERGED:    3710294	TO_CACHE:   10332663

BTB TOTAL     ACCESS:    5869487  HIT:    3861122  MISS:    2008365  HIT %:     65.783  MISS %:     34.217   MPKI: 40.1673
BTB BRANCH_DIRECT_JUMP	ACCESS:     509293  HIT:     347105  MISS:     162188
BTB BRANCH_INDIRECT	ACCESS:     180189  HIT:     143386  MISS:      36803
BTB BRANCH_CONDITIONAL	ACCESS:    2595854  HIT:    2046614  MISS:     549240
BTB BRANCH_DIRECT_CALL	ACCESS:    1085948  HIT:     693461  MISS:     392487
BTB BRANCH_INDIRECT_CALL	ACCESS:     206137  HIT:     130928  MISS:      75209
BTB BRANCH_RETURN	ACCESS:    1292066  HIT:     499628  MISS:     792438
BTB BRANCH_OTHER ACCESS:          0  HIT:          0  MISS:          0

L2C TOTAL     ACCESS:    5756902  HIT:    5288702  MISS:     468200  HIT %:    91.8672  MISS %:    8.13285   MPKI: 9.364
L2C LOAD      ACCESS:    4000282  HIT:    3659510  MISS:     340772  HIT %:    91.4813  MISS %:     8.5187   MPKI: 6.81544
L2C DATA LOAD MPKI: 1.74524
L2C INSTRUCTION LOAD MPKI: 5.0702
L2C RFO       ACCESS:     304448  HIT:     274670  MISS:      29778  HIT %:     90.219  MISS %:    9.78098   MPKI: 0.59556
L2C PREFETCH  ACCESS:     850229  HIT:     761167  MISS:      89062  HIT %:    89.5249  MISS %:    10.4751   MPKI: 1.78124
L2C DATA PREFETCH MPKI: 1.78124
L2C INSTRUCTION PREFETCH MPKI: 0
L2C WRITEBACK ACCESS:     601464  HIT:     593093  MISS:       8371  HIT %:    98.6082  MISS %:    1.39177   MPKI: 0.16742
L2C LOAD TRANSLATION ACCESS:        479  HIT:        262  MISS:        217  HIT %:    54.6973  MISS %:    45.3027   MPKI: 0.00434
L2C PREFETCH  REQUESTED:     720135  ISSUED:     720135  USEFUL:      10149  USELESS:      79084
L2C USEFUL LOAD PREFETCHES:      10149 PREFETCH ISSUED TO LOWER LEVEL:      90693  ACCURACY: 11.1905
L2C TIMELY PREFETCHES:      10149 LATE PREFETCHES: 1631 DROPPED PREFETCHES: 0
L2C PREFETCHES SAME FILL-ORIGIN LEVEL: 56754 DIFFERENT FILL-ORIGIN LEVEL: 0
L2C AVERAGE MISS LATENCY: 32.4843 cycles
L2C RQ	ACCESS:    4305209	FORWARD:          0	MERGED:          0	TO_CACHE:    4305209
L2C WQ	ACCESS:     601464	FORWARD:          8	MERGED:          0	TO_CACHE:     601464
L2C PQ	ACCESS:     863577	FORWARD:          0	MERGED:       4886	TO_CACHE:     858683

L2C Instructions Evicting Data 104041
L2C Translations Evicting Data 204
L2C Data Evicting Data 107161
L2C Instructions Evicting Instructions 149461
L2C Translations Evicting Instructions 10
L2C Data Evicting Instructions 98609
L2C Instructions Evicting Translations 7
L2C Translations Evicting Translations 3
L2C Data Evicting Translations 254
L2C Dense regions hint from L2: 0
PSCL5 TOTAL     ACCESS:        451  HIT:        451  MISS:          0  HIT %:        100  MISS %:          0   MPKI: 0
PSCL5 LOAD TRANSLATION ACCESS:        451  HIT:        451  MISS:          0  HIT %:        100  MISS %:          0   MPKI: 0
PSCL5 PREFETCH  REQUESTED:          0  ISSUED:          0  USEFUL:          0  USELESS:          0
PSCL5 USEFUL LOAD PREFETCHES:          0 PREFETCH ISSUED TO LOWER LEVEL:          0  ACCURACY: -nan
PSCL5 TIMELY PREFETCHES:          0 LATE PREFETCHES: 0 DROPPED PREFETCHES: 0
PSCL5 PREFETCHES SAME FILL-ORIGIN LEVEL: 0 DIFFERENT FILL-ORIGIN LEVEL: 0

PSCL4 TOTAL     ACCESS:        449  HIT:        445  MISS:          4  HIT %:    99.1091  MISS %:   0.890869   MPKI: 8e-05
PSCL4 LOAD TRANSLATION ACCESS:        449  HIT:        445  MISS:          4  HIT %:    99.1091  MISS %:   0.890869   MPKI: 8e-05
PSCL4 PREFETCH  REQUESTED:          0  ISSUED:          0  USEFUL:          0  USELESS:          0
PSCL4 USEFUL LOAD PREFETCHES:          0 PREFETCH ISSUED TO LOWER LEVEL:          0  ACCURACY: -nan
PSCL4 TIMELY PREFETCHES:          0 LATE PREFETCHES: 0 DROPPED PREFETCHES: 0
PSCL4 PREFETCHES SAME FILL-ORIGIN LEVEL: 0 DIFFERENT FILL-ORIGIN LEVEL: 0

PSCL3 TOTAL     ACCESS:        450  HIT:        446  MISS:          4  HIT %:    99.1111  MISS %:   0.888889   MPKI: 8e-05
PSCL3 LOAD TRANSLATION ACCESS:        450  HIT:        446  MISS:          4  HIT %:    99.1111  MISS %:   0.888889   MPKI: 8e-05
PSCL3 PREFETCH  REQUESTED:          0  ISSUED:          0  USEFUL:          0  USELESS:          0
PSCL3 USEFUL LOAD PREFETCHES:          0 PREFETCH ISSUED TO LOWER LEVEL:          0  ACCURACY: -nan
PSCL3 TIMELY PREFETCHES:          0 LATE PREFETCHES: 0 DROPPED PREFETCHES: 0
PSCL3 PREFETCHES SAME FILL-ORIGIN LEVEL: 0 DIFFERENT FILL-ORIGIN LEVEL: 0

PSCL2 TOTAL     ACCESS:        451  HIT:        429  MISS:         22  HIT %:     95.122  MISS %:    4.87805   MPKI: 0.00044
PSCL2 LOAD TRANSLATION ACCESS:        451  HIT:        429  MISS:         22  HIT %:     95.122  MISS %:    4.87805   MPKI: 0.00044
PSCL2 PREFETCH  REQUESTED:          0  ISSUED:          0  USEFUL:          0  USELESS:          0
PSCL2 USEFUL LOAD PREFETCHES:          0 PREFETCH ISSUED TO LOWER LEVEL:          0  ACCURACY: -nan
PSCL2 TIMELY PREFETCHES:          0 LATE PREFETCHES: 0 DROPPED PREFETCHES: 0
PSCL2 PREFETCHES SAME FILL-ORIGIN LEVEL: 0 DIFFERENT FILL-ORIGIN LEVEL: 0

LLC TOTAL     ACCESS:     521565  HIT:     510753  MISS:      10812  HIT %:     97.927  MISS %:    2.07299   MPKI: 0.21624
LLC LOAD      ACCESS:     339176  HIT:     336801  MISS:       2375  HIT %:    99.2998  MISS %:   0.700226   MPKI: 0.0475
LLC RFO       ACCESS:      29739  HIT:      29726  MISS:         13  HIT %:    99.9563  MISS %:  0.0437136   MPKI: 0.00026
LLC PREFETCH  ACCESS:      90693  HIT:      82289  MISS:       8404  HIT %:    90.7336  MISS %:    9.26643   MPKI: 0.16808
LLC WRITEBACK ACCESS:      61740  HIT:      61740  MISS:          0  HIT %:        100  MISS %:          0   MPKI: 0
LLC LOAD TRANSLATION ACCESS:        217  HIT:        197  MISS:         20  HIT %:    90.7834  MISS %:    9.21659   MPKI: 0.0004
LLC PREFETCH  REQUESTED:          0  ISSUED:          0  USEFUL:       1289  USELESS:         37
LLC USEFUL LOAD PREFETCHES:       1289 PREFETCH ISSUED TO LOWER LEVEL:       8404  ACCURACY: 15.3379
LLC TIMELY PREFETCHES:       1289 LATE PREFETCHES: 0 DROPPED PREFETCHES: 0
LLC PREFETCHES SAME FILL-ORIGIN LEVEL: 0 DIFFERENT FILL-ORIGIN LEVEL: 0
LLC AVERAGE MISS LATENCY: 132.256 cycles
LLC RQ	ACCESS:     369136	FORWARD:          0	MERGED:          0	TO_CACHE:     369132
LLC WQ	ACCESS:      61740	FORWARD:          4	MERGED:          0	TO_CACHE:      61740
LLC PQ	ACCESS:      90693	FORWARD:          0	MERGED:          0	TO_CACHE:      90693

LLC Dense regions hint to LLC: 0

RAW hits: 609218
Loads Generated: 12635992
Loads sent to L1D: 12026775
Stores Generated: 7236649
Stores sent to L1D: 7236665
Major fault: 0 Minor fault: 1259
Allocated PAGES: 1259

stream: 
stream:times selected: 661084
stream:pref_filled: 107491
stream:pref_useful: 17847
stream:pref_late: 4442
stream:misses: 3543
stream:misses_by_poll: 0

CS: 
CS:times selected: 57842
CS:pref_filled: 14103
CS:pref_useful: 5699
CS:pref_late: 1639
CS:misses: 3641
CS:misses_by_poll: 1

CPLX: 
CPLX:times selected: 617882
CPLX:pref_filled: 38095
CPLX:pref_useful: 4216
CPLX:pref_late: 297
CPLX:misses: 54030
CPLX:misses_by_poll: 6

NL_L1: 
NL:times selected: 5849
NL:pref_filled: 997
NL:pref_useful: 131
NL:pref_late: 2
NL:misses: 87
NL:misses_by_poll: 0

total selections: 1342657
total_filled: 135536
total_useful: 22752
total_late: 8777
total_polluted: 7
total_misses_after_warmup: 873950
conflicts: 3542491
Degree Incremented Times: 0
Degree Decremented Times: 150198

L1 IP Table Write Accesses: 5025990
L1 IP Table Read Accesses: 1483499
L1 RST Write Accesses: 562164
L1 RST Read Accesses: 1124328
L1 CSPT Write Accesses: 562164
L1 CSPT Read Accesses: 1089594
L1 RR Filter Tag Write Accesses: 363870
L1 RR Filter Tag Read Accesses: 24986684
L1 IP Table Tag Write Accesses: 8863380
L1 IP Table Tag Read Accesses: 8863380
L1 RST Tag Write Accesses: 0
L1 RST Tag Read Accesses: 4378688
L1 RR Filter Write Accesses: 0
L1 RR Filter Read Accesses: 923850
test: 118179
L2 IP Table Read Accesses: 1211709
L2 IP Table Write Accesses: 1746281
L2 IP Table Tag Read Accesses: 972557
L2 IP Table Tag Write Accesses: 972557

DRAM Statistics
 CHANNEL 0
 RQ ROW_BUFFER_HIT:       4707  ROW_BUFFER_MISS:       6105
 DBUS_CONGESTED:       3240
 WQ ROW_BUFFER_HIT:          0  ROW_BUFFER_MISS:          1  FULL:          0

 AVG_CONGESTED_CYCLE: 8
 All warmup complete: 2
Channel 0 Bank busy for read cycles: 0
Channel 0 Bank busy for write cycles: 0
Channel 0
Rank 0
0banks busy for read cycles: 123026540
0banks busy for write cycles: 1
1banks busy for read cycles: 309267
1banks busy for write cycles: 241
2banks busy for read cycles: 234418
2banks busy for write cycles: 0
3banks busy for read cycles: 64680
3banks busy for write cycles: 0
4banks busy for read cycles: 40517
4banks busy for write cycles: 0
5banks busy for read cycles: 6368
5banks busy for write cycles: 0
6banks busy for read cycles: 2278
6banks busy for write cycles: 0
7banks busy for read cycles: 634
7banks busy for write cycles: 0
8banks busy for read cycles: 36
8banks busy for write cycles: 0

CPU 0 Branch Prediction Accuracy: 92.2268% MPKI: 14.419 Average ROB Occupancy at Mispredict: 16.4134
Branch types
NOT_BRANCH: 40724948 81.4499%
BRANCH_DIRECT_JUMP: 509293 1.01859%
BRANCH_INDIRECT: 180189 0.360378%
BRANCH_CONDITIONAL: 6001163 12.0023%
BRANCH_DIRECT_CALL: 1085948 2.1719%
BRANCH_INDIRECT_CALL: 206137 0.412274%
BRANCH_RETURN: 1292066 2.58413%
BRANCH_OTHER: 0 0%

@sumon_overall_L1D     22752      7902    112773    135536    727550    727550
@Sumon_Early_by_class_L1D     14821      3731      3499         2
@Sumon_Late_by_class_L1D      3785      1582       165         2

@Sumon_Early_by_cycle_L1D      8559      2633      2035       860        69      2573       412      2038      2279      1241        51         2
@Sumon_Late_by_cycle_L1D      6713      1186         3         0         0         0         0         0         0         0         0         0
@Sumon_Early_stream_L1D      4957      1698      1102       713        61      2259       112      1447      1684       766        21         1
@Sumon_Early_CS_L1D      2965       723        35         3         0         0         0         0         5         0         0         0
@Sumon_Early_CPLX_L1D       444       174       607       137         6       259       244       589       578       430        30         1
@Sumon_Late_stream_L1D      2849       933         3         0         0         0         0         0         0         0         0         0
@Sumon_Late_CS_L1D      1347       235         0         0         0         0         0         0         0         0         0         0
@Sumon_Late_CPLX_L1D       152        13         0         0         0         0         0         0         0         0         0         0
@sumon_overall_L2C     10149      1631     79084     89062    720135    720135
@Sumon_Early_by_class_L2C       661       127       226         0
@Sumon_Late_by_class_L2C         0         0         0         0

@Sumon_Early_by_cycle_L2C      2341       587       609        86        90      1052       384      1023        14      1182      1147      1634
@Sumon_Late_by_cycle_L2C      1494       137         0         0         0         0         0         0         0         0         0         0
@Sumon_Early_stream_L2C         0         0         0         0         0         0         0         0         0         2        68       591
@Sumon_Early_CS_L2C         0         0         0         0         0         0         0         0         0         0        17       110
@Sumon_Early_CPLX_L2C         0         0         0         0         0         0         0         0         0        10         6       210
@Sumon_Late_stream_L2C         0         0         0         0         0         0         0         0         0         0         0         0
@Sumon_Late_CS_L2C         0         0         0         0         0         0         0         0         0         0         0         0
@Sumon_Late_CPLX_L2C         0         0         0         0         0         0         0         0         0         0         0         0
DRAM PAGES: 1048576
Allocated PAGES: 1259
