
*** ChampSim Multicore Out-of-Order Simulator ***

Warmup Instructions: 10000000
Simulation Instructions: 50000000
Number of CPUs: 1
LLC sets: 2048
LLC ways: 16
Off-chip DRAM Size: 4096 MB Channels: 1 Width: 64-bit Data Rate: 1600 MT/s
CPU 0 runs traces/clientserver/server_004.champsimtrace.xz
.xz
CPU 0 Bimodal branch predictor
BTB has LRU replacement policy
ITLB has LRU replacement policy
DTLB has LRU replacement policy
STLB has LRU replacement policy
L1I has LRU replacement policy
IP Table Entries: 256
L1D has LRU replacement policy
IP_Table L2 entries: 256
L2C has LRU replacement policy
LLC has LRU replacement policy
Heartbeat CPU 0 instructions: 10000002 cycles: 2786784 heartbeat IPC: 3.58837 cumulative IPC: 3.58837 (Simulation time: 0 hr 16 min 11 sec) 

Warmup complete CPU 0 instructions: 10000002 cycles: 2786784 (Simulation time: 0 hr 16 min 11 sec) 

Heartbeat CPU 0 instructions: 20000002 cycles: 25103983 heartbeat IPC: 0.448085 cumulative IPC: 0.448085 (Simulation time: 0 hr 33 min 5 sec) 
Heartbeat CPU 0 instructions: 30000000 cycles: 56981239 heartbeat IPC: 0.313703 cumulative IPC: 0.369041 (Simulation time: 0 hr 59 min 2 sec) 
Heartbeat CPU 0 instructions: 40000000 cycles: 81634751 heartbeat IPC: 0.405622 cumulative IPC: 0.380479 (Simulation time: 1 hr 18 min 56 sec) 
Heartbeat CPU 0 instructions: 50000000 cycles: 103461976 heartbeat IPC: 0.458143 cumulative IPC: 0.397317 (Simulation time: 1 hr 35 min 49 sec) 
Heartbeat CPU 0 instructions: 60000000 cycles: 126059975 heartbeat IPC: 0.442517 cumulative IPC: 0.405603 (Simulation time: 1 hr 44 min 25 sec) 
Finished CPU 0 instructions: 50000002 cycles: 123273207 cumulative IPC: 0.405603 (Simulation time: 1 hr 44 min 25 sec) 

ChampSim completed all CPUs

Region of Interest Statistics

CPU 0 cumulative IPC: 0.405603 instructions: 50000002 cycles: 123273207
ITLB TOTAL     ACCESS:    9094511  HIT:    8932835  MISS:     161676  HIT %:    98.2223  MISS %:    1.77773   MPKI: 3.23352
ITLB LOAD TRANSLATION ACCESS:    9094511  HIT:    8932835  MISS:     161676  HIT %:    98.2223  MISS %:    1.77773   MPKI: 3.23352
ITLB PREFETCH  REQUESTED:          0  ISSUED:          0  USEFUL:          0  USELESS:          0
ITLB USEFUL LOAD PREFETCHES:          0 PREFETCH ISSUED TO LOWER LEVEL:          0  ACCURACY: -nan
ITLB TIMELY PREFETCHES:          0 LATE PREFETCHES: 0 DROPPED PREFETCHES: 0
ITLB PREFETCHES SAME FILL-ORIGIN LEVEL: 0 DIFFERENT FILL-ORIGIN LEVEL: 0
ITLB AVERAGE MISS LATENCY: 18.8837 cycles
ITLB RQ	ACCESS:   10624434	FORWARD:          0	MERGED:    1490106	TO_CACHE:    9134328

DTLB TOTAL     ACCESS:   11137905  HIT:    9597636  MISS:    1540269  HIT %:    86.1709  MISS %:    13.8291   MPKI: 30.8054
DTLB LOAD TRANSLATION ACCESS:   11137905  HIT:    9597636  MISS:    1540269  HIT %:    86.1709  MISS %:    13.8291   MPKI: 30.8054
DTLB PREFETCH  REQUESTED:          0  ISSUED:          0  USEFUL:          0  USELESS:          0
DTLB USEFUL LOAD PREFETCHES:          0 PREFETCH ISSUED TO LOWER LEVEL:          0  ACCURACY: -nan
DTLB TIMELY PREFETCHES:          0 LATE PREFETCHES: 0 DROPPED PREFETCHES: 0
DTLB PREFETCHES SAME FILL-ORIGIN LEVEL: 0 DIFFERENT FILL-ORIGIN LEVEL: 0
DTLB AVERAGE MISS LATENCY: 11.5312 cycles
DTLB RQ	ACCESS:   14196503	FORWARD:          0	MERGED:    3031679	TO_CACHE:   11164824

STLB TOTAL     ACCESS:    3211030  HIT:    3107318  MISS:     103712  HIT %:    96.7701  MISS %:    3.22987   MPKI: 2.07424
STLB LOAD TRANSLATION ACCESS:    1701945  HIT:    1598233  MISS:     103712  HIT %:    93.9063  MISS %:    6.09373   MPKI: 2.07424
STLB TRANSLATION FROM L1D PREFETCHER ACCESS:    1509085  HIT:    1509085  MISS:          0  HIT %:        100  MISS %:          0   MPKI: 0
STLB PREFETCH  REQUESTED:          0  ISSUED:          0  USEFUL:          0  USELESS:          0
STLB USEFUL LOAD PREFETCHES:          0 PREFETCH ISSUED TO LOWER LEVEL:          0  ACCURACY: -nan
STLB TIMELY PREFETCHES:          0 LATE PREFETCHES: 0 DROPPED PREFETCHES: 0
STLB PREFETCHES SAME FILL-ORIGIN LEVEL: 0 DIFFERENT FILL-ORIGIN LEVEL: 0
STLB AVERAGE MISS LATENCY: 52.8319 cycles
STLB RQ	ACCESS:    4781135	FORWARD:          0	MERGED:    1570105	TO_CACHE:    3211030

STLB Hit, L1D data hit: 0
STLB Hit, L2C data hit: 0
STLB Hit, LLC data hit: 0
STLB Hit, LLC data miss: 0
STLB STLB hints to L2: 0
L1D TOTAL     ACCESS:   17053759  HIT:   13398455  MISS:    3655304  HIT %:     78.566  MISS %:     21.434   MPKI: 73.1061
L1D LOAD      ACCESS:    9343015  HIT:    7444550  MISS:    1898465  HIT %:    79.6804  MISS %:    20.3196   MPKI: 37.9693
L1D RFO       ACCESS:    4697533  HIT:    4586058  MISS:     111475  HIT %:    97.6269  MISS %:    2.37305   MPKI: 2.2295
L1D PREFETCH  ACCESS:    3013211  HIT:    1367847  MISS:    1645364  HIT %:     45.395  MISS %:     54.605   MPKI: 32.9073
L1D PREFETCH  REQUESTED:    6158904  ISSUED:    6158574  USEFUL:     158575  USELESS:    1486899
L1D USEFUL LOAD PREFETCHES:     158575 PREFETCH ISSUED TO LOWER LEVEL:    1692051  ACCURACY: 9.37176
L1D TIMELY PREFETCHES:     158575 LATE PREFETCHES: 46542 DROPPED PREFETCHES: 0
L1D PREFETCHES SAME FILL-ORIGIN LEVEL: 1692051 DIFFERENT FILL-ORIGIN LEVEL: 0
L1D AVERAGE MISS LATENCY: 654306 cycles
L1D RQ	ACCESS:   12616937	FORWARD:          0	MERGED:    3174393	TO_CACHE:    9368520
L1D WQ	ACCESS:    4936225	FORWARD:      74218	MERGED:     108242	TO_CACHE:    4827983
L1D PQ	ACCESS:    3079384	FORWARD:          0	MERGED:          0	TO_CACHE:    3079190

L1D UNIQUE REGIONS ACCESSED: 0
L1D REGIONS CONFLICTS: 0
L1D Cross Page Prefetch Requests: 0
L1D Same Page Prefetch Requests: 3129575
L1D ROI Sum of L1D PQ occupancy: 40669912
L1D PREFETCHES PUSHED FROM L2C: 0
L1I TOTAL     ACCESS:   10327597  HIT:    9300292  MISS:    1027305  HIT %:    90.0528  MISS %:    9.94718   MPKI: 20.5461
L1I LOAD      ACCESS:   10327597  HIT:    9300292  MISS:    1027305  HIT %:    90.0528  MISS %:    9.94718   MPKI: 20.5461
L1I PREFETCH  REQUESTED:          0  ISSUED:          0  USEFUL:          0  USELESS:          0
L1I USEFUL LOAD PREFETCHES:          0 PREFETCH ISSUED TO LOWER LEVEL:          0  ACCURACY: -nan
L1I TIMELY PREFETCHES:          0 LATE PREFETCHES: 0 DROPPED PREFETCHES: 0
L1I PREFETCHES SAME FILL-ORIGIN LEVEL: 0 DIFFERENT FILL-ORIGIN LEVEL: 0
L1I AVERAGE MISS LATENCY: 34.0681 cycles
L1I RQ	ACCESS:   15414700	FORWARD:          0	MERGED:    4790266	TO_CACHE:   10624434

BTB TOTAL     ACCESS:    6676538  HIT:    5902605  MISS:     773933  HIT %:    88.4082  MISS %:    11.5918   MPKI: 15.4787
BTB BRANCH_DIRECT_JUMP	ACCESS:     544515  HIT:     488010  MISS:      56505
BTB BRANCH_INDIRECT	ACCESS:     135142  HIT:     100243  MISS:      34899
BTB BRANCH_CONDITIONAL	ACCESS:    4036815  HIT:    3832685  MISS:     204130
BTB BRANCH_DIRECT_CALL	ACCESS:     780947  HIT:     677878  MISS:     103069
BTB BRANCH_INDIRECT_CALL	ACCESS:     187570  HIT:     160642  MISS:      26928
BTB BRANCH_RETURN	ACCESS:     991549  HIT:     643147  MISS:     348402
BTB BRANCH_OTHER ACCESS:          0  HIT:          0  MISS:          0

L2C TOTAL     ACCESS:    5366480  HIT:    4290808  MISS:    1075672  HIT %:    79.9557  MISS %:    20.0443   MPKI: 21.5134
L2C LOAD      ACCESS:    2879208  HIT:    2150482  MISS:     728726  HIT %:    74.6901  MISS %:    25.3099   MPKI: 14.5745
L2C DATA LOAD MPKI: 4.28668
L2C INSTRUCTION LOAD MPKI: 10.2878
L2C RFO       ACCESS:     111326  HIT:      61797  MISS:      49529  HIT %:    55.5099  MISS %:    44.4901   MPKI: 0.99058
L2C PREFETCH  ACCESS:    2012827  HIT:    1777925  MISS:     234902  HIT %:    88.3297  MISS %:    11.6703   MPKI: 4.69804
L2C DATA PREFETCH MPKI: 4.69804
L2C INSTRUCTION PREFETCH MPKI: 0
L2C WRITEBACK ACCESS:     231437  HIT:     228727  MISS:       2710  HIT %:    98.8291  MISS %:    1.17095   MPKI: 0.0542
L2C LOAD TRANSLATION ACCESS:     131682  HIT:      71877  MISS:      59805  HIT %:    54.5838  MISS %:    45.4162   MPKI: 1.1961
L2C PREFETCH  REQUESTED:     343179  ISSUED:     343179  USEFUL:      55414  USELESS:     179467
L2C USEFUL LOAD PREFETCHES:      55414 PREFETCH ISSUED TO LOWER LEVEL:     239246  ACCURACY: 23.1619
L2C TIMELY PREFETCHES:      55414 LATE PREFETCHES: 4344 DROPPED PREFETCHES: 0
L2C PREFETCHES SAME FILL-ORIGIN LEVEL: 176862 DIFFERENT FILL-ORIGIN LEVEL: 0
L2C AVERAGE MISS LATENCY: 50.5168 cycles
L2C RQ	ACCESS:    3122239	FORWARD:          0	MERGED:          0	TO_CACHE:    3122215
L2C WQ	ACCESS:     231437	FORWARD:         24	MERGED:          0	TO_CACHE:     231437
L2C PQ	ACCESS:    2035230	FORWARD:          0	MERGED:       3528	TO_CACHE:    2031702

L2C Instructions Evicting Data 239523
L2C Translations Evicting Data 28279
L2C Data Evicting Data 232166
L2C Instructions Evicting Instructions 246565
L2C Translations Evicting Instructions 28029
L2C Data Evicting Instructions 238799
L2C Instructions Evicting Translations 28304
L2C Translations Evicting Translations 3497
L2C Data Evicting Translations 27800
L2C Dense regions hint from L2: 0
PSCL5 TOTAL     ACCESS:     103712  HIT:     103712  MISS:          0  HIT %:        100  MISS %:          0   MPKI: 0
PSCL5 LOAD TRANSLATION ACCESS:     103712  HIT:     103712  MISS:          0  HIT %:        100  MISS %:          0   MPKI: 0
PSCL5 PREFETCH  REQUESTED:          0  ISSUED:          0  USEFUL:          0  USELESS:          0
PSCL5 USEFUL LOAD PREFETCHES:          0 PREFETCH ISSUED TO LOWER LEVEL:          0  ACCURACY: -nan
PSCL5 TIMELY PREFETCHES:          0 LATE PREFETCHES: 0 DROPPED PREFETCHES: 0
PSCL5 PREFETCHES SAME FILL-ORIGIN LEVEL: 0 DIFFERENT FILL-ORIGIN LEVEL: 0

PSCL4 TOTAL     ACCESS:      99485  HIT:      99250  MISS:        235  HIT %:    99.7638  MISS %:   0.236217   MPKI: 0.0047
PSCL4 LOAD TRANSLATION ACCESS:      99485  HIT:      99250  MISS:        235  HIT %:    99.7638  MISS %:   0.236217   MPKI: 0.0047
PSCL4 PREFETCH  REQUESTED:          0  ISSUED:          0  USEFUL:          0  USELESS:          0
PSCL4 USEFUL LOAD PREFETCHES:          0 PREFETCH ISSUED TO LOWER LEVEL:          0  ACCURACY: -nan
PSCL4 TIMELY PREFETCHES:          0 LATE PREFETCHES: 0 DROPPED PREFETCHES: 0
PSCL4 PREFETCHES SAME FILL-ORIGIN LEVEL: 0 DIFFERENT FILL-ORIGIN LEVEL: 0

PSCL3 TOTAL     ACCESS:     103173  HIT:     102513  MISS:        660  HIT %:    99.3603  MISS %:   0.639702   MPKI: 0.0132
PSCL3 LOAD TRANSLATION ACCESS:     103173  HIT:     102513  MISS:        660  HIT %:    99.3603  MISS %:   0.639702   MPKI: 0.0132
PSCL3 PREFETCH  REQUESTED:          0  ISSUED:          0  USEFUL:          0  USELESS:          0
PSCL3 USEFUL LOAD PREFETCHES:          0 PREFETCH ISSUED TO LOWER LEVEL:          0  ACCURACY: -nan
PSCL3 TIMELY PREFETCHES:          0 LATE PREFETCHES: 0 DROPPED PREFETCHES: 0
PSCL3 PREFETCHES SAME FILL-ORIGIN LEVEL: 0 DIFFERENT FILL-ORIGIN LEVEL: 0

PSCL2 TOTAL     ACCESS:     103712  HIT:      76530  MISS:      27182  HIT %:    73.7909  MISS %:    26.2091   MPKI: 0.54364
PSCL2 LOAD TRANSLATION ACCESS:     103712  HIT:      76530  MISS:      27182  HIT %:    73.7909  MISS %:    26.2091   MPKI: 0.54364
PSCL2 PREFETCH  REQUESTED:          0  ISSUED:          0  USEFUL:          0  USELESS:          0
PSCL2 USEFUL LOAD PREFETCHES:          0 PREFETCH ISSUED TO LOWER LEVEL:          0  ACCURACY: -nan
PSCL2 TIMELY PREFETCHES:          0 LATE PREFETCHES: 0 DROPPED PREFETCHES: 0
PSCL2 PREFETCHES SAME FILL-ORIGIN LEVEL: 0 DIFFERENT FILL-ORIGIN LEVEL: 0

LLC TOTAL     ACCESS:    1209394  HIT:    1073858  MISS:     135536  HIT %:    88.7931  MISS %:    11.2069   MPKI: 2.71072
LLC LOAD      ACCESS:     724528  HIT:     660955  MISS:      63573  HIT %:    91.2256  MISS %:     8.7744   MPKI: 1.27146
LLC RFO       ACCESS:      49381  HIT:      35322  MISS:      14059  HIT %:    71.5295  MISS %:    28.4705   MPKI: 0.28118
LLC PREFETCH  ACCESS:     239246  HIT:     185268  MISS:      53978  HIT %:    77.4383  MISS %:    22.5617   MPKI: 1.07956
LLC WRITEBACK ACCESS:     136434  HIT:     136366  MISS:         68  HIT %:    99.9502  MISS %:  0.0498409   MPKI: 0.00136
LLC LOAD TRANSLATION ACCESS:      59805  HIT:      55947  MISS:       3858  HIT %:     93.549  MISS %:    6.45097   MPKI: 0.07716
LLC PREFETCH  REQUESTED:          0  ISSUED:          0  USEFUL:       4176  USELESS:      49567
LLC USEFUL LOAD PREFETCHES:       4176 PREFETCH ISSUED TO LOWER LEVEL:      53978  ACCURACY: 7.73649
LLC TIMELY PREFETCHES:       4176 LATE PREFETCHES: 0 DROPPED PREFETCHES: 0
LLC PREFETCHES SAME FILL-ORIGIN LEVEL: 0 DIFFERENT FILL-ORIGIN LEVEL: 0
LLC AVERAGE MISS LATENCY: 164.507 cycles
LLC RQ	ACCESS:     833715	FORWARD:          0	MERGED:          0	TO_CACHE:     833713
LLC WQ	ACCESS:     136434	FORWARD:          2	MERGED:          0	TO_CACHE:     136434
LLC PQ	ACCESS:     239246	FORWARD:          0	MERGED:          0	TO_CACHE:     239246

LLC Dense regions hint to LLC: 0

RAW hits: 818543
Loads Generated: 13435467
Loads sent to L1D: 12616937
Stores Generated: 4936223
Stores sent to L1D: 4936225
Major fault: 0 Minor fault: 6644
Allocated PAGES: 6644

stream: 
stream:times selected: 2317933
stream:pref_filled: 1046781
stream:pref_useful: 40777
stream:pref_late: 4786
stream:misses: 688262
stream:misses_by_poll: 0

CS: 
CS:times selected: 549936
CS:pref_filled: 239850
CS:pref_useful: 46090
CS:pref_late: 1643
CS:misses: 36304
CS:misses_by_poll: 1

CPLX: 
CPLX:times selected: 2121390
CPLX:pref_filled: 375923
CPLX:pref_useful: 76563
CPLX:pref_late: 340
CPLX:misses: 675423
CPLX:misses_by_poll: 11

NL_L1: 
NL:times selected: 7651
NL:pref_filled: 780
NL:pref_useful: 118
NL:pref_late: 13
NL:misses: 268
NL:misses_by_poll: 0

total selections: 4996910
total_filled: 1645364
total_useful: 158575
total_late: 47194
total_polluted: 12
total_misses_after_warmup: 1923970
conflicts: 2162350
Degree Incremented Times: 0
Degree Decremented Times: 132419

L1 IP Table Write Accesses: 6666912
L1 IP Table Read Accesses: 4504562
L1 RST Write Accesses: 2249164
L1 RST Read Accesses: 4498328
L1 CSPT Write Accesses: 2249164
L1 CSPT Read Accesses: 4307597
L1 RR Filter Tag Write Accesses: 3079714
L1 RR Filter Tag Read Accesses: 124086266
L1 IP Table Tag Write Accesses: 9368520
L1 IP Table Tag Read Accesses: 9368520
L1 RST Tag Write Accesses: 0
L1 RST Tag Read Accesses: 19010689
L1 RR Filter Write Accesses: 0
L1 RR Filter Read Accesses: 3968371
test: 1151125
L2 IP Table Read Accesses: 6730845
L2 IP Table Write Accesses: 5516367
L2 IP Table Tag Read Accesses: 3539992
L2 IP Table Tag Write Accesses: 3539992

DRAM Statistics
 CHANNEL 0
 RQ ROW_BUFFER_HIT:      30606  ROW_BUFFER_MISS:     104862
 DBUS_CONGESTED:      44624
 WQ ROW_BUFFER_HIT:      11169  ROW_BUFFER_MISS:      35560  FULL:          0

 AVG_CONGESTED_CYCLE: 11
 All warmup complete: 2
Channel 0 Bank busy for read cycles: 0
Channel 0 Bank busy for write cycles: 0
Channel 0
Rank 0
0banks busy for read cycles: 105241175
0banks busy for write cycles: 22680
1banks busy for read cycles: 9058121
1banks busy for write cycles: 3390650
2banks busy for read cycles: 2425683
2banks busy for write cycles: 999008
3banks busy for read cycles: 612052
3banks busy for write cycles: 393301
4banks busy for read cycles: 214701
4banks busy for write cycles: 214512
5banks busy for read cycles: 67214
5banks busy for write cycles: 145788
6banks busy for read cycles: 31229
6banks busy for write cycles: 107419
7banks busy for read cycles: 26360
7banks busy for write cycles: 85082
8banks busy for read cycles: 77421
8banks busy for write cycles: 160812

CPU 0 Branch Prediction Accuracy: 93.6644% MPKI: 13.4005 Average ROB Occupancy at Mispredict: 29.6834
Branch types
NOT_BRANCH: 39424064 78.8481%
BRANCH_DIRECT_JUMP: 544515 1.08903%
BRANCH_INDIRECT: 135142 0.270284%
BRANCH_CONDITIONAL: 7935882 15.8718%
BRANCH_DIRECT_CALL: 780947 1.56189%
BRANCH_INDIRECT_CALL: 187570 0.37514%
BRANCH_RETURN: 991549 1.9831%
BRANCH_OTHER: 0 0%

@sumon_overall_L1D    158575     46542   1486899   1645364   6158574   6158904
@Sumon_Early_by_class_L1D     37010     44056     75949        11
@Sumon_Late_by_class_L1D      4415      1460       291        11

@Sumon_Early_by_cycle_L1D    115965      5570     22819      1976      1591      3216      1443      1373      1312      1743      1080       487
@Sumon_Late_by_cycle_L1D     45247      1041       149        90         8         7         0         0         0         0         0         0
@Sumon_Early_stream_L1D     23661      1702      1588      1416      1190      2266      1013      1002       848      1226       772       326
@Sumon_Early_CS_L1D     40982      1362       741       111       121       299       129        86        97        48        50        30
@Sumon_Early_CPLX_L1D     51039      2318     20226       250       154       440       251       260       300       378       221       112
@Sumon_Late_stream_L1D      3512       800        77        22         3         1         0         0         0         0         0         0
@Sumon_Late_CS_L1D      1198       148        63        42         3         6         0         0         0         0         0         0
@Sumon_Late_CPLX_L1D       208        48         8        25         2         0         0         0         0         0         0         0
@sumon_overall_L2C     55414      4344    179467    234902    343179    343179
@Sumon_Early_by_class_L2C      1323       275       552         0
@Sumon_Late_by_class_L2C         0         0         0         0

@Sumon_Early_by_cycle_L2C      8806      5961      6473      3800      2983      7749      4095      2892      2007      2386      1499      6763
@Sumon_Late_by_cycle_L2C      3313      1022         8         1         0         0         0         0         0         0         0         0
@Sumon_Early_stream_L2C         0         0         0         0         0         0         0         0         1         8        63      1251
@Sumon_Early_CS_L2C         0         0         0         0         0         0         0         0         1         3         9       262
@Sumon_Early_CPLX_L2C         0         0         0         0         0         0         0         0         0        11        35       506
@Sumon_Late_stream_L2C         0         0         0         0         0         0         0         0         0         0         0         0
@Sumon_Late_CS_L2C         0         0         0         0         0         0         0         0         0         0         0         0
@Sumon_Late_CPLX_L2C         0         0         0         0         0         0         0         0         0         0         0         0
DRAM PAGES: 1048576
Allocated PAGES: 6644
