
*** ChampSim Multicore Out-of-Order Simulator ***

Warmup Instructions: 10000000
Simulation Instructions: 50000000
Number of CPUs: 1
LLC sets: 2048
LLC ways: 16
Off-chip DRAM Size: 4096 MB Channels: 1 Width: 64-bit Data Rate: 1600 MT/s
CPU 0 runs traces/clientserver/server_016.champsimtrace.xz
.xz
CPU 0 Bimodal branch predictor
BTB has LRU replacement policy
ITLB has LRU replacement policy
DTLB has LRU replacement policy
STLB has LRU replacement policy
L1I has LRU replacement policy
IP Table Entries: 256
L1D has LRU replacement policy
IP_Table L2 entries: 256
L2C has LRU replacement policy
LLC has LRU replacement policy
Heartbeat CPU 0 instructions: 10000000 cycles: 2875985 heartbeat IPC: 3.47707 cumulative IPC: 3.47707 (Simulation time: 0 hr 18 min 5 sec) 

Warmup complete CPU 0 instructions: 10000004 cycles: 2875986 (Simulation time: 0 hr 18 min 5 sec) 

Heartbeat CPU 0 instructions: 20000000 cycles: 26430620 heartbeat IPC: 0.424545 cumulative IPC: 0.424545 (Simulation time: 0 hr 34 min 56 sec) 
Heartbeat CPU 0 instructions: 30000001 cycles: 50092243 heartbeat IPC: 0.422625 cumulative IPC: 0.423583 (Simulation time: 0 hr 51 min 54 sec) 
Heartbeat CPU 0 instructions: 40000000 cycles: 66538997 heartbeat IPC: 0.608023 cumulative IPC: 0.471231 (Simulation time: 1 hr 5 min 17 sec) 
Heartbeat CPU 0 instructions: 50000002 cycles: 80853674 heartbeat IPC: 0.698584 cumulative IPC: 0.512967 (Simulation time: 1 hr 17 min 29 sec) 
Heartbeat CPU 0 instructions: 60000003 cycles: 96247407 heartbeat IPC: 0.649615 cumulative IPC: 0.535496 (Simulation time: 1 hr 29 min 56 sec) 
Finished CPU 0 instructions: 50000002 cycles: 93371422 cumulative IPC: 0.535496 (Simulation time: 1 hr 29 min 56 sec) 

ChampSim completed all CPUs

Region of Interest Statistics

CPU 0 cumulative IPC: 0.535496 instructions: 50000002 cycles: 93371422
ITLB TOTAL     ACCESS:   10320839  HIT:   10115223  MISS:     205616  HIT %:    98.0078  MISS %:    1.99224   MPKI: 4.11232
ITLB LOAD TRANSLATION ACCESS:   10320839  HIT:   10115223  MISS:     205616  HIT %:    98.0078  MISS %:    1.99224   MPKI: 4.11232
ITLB PREFETCH  REQUESTED:          0  ISSUED:          0  USEFUL:          0  USELESS:          0
ITLB USEFUL LOAD PREFETCHES:          0 PREFETCH ISSUED TO LOWER LEVEL:          0  ACCURACY: -nan
ITLB TIMELY PREFETCHES:          0 LATE PREFETCHES: 0 DROPPED PREFETCHES: 0
ITLB PREFETCHES SAME FILL-ORIGIN LEVEL: 0 DIFFERENT FILL-ORIGIN LEVEL: 0
ITLB AVERAGE MISS LATENCY: 9.12728 cycles
ITLB RQ	ACCESS:   11154118	FORWARD:          0	MERGED:     782212	TO_CACHE:   10371906

DTLB TOTAL     ACCESS:    8444977  HIT:    8228420  MISS:     216557  HIT %:    97.4357  MISS %:    2.56433   MPKI: 4.33114
DTLB LOAD TRANSLATION ACCESS:    8444977  HIT:    8228420  MISS:     216557  HIT %:    97.4357  MISS %:    2.56433   MPKI: 4.33114
DTLB PREFETCH  REQUESTED:          0  ISSUED:          0  USEFUL:          0  USELESS:          0
DTLB USEFUL LOAD PREFETCHES:          0 PREFETCH ISSUED TO LOWER LEVEL:          0  ACCURACY: -nan
DTLB TIMELY PREFETCHES:          0 LATE PREFETCHES: 0 DROPPED PREFETCHES: 0
DTLB PREFETCHES SAME FILL-ORIGIN LEVEL: 0 DIFFERENT FILL-ORIGIN LEVEL: 0
DTLB AVERAGE MISS LATENCY: 9.56444 cycles
DTLB RQ	ACCESS:   10114774	FORWARD:          0	MERGED:    1660234	TO_CACHE:    8454540

STLB TOTAL     ACCESS:    2419021  HIT:    2417634  MISS:       1387  HIT %:    99.9427  MISS %:  0.0573372   MPKI: 0.02774
STLB LOAD TRANSLATION ACCESS:     422173  HIT:     420786  MISS:       1387  HIT %:    99.6715  MISS %:   0.328538   MPKI: 0.02774
STLB TRANSLATION FROM L1D PREFETCHER ACCESS:    1996848  HIT:    1996848  MISS:          0  HIT %:        100  MISS %:          0   MPKI: 0
STLB PREFETCH  REQUESTED:          0  ISSUED:          0  USEFUL:          0  USELESS:          0
STLB USEFUL LOAD PREFETCHES:          0 PREFETCH ISSUED TO LOWER LEVEL:          0  ACCURACY: -nan
STLB TIMELY PREFETCHES:          0 LATE PREFETCHES: 0 DROPPED PREFETCHES: 0
STLB PREFETCHES SAME FILL-ORIGIN LEVEL: 0 DIFFERENT FILL-ORIGIN LEVEL: 0
STLB AVERAGE MISS LATENCY: 102.982 cycles
STLB RQ	ACCESS:    4427363	FORWARD:          0	MERGED:    2008342	TO_CACHE:    2419021

STLB Hit, L1D data hit: 0
STLB Hit, L2C data hit: 0
STLB Hit, LLC data hit: 0
STLB Hit, LLC data miss: 0
STLB STLB hints to L2: 0
L1D TOTAL     ACCESS:   13866285  HIT:   13335910  MISS:     530375  HIT %:    96.1751  MISS %:    3.82492   MPKI: 10.6075
L1D LOAD      ACCESS:    6521770  HIT:    6202304  MISS:     319466  HIT %:    95.1015  MISS %:    4.89846   MPKI: 6.38932
L1D RFO       ACCESS:    3373239  HIT:    3242279  MISS:     130960  HIT %:    96.1177  MISS %:    3.88232   MPKI: 2.6192
L1D PREFETCH  ACCESS:    3971276  HIT:    3891327  MISS:      79949  HIT %:    97.9868  MISS %:    2.01318   MPKI: 1.59898
L1D PREFETCH  REQUESTED:    8011964  ISSUED:    8010503  USEFUL:      29187  USELESS:      50739
L1D USEFUL LOAD PREFETCHES:      29187 PREFETCH ISSUED TO LOWER LEVEL:     105496  ACCURACY: 27.6665
L1D TIMELY PREFETCHES:      29187 LATE PREFETCHES: 25438 DROPPED PREFETCHES: 0
L1D PREFETCHES SAME FILL-ORIGIN LEVEL: 105496 DIFFERENT FILL-ORIGIN LEVEL: 0
L1D AVERAGE MISS LATENCY: 1.59361e+06 cycles
L1D RQ	ACCESS:    8252724	FORWARD:          0	MERGED:    1664021	TO_CACHE:    6539768
L1D WQ	ACCESS:    3595475	FORWARD:      49058	MERGED:      20469	TO_CACHE:    3575006
L1D PQ	ACCESS:    4005313	FORWARD:          0	MERGED:          0	TO_CACHE:    4005190

L1D UNIQUE REGIONS ACCESSED: 0
L1D REGIONS CONFLICTS: 0
L1D Cross Page Prefetch Requests: 0
L1D Same Page Prefetch Requests: 4128520
L1D ROI Sum of L1D PQ occupancy: 51875865
L1D PREFETCHES PUSHED FROM L2C: 0
L1I TOTAL     ACCESS:   10957753  HIT:    9799815  MISS:    1157938  HIT %:    89.4327  MISS %:    10.5673   MPKI: 23.1588
L1I LOAD      ACCESS:   10957753  HIT:    9799815  MISS:    1157938  HIT %:    89.4327  MISS %:    10.5673   MPKI: 23.1588
L1I PREFETCH  REQUESTED:          0  ISSUED:          0  USEFUL:          0  USELESS:          0
L1I USEFUL LOAD PREFETCHES:          0 PREFETCH ISSUED TO LOWER LEVEL:          0  ACCURACY: -nan
L1I TIMELY PREFETCHES:          0 LATE PREFETCHES: 0 DROPPED PREFETCHES: 0
L1I PREFETCHES SAME FILL-ORIGIN LEVEL: 0 DIFFERENT FILL-ORIGIN LEVEL: 0
L1I AVERAGE MISS LATENCY: 18.7202 cycles
L1I RQ	ACCESS:   13265050	FORWARD:          0	MERGED:    2110932	TO_CACHE:   11154118

BTB TOTAL     ACCESS:    7190451  HIT:    6378068  MISS:     812383  HIT %:    88.7019  MISS %:    11.2981   MPKI: 16.2477
BTB BRANCH_DIRECT_JUMP	ACCESS:     339310  HIT:     269835  MISS:      69475
BTB BRANCH_INDIRECT	ACCESS:     121946  HIT:     106677  MISS:      15269
BTB BRANCH_CONDITIONAL	ACCESS:    5612690  HIT:    5396943  MISS:     215747
BTB BRANCH_DIRECT_CALL	ACCESS:     483870  HIT:     323041  MISS:     160829
BTB BRANCH_INDIRECT_CALL	ACCESS:      74389  HIT:      41457  MISS:      32932
BTB BRANCH_RETURN	ACCESS:     558246  HIT:     240115  MISS:     318131
BTB BRANCH_OTHER ACCESS:          0  HIT:          0  MISS:          0

L2C TOTAL     ACCESS:    2158927  HIT:    1818061  MISS:     340866  HIT %:    84.2113  MISS %:    15.7887   MPKI: 6.81732
L2C LOAD      ACCESS:    1451966  HIT:    1229126  MISS:     222840  HIT %:    84.6525  MISS %:    15.3475   MPKI: 4.4568
L2C DATA LOAD MPKI: 1.01272
L2C INSTRUCTION LOAD MPKI: 3.44408
L2C RFO       ACCESS:     130846  HIT:      90886  MISS:      39960  HIT %:    69.4603  MISS %:    30.5397   MPKI: 0.7992
L2C PREFETCH  ACCESS:     348341  HIT:     274145  MISS:      74196  HIT %:    78.7002  MISS %:    21.2998   MPKI: 1.48392
L2C DATA PREFETCH MPKI: 1.48392
L2C INSTRUCTION PREFETCH MPKI: 0
L2C WRITEBACK ACCESS:     226221  HIT:     223458  MISS:       2763  HIT %:    98.7786  MISS %:    1.22137   MPKI: 0.05526
L2C LOAD TRANSLATION ACCESS:       1553  HIT:        446  MISS:       1107  HIT %:    28.7186  MISS %:    71.2814   MPKI: 0.02214
L2C PREFETCH  REQUESTED:     248987  ISSUED:     248987  USEFUL:      11847  USELESS:      62361
L2C USEFUL LOAD PREFETCHES:      11847 PREFETCH ISSUED TO LOWER LEVEL:      75409  ACCURACY: 15.7103
L2C TIMELY PREFETCHES:      11847 LATE PREFETCHES: 1213 DROPPED PREFETCHES: 0
L2C PREFETCHES SAME FILL-ORIGIN LEVEL: 37220 DIFFERENT FILL-ORIGIN LEVEL: 0
L2C AVERAGE MISS LATENCY: 40.4908 cycles
L2C RQ	ACCESS:    1584370	FORWARD:          0	MERGED:          0	TO_CACHE:    1584365
L2C WQ	ACCESS:     226221	FORWARD:          7	MERGED:          0	TO_CACHE:     226221
L2C PQ	ACCESS:     354483	FORWARD:          0	MERGED:       2562	TO_CACHE:     351919

L2C Instructions Evicting Data 79019
L2C Translations Evicting Data 742
L2C Data Evicting Data 86782
L2C Instructions Evicting Instructions 92794
L2C Translations Evicting Instructions 358
L2C Data Evicting Instructions 77308
L2C Instructions Evicting Translations 391
L2C Translations Evicting Translations 7
L2C Data Evicting Translations 702
L2C Dense regions hint from L2: 0
PSCL5 TOTAL     ACCESS:       1387  HIT:       1387  MISS:          0  HIT %:        100  MISS %:          0   MPKI: 0
PSCL5 LOAD TRANSLATION ACCESS:       1387  HIT:       1387  MISS:          0  HIT %:        100  MISS %:          0   MPKI: 0
PSCL5 PREFETCH  REQUESTED:          0  ISSUED:          0  USEFUL:          0  USELESS:          0
PSCL5 USEFUL LOAD PREFETCHES:          0 PREFETCH ISSUED TO LOWER LEVEL:          0  ACCURACY: -nan
PSCL5 TIMELY PREFETCHES:          0 LATE PREFETCHES: 0 DROPPED PREFETCHES: 0
PSCL5 PREFETCHES SAME FILL-ORIGIN LEVEL: 0 DIFFERENT FILL-ORIGIN LEVEL: 0

PSCL4 TOTAL     ACCESS:       1268  HIT:       1262  MISS:          6  HIT %:    99.5268  MISS %:   0.473186   MPKI: 0.00012
PSCL4 LOAD TRANSLATION ACCESS:       1268  HIT:       1262  MISS:          6  HIT %:    99.5268  MISS %:   0.473186   MPKI: 0.00012
PSCL4 PREFETCH  REQUESTED:          0  ISSUED:          0  USEFUL:          0  USELESS:          0
PSCL4 USEFUL LOAD PREFETCHES:          0 PREFETCH ISSUED TO LOWER LEVEL:          0  ACCURACY: -nan
PSCL4 TIMELY PREFETCHES:          0 LATE PREFETCHES: 0 DROPPED PREFETCHES: 0
PSCL4 PREFETCHES SAME FILL-ORIGIN LEVEL: 0 DIFFERENT FILL-ORIGIN LEVEL: 0

PSCL3 TOTAL     ACCESS:       1375  HIT:       1369  MISS:          6  HIT %:    99.5636  MISS %:   0.436364   MPKI: 0.00012
PSCL3 LOAD TRANSLATION ACCESS:       1375  HIT:       1369  MISS:          6  HIT %:    99.5636  MISS %:   0.436364   MPKI: 0.00012
PSCL3 PREFETCH  REQUESTED:          0  ISSUED:          0  USEFUL:          0  USELESS:          0
PSCL3 USEFUL LOAD PREFETCHES:          0 PREFETCH ISSUED TO LOWER LEVEL:          0  ACCURACY: -nan
PSCL3 TIMELY PREFETCHES:          0 LATE PREFETCHES: 0 DROPPED PREFETCHES: 0
PSCL3 PREFETCHES SAME FILL-ORIGIN LEVEL: 0 DIFFERENT FILL-ORIGIN LEVEL: 0

PSCL2 TOTAL     ACCESS:       1387  HIT:       1229  MISS:        158  HIT %:    88.6085  MISS %:    11.3915   MPKI: 0.00316
PSCL2 LOAD TRANSLATION ACCESS:       1387  HIT:       1229  MISS:        158  HIT %:    88.6085  MISS %:    11.3915   MPKI: 0.00316
PSCL2 PREFETCH  REQUESTED:          0  ISSUED:          0  USEFUL:          0  USELESS:          0
PSCL2 USEFUL LOAD PREFETCHES:          0 PREFETCH ISSUED TO LOWER LEVEL:          0  ACCURACY: -nan
PSCL2 TIMELY PREFETCHES:          0 LATE PREFETCHES: 0 DROPPED PREFETCHES: 0
PSCL2 PREFETCHES SAME FILL-ORIGIN LEVEL: 0 DIFFERENT FILL-ORIGIN LEVEL: 0

LLC TOTAL     ACCESS:     401375  HIT:     379050  MISS:      22325  HIT %:    94.4379  MISS %:    5.56213   MPKI: 0.4465
LLC LOAD      ACCESS:     221724  HIT:     218029  MISS:       3695  HIT %:    98.3335  MISS %:    1.66649   MPKI: 0.0739
LLC RFO       ACCESS:      39863  HIT:      29761  MISS:      10102  HIT %:    74.6582  MISS %:    25.3418   MPKI: 0.20204
LLC PREFETCH  ACCESS:      75409  HIT:      67117  MISS:       8292  HIT %:     89.004  MISS %:     10.996   MPKI: 0.16584
LLC WRITEBACK ACCESS:      63272  HIT:      63205  MISS:         67  HIT %:    99.8941  MISS %:   0.105892   MPKI: 0.00134
LLC LOAD TRANSLATION ACCESS:       1107  HIT:        938  MISS:        169  HIT %:    84.7335  MISS %:    15.2665   MPKI: 0.00338
LLC PREFETCH  REQUESTED:          0  ISSUED:          0  USEFUL:        940  USELESS:       6477
LLC USEFUL LOAD PREFETCHES:        940 PREFETCH ISSUED TO LOWER LEVEL:       8292  ACCURACY: 11.3362
LLC TIMELY PREFETCHES:        940 LATE PREFETCHES: 0 DROPPED PREFETCHES: 0
LLC PREFETCHES SAME FILL-ORIGIN LEVEL: 0 DIFFERENT FILL-ORIGIN LEVEL: 0
LLC AVERAGE MISS LATENCY: 163.548 cycles
LLC RQ	ACCESS:     262694	FORWARD:          0	MERGED:          0	TO_CACHE:     262694
LLC WQ	ACCESS:      63272	FORWARD:          0	MERGED:          0	TO_CACHE:      63272
LLC PQ	ACCESS:      75409	FORWARD:          0	MERGED:          0	TO_CACHE:      75409

LLC Dense regions hint to LLC: 0

RAW hits: 340832
Loads Generated: 8593557
Loads sent to L1D: 8252724
Stores Generated: 3595476
Stores sent to L1D: 3595475
Major fault: 0 Minor fault: 2141
Allocated PAGES: 2141

stream: 
stream:times selected: 2656658
stream:pref_filled: 60328
stream:pref_useful: 12832
stream:pref_late: 20987
stream:misses: 7169
stream:misses_by_poll: 0

CS: 
CS:times selected: 2042213
CS:pref_filled: 38186
CS:pref_useful: 27724
CS:pref_late: 2500
CS:misses: 6561
CS:misses_by_poll: 6

CPLX: 
CPLX:times selected: 612761
CPLX:pref_filled: 18070
CPLX:pref_useful: 5928
CPLX:pref_late: 1840
CPLX:misses: 63526
CPLX:misses_by_poll: 2

NL_L1: 
NL:times selected: 4153
NL:pref_filled: 388
NL:pref_useful: 44
NL:pref_late: 14
NL:misses: 349
NL:misses_by_poll: 0

total selections: 5315785
total_filled: 79949
total_useful: 29187
total_late: 27122
total_polluted: 8
total_misses_after_warmup: 337467
conflicts: 1399225
Degree Incremented Times: 571
Degree Decremented Times: 48421

L1 IP Table Write Accesses: 4913558
L1 IP Table Read Accesses: 3514333
L1 RST Write Accesses: 2457767
L1 RST Read Accesses: 4915534
L1 CSPT Write Accesses: 2457767
L1 CSPT Read Accesses: 2899217
L1 RR Filter Tag Write Accesses: 4006774
L1 RR Filter Tag Read Accesses: 256154524
L1 IP Table Tag Write Accesses: 6539771
L1 IP Table Tag Read Accesses: 6539771
L1 RST Tag Write Accesses: 0
L1 RST Tag Read Accesses: 21259226
L1 RR Filter Write Accesses: 0
L1 RR Filter Read Accesses: 8361759
test: 174419
L2 IP Table Read Accesses: 542844
L2 IP Table Write Accesses: 713803
L2 IP Table Tag Read Accesses: 397160
L2 IP Table Tag Write Accesses: 397160

DRAM Statistics
 CHANNEL 0
 RQ ROW_BUFFER_HIT:      10818  ROW_BUFFER_MISS:      11437
 DBUS_CONGESTED:      13724
 WQ ROW_BUFFER_HIT:        777  ROW_BUFFER_MISS:       4300  FULL:          0

 AVG_CONGESTED_CYCLE: 12
 All warmup complete: 2
Channel 0 Bank busy for read cycles: 0
Channel 0 Bank busy for write cycles: 0
Channel 0
Rank 0
0banks busy for read cycles: 91817685
0banks busy for write cycles: 1495
1banks busy for read cycles: 524949
1banks busy for write cycles: 191043
2banks busy for read cycles: 336472
2banks busy for write cycles: 73280
3banks busy for read cycles: 84561
3banks busy for write cycles: 36766
4banks busy for read cycles: 51156
4banks busy for write cycles: 25141
5banks busy for read cycles: 30175
5banks busy for write cycles: 20687
6banks busy for read cycles: 26107
6banks busy for write cycles: 14649
7banks busy for read cycles: 24670
7banks busy for write cycles: 11939
8banks busy for read cycles: 65953
8banks busy for write cycles: 34695

CPU 0 Branch Prediction Accuracy: 95.959% MPKI: 7.171 Average ROB Occupancy at Mispredict: 18.2392
Branch types
NOT_BRANCH: 41127058 82.2541%
BRANCH_DIRECT_JUMP: 339310 0.67862%
BRANCH_INDIRECT: 121946 0.243892%
BRANCH_CONDITIONAL: 7295137 14.5903%
BRANCH_DIRECT_CALL: 483870 0.96774%
BRANCH_INDIRECT_CALL: 74389 0.148778%
BRANCH_RETURN: 558246 1.11649%
BRANCH_OTHER: 0 0%

@sumon_overall_L1D     29187     25438     50739     79949   8010503   8011964
@Sumon_Early_by_class_L1D      6570     19566      2623         2
@Sumon_Late_by_class_L1D     20073      2253      1508         2

@Sumon_Early_by_cycle_L1D     22176      1720       951       469       161       411       340      1051       504       914       374       116
@Sumon_Late_by_cycle_L1D     24853       562        15         8         0         0         0         0         0         0         0         0
@Sumon_Early_stream_L1D      2434       578       549       337        80       236       271       647       318       668       341       111
@Sumon_Early_CS_L1D     17895      1067       293        83         4        15        13       168        11        14         1         2
@Sumon_Early_CPLX_L1D      1781        43        83        35        28       141        53       224        91       112        31         1
@Sumon_Late_stream_L1D     19818       251         4         0         0         0         0         0         0         0         0         0
@Sumon_Late_CS_L1D      1976       258        11         8         0         0         0         0         0         0         0         0
@Sumon_Late_CPLX_L1D      1495        13         0         0         0         0         0         0         0         0         0         0
@sumon_overall_L2C     11847      1213     62361     74196    248987    248987
@Sumon_Early_by_class_L2C      1476        94       335         0
@Sumon_Late_by_class_L2C         0         0         0         0

@Sumon_Early_by_cycle_L2C      2110      1006       587       645       313      1273       981       809       263       367       532      2961
@Sumon_Late_by_cycle_L2C       929       284         0         0         0         0         0         0         0         0         0         0
@Sumon_Early_stream_L2C         0         0         0         0         0         0         0         0         0         7       164      1305
@Sumon_Early_CS_L2C         0         0         0         0         0         0         0         0         0         0         0        94
@Sumon_Early_CPLX_L2C         0         0         0         0         0         0         0         0         0         0        29       306
@Sumon_Late_stream_L2C         0         0         0         0         0         0         0         0         0         0         0         0
@Sumon_Late_CS_L2C         0         0         0         0         0         0         0         0         0         0         0         0
@Sumon_Late_CPLX_L2C         0         0         0         0         0         0         0         0         0         0         0         0
DRAM PAGES: 1048576
Allocated PAGES: 2141
