
*** ChampSim Multicore Out-of-Order Simulator ***

Warmup Instructions: 10000000
Simulation Instructions: 50000000
Number of CPUs: 1
LLC sets: 2048
LLC ways: 16
Off-chip DRAM Size: 4096 MB Channels: 1 Width: 64-bit Data Rate: 1600 MT/s
CPU 0 runs traces/clientserver/server_033.champsimtrace.xz
.xz
CPU 0 Bimodal branch predictor
BTB has LRU replacement policy
ITLB has LRU replacement policy
DTLB has LRU replacement policy
STLB has LRU replacement policy
L1I has LRU replacement policy
IP Table Entries: 256
L1D has LRU replacement policy
IP_Table L2 entries: 256
L2C has LRU replacement policy
LLC has LRU replacement policy
Heartbeat CPU 0 instructions: 10000001 cycles: 2769691 heartbeat IPC: 3.61051 cumulative IPC: 3.61051 (Simulation time: 0 hr 17 min 35 sec) 

Warmup complete CPU 0 instructions: 10000001 cycles: 2769691 (Simulation time: 0 hr 17 min 35 sec) 

Heartbeat CPU 0 instructions: 20000003 cycles: 23052914 heartbeat IPC: 0.493018 cumulative IPC: 0.493018 (Simulation time: 0 hr 33 min 51 sec) 
Heartbeat CPU 0 instructions: 30000000 cycles: 43836268 heartbeat IPC: 0.481154 cumulative IPC: 0.487014 (Simulation time: 0 hr 50 min 19 sec) 
Heartbeat CPU 0 instructions: 40000001 cycles: 64050747 heartbeat IPC: 0.494695 cumulative IPC: 0.489548 (Simulation time: 1 hr 6 min 33 sec) 
Heartbeat CPU 0 instructions: 50000000 cycles: 84376698 heartbeat IPC: 0.491982 cumulative IPC: 0.490154 (Simulation time: 1 hr 22 min 41 sec) 
Heartbeat CPU 0 instructions: 60000003 cycles: 104617599 heartbeat IPC: 0.494049 cumulative IPC: 0.490928 (Simulation time: 1 hr 38 min 31 sec) 
Finished CPU 0 instructions: 50000002 cycles: 101847908 cumulative IPC: 0.490928 (Simulation time: 1 hr 38 min 31 sec) 

ChampSim completed all CPUs

Region of Interest Statistics

CPU 0 cumulative IPC: 0.490928 instructions: 50000002 cycles: 101847908
ITLB TOTAL     ACCESS:    8926866  HIT:    8424359  MISS:     502507  HIT %:    94.3708  MISS %:    5.62915   MPKI: 10.0501
ITLB LOAD TRANSLATION ACCESS:    8926866  HIT:    8424359  MISS:     502507  HIT %:    94.3708  MISS %:    5.62915   MPKI: 10.0501
ITLB PREFETCH  REQUESTED:          0  ISSUED:          0  USEFUL:          0  USELESS:          0
ITLB USEFUL LOAD PREFETCHES:          0 PREFETCH ISSUED TO LOWER LEVEL:          0  ACCURACY: -nan
ITLB TIMELY PREFETCHES:          0 LATE PREFETCHES: 0 DROPPED PREFETCHES: 0
ITLB PREFETCHES SAME FILL-ORIGIN LEVEL: 0 DIFFERENT FILL-ORIGIN LEVEL: 0
ITLB AVERAGE MISS LATENCY: 9.06354 cycles
ITLB RQ	ACCESS:   10598705	FORWARD:          0	MERGED:    1547841	TO_CACHE:    9050864

DTLB TOTAL     ACCESS:   10739747  HIT:   10294748  MISS:     444999  HIT %:    95.8565  MISS %:    4.14348   MPKI: 8.89998
DTLB LOAD TRANSLATION ACCESS:   10739747  HIT:   10294748  MISS:     444999  HIT %:    95.8565  MISS %:    4.14348   MPKI: 8.89998
DTLB PREFETCH  REQUESTED:          0  ISSUED:          0  USEFUL:          0  USELESS:          0
DTLB USEFUL LOAD PREFETCHES:          0 PREFETCH ISSUED TO LOWER LEVEL:          0  ACCURACY: -nan
DTLB TIMELY PREFETCHES:          0 LATE PREFETCHES: 0 DROPPED PREFETCHES: 0
DTLB PREFETCHES SAME FILL-ORIGIN LEVEL: 0 DIFFERENT FILL-ORIGIN LEVEL: 0
DTLB AVERAGE MISS LATENCY: 9.7135 cycles
DTLB RQ	ACCESS:   14287109	FORWARD:          0	MERGED:    3533876	TO_CACHE:   10753233

STLB TOTAL     ACCESS:    1196848  HIT:    1192345  MISS:       4503  HIT %:    99.6238  MISS %:   0.376238   MPKI: 0.09006
STLB LOAD TRANSLATION ACCESS:     947506  HIT:     943003  MISS:       4503  HIT %:    99.5248  MISS %:   0.475248   MPKI: 0.09006
STLB TRANSLATION FROM L1D PREFETCHER ACCESS:     249342  HIT:     249342  MISS:          0  HIT %:        100  MISS %:          0   MPKI: 0
STLB PREFETCH  REQUESTED:          0  ISSUED:          0  USEFUL:          0  USELESS:          0
STLB USEFUL LOAD PREFETCHES:          0 PREFETCH ISSUED TO LOWER LEVEL:          0  ACCURACY: -nan
STLB TIMELY PREFETCHES:          0 LATE PREFETCHES: 0 DROPPED PREFETCHES: 0
STLB PREFETCHES SAME FILL-ORIGIN LEVEL: 0 DIFFERENT FILL-ORIGIN LEVEL: 0
STLB AVERAGE MISS LATENCY: 73.449 cycles
STLB RQ	ACCESS:    1314373	FORWARD:          0	MERGED:     117525	TO_CACHE:    1196848

STLB Hit, L1D data hit: 0
STLB Hit, L2C data hit: 0
STLB Hit, LLC data hit: 0
STLB Hit, LLC data miss: 0
STLB STLB hints to L2: 0
L1D TOTAL     ACCESS:   14500849  HIT:   13585822  MISS:     915027  HIT %:    93.6898  MISS %:    6.31016   MPKI: 18.3005
L1D LOAD      ACCESS:    7838922  HIT:    7220293  MISS:     618629  HIT %:    92.1082  MISS %:    7.89176   MPKI: 12.3726
L1D RFO       ACCESS:    6310199  HIT:    6190833  MISS:     119366  HIT %:    98.1084  MISS %:    1.89164   MPKI: 2.38732
L1D PREFETCH  ACCESS:     351728  HIT:     174696  MISS:     177032  HIT %:    49.6679  MISS %:    50.3321   MPKI: 3.54064
L1D PREFETCH  REQUESTED:     734406  ISSUED:     734376  USEFUL:      23142  USELESS:     153852
L1D USEFUL LOAD PREFETCHES:      23142 PREFETCH ISSUED TO LOWER LEVEL:     178705  ACCURACY: 12.9498
L1D TIMELY PREFETCHES:      23142 LATE PREFETCHES: 1555 DROPPED PREFETCHES: 0
L1D PREFETCHES SAME FILL-ORIGIN LEVEL: 178705 DIFFERENT FILL-ORIGIN LEVEL: 0
L1D AVERAGE MISS LATENCY: 82353.1 cycles
L1D RQ	ACCESS:   11159162	FORWARD:          0	MERGED:    3151008	TO_CACHE:    7862589
L1D WQ	ACCESS:    6511082	FORWARD:     146207	MERGED:      86562	TO_CACHE:    6424520
L1D PQ	ACCESS:     367509	FORWARD:          0	MERGED:          0	TO_CACHE:     366867

L1D UNIQUE REGIONS ACCESSED: 0
L1D REGIONS CONFLICTS: 0
L1D Cross Page Prefetch Requests: 0
L1D Same Page Prefetch Requests: 430018
L1D ROI Sum of L1D PQ occupancy: 4840133
L1D PREFETCHES PUSHED FROM L2C: 0
L1I TOTAL     ACCESS:    9860027  HIT:    6560590  MISS:    3299437  HIT %:    66.5372  MISS %:    33.4628   MPKI: 65.9887
L1I LOAD      ACCESS:    9860027  HIT:    6560590  MISS:    3299437  HIT %:    66.5372  MISS %:    33.4628   MPKI: 65.9887
L1I PREFETCH  REQUESTED:          0  ISSUED:          0  USEFUL:          0  USELESS:          0
L1I USEFUL LOAD PREFETCHES:          0 PREFETCH ISSUED TO LOWER LEVEL:          0  ACCURACY: -nan
L1I TIMELY PREFETCHES:          0 LATE PREFETCHES: 0 DROPPED PREFETCHES: 0
L1I PREFETCHES SAME FILL-ORIGIN LEVEL: 0 DIFFERENT FILL-ORIGIN LEVEL: 0
L1I AVERAGE MISS LATENCY: 14.8292 cycles
L1I RQ	ACCESS:   14716894	FORWARD:          0	MERGED:    4118189	TO_CACHE:   10598705

BTB TOTAL     ACCESS:    6383750  HIT:    5391163  MISS:     992587  HIT %:    84.4513  MISS %:    15.5487   MPKI: 19.8517
BTB BRANCH_DIRECT_JUMP	ACCESS:     773784  HIT:     695908  MISS:      77876
BTB BRANCH_INDIRECT	ACCESS:     108782  HIT:      73994  MISS:      34788
BTB BRANCH_CONDITIONAL	ACCESS:    2979726  HIT:    2766987  MISS:     212739
BTB BRANCH_DIRECT_CALL	ACCESS:    1049282  HIT:     930755  MISS:     118527
BTB BRANCH_INDIRECT_CALL	ACCESS:     211458  HIT:     142846  MISS:      68612
BTB BRANCH_RETURN	ACCESS:    1260718  HIT:     780673  MISS:     480045
BTB BRANCH_OTHER ACCESS:          0  HIT:          0  MISS:          0

L2C TOTAL     ACCESS:    5042117  HIT:    4691553  MISS:     350564  HIT %:    93.0473  MISS %:    6.95271   MPKI: 7.01128
L2C LOAD      ACCESS:    3916481  HIT:    3726890  MISS:     189591  HIT %:    95.1591  MISS %:    4.84085   MPKI: 3.79182
L2C DATA LOAD MPKI: 2.3708
L2C INSTRUCTION LOAD MPKI: 1.42102
L2C RFO       ACCESS:     119246  HIT:      95872  MISS:      23374  HIT %:    80.3985  MISS %:    19.6015   MPKI: 0.46748
L2C PREFETCH  ACCESS:     716702  HIT:     586196  MISS:     130506  HIT %:    81.7908  MISS %:    18.2092   MPKI: 2.61012
L2C DATA PREFETCH MPKI: 2.61012
L2C INSTRUCTION PREFETCH MPKI: 0
L2C WRITEBACK ACCESS:     284650  HIT:     280329  MISS:       4321  HIT %:     98.482  MISS %:      1.518   MPKI: 0.08642
L2C LOAD TRANSLATION ACCESS:       5038  HIT:       2266  MISS:       2772  HIT %:    44.9782  MISS %:    55.0218   MPKI: 0.05544
L2C PREFETCH  REQUESTED:     550361  ISSUED:     550361  USEFUL:      49896  USELESS:      80321
L2C USEFUL LOAD PREFETCHES:      49896 PREFETCH ISSUED TO LOWER LEVEL:     132100  ACCURACY: 37.7714
L2C TIMELY PREFETCHES:      49896 LATE PREFETCHES: 1594 DROPPED PREFETCHES: 0
L2C PREFETCHES SAME FILL-ORIGIN LEVEL: 95640 DIFFERENT FILL-ORIGIN LEVEL: 0
L2C AVERAGE MISS LATENCY: 47.552 cycles
L2C RQ	ACCESS:    4040797	FORWARD:          0	MERGED:          0	TO_CACHE:    4040765
L2C WQ	ACCESS:     284651	FORWARD:         32	MERGED:          0	TO_CACHE:     284651
L2C PQ	ACCESS:     729066	FORWARD:          0	MERGED:       4616	TO_CACHE:     724450

L2C Instructions Evicting Data 30888
L2C Translations Evicting Data 2519
L2C Data Evicting Data 241755
L2C Instructions Evicting Instructions 39891
L2C Translations Evicting Instructions 230
L2C Data Evicting Instructions 28206
L2C Instructions Evicting Translations 272
L2C Translations Evicting Translations 23
L2C Data Evicting Translations 2459
L2C Dense regions hint from L2: 0
PSCL5 TOTAL     ACCESS:       4503  HIT:       4503  MISS:          0  HIT %:        100  MISS %:          0   MPKI: 0
PSCL5 LOAD TRANSLATION ACCESS:       4503  HIT:       4503  MISS:          0  HIT %:        100  MISS %:          0   MPKI: 0
PSCL5 PREFETCH  REQUESTED:          0  ISSUED:          0  USEFUL:          0  USELESS:          0
PSCL5 USEFUL LOAD PREFETCHES:          0 PREFETCH ISSUED TO LOWER LEVEL:          0  ACCURACY: -nan
PSCL5 TIMELY PREFETCHES:          0 LATE PREFETCHES: 0 DROPPED PREFETCHES: 0
PSCL5 PREFETCHES SAME FILL-ORIGIN LEVEL: 0 DIFFERENT FILL-ORIGIN LEVEL: 0

PSCL4 TOTAL     ACCESS:       4461  HIT:       4451  MISS:         10  HIT %:    99.7758  MISS %:   0.224165   MPKI: 0.0002
PSCL4 LOAD TRANSLATION ACCESS:       4461  HIT:       4451  MISS:         10  HIT %:    99.7758  MISS %:   0.224165   MPKI: 0.0002
PSCL4 PREFETCH  REQUESTED:          0  ISSUED:          0  USEFUL:          0  USELESS:          0
PSCL4 USEFUL LOAD PREFETCHES:          0 PREFETCH ISSUED TO LOWER LEVEL:          0  ACCURACY: -nan
PSCL4 TIMELY PREFETCHES:          0 LATE PREFETCHES: 0 DROPPED PREFETCHES: 0
PSCL4 PREFETCHES SAME FILL-ORIGIN LEVEL: 0 DIFFERENT FILL-ORIGIN LEVEL: 0

PSCL3 TOTAL     ACCESS:       4483  HIT:       4473  MISS:         10  HIT %:    99.7769  MISS %:   0.223065   MPKI: 0.0002
PSCL3 LOAD TRANSLATION ACCESS:       4483  HIT:       4473  MISS:         10  HIT %:    99.7769  MISS %:   0.223065   MPKI: 0.0002
PSCL3 PREFETCH  REQUESTED:          0  ISSUED:          0  USEFUL:          0  USELESS:          0
PSCL3 USEFUL LOAD PREFETCHES:          0 PREFETCH ISSUED TO LOWER LEVEL:          0  ACCURACY: -nan
PSCL3 TIMELY PREFETCHES:          0 LATE PREFETCHES: 0 DROPPED PREFETCHES: 0
PSCL3 PREFETCHES SAME FILL-ORIGIN LEVEL: 0 DIFFERENT FILL-ORIGIN LEVEL: 0

PSCL2 TOTAL     ACCESS:       4503  HIT:       3984  MISS:        519  HIT %:    88.4744  MISS %:    11.5256   MPKI: 0.01038
PSCL2 LOAD TRANSLATION ACCESS:       4503  HIT:       3984  MISS:        519  HIT %:    88.4744  MISS %:    11.5256   MPKI: 0.01038
PSCL2 PREFETCH  REQUESTED:          0  ISSUED:          0  USEFUL:          0  USELESS:          0
PSCL2 USEFUL LOAD PREFETCHES:          0 PREFETCH ISSUED TO LOWER LEVEL:          0  ACCURACY: -nan
PSCL2 TIMELY PREFETCHES:          0 LATE PREFETCHES: 0 DROPPED PREFETCHES: 0
PSCL2 PREFETCHES SAME FILL-ORIGIN LEVEL: 0 DIFFERENT FILL-ORIGIN LEVEL: 0

LLC TOTAL     ACCESS:     453620  HIT:     414759  MISS:      38861  HIT %:    91.4331  MISS %:    8.56686   MPKI: 0.77722
LLC LOAD      ACCESS:     188124  HIT:     173564  MISS:      14560  HIT %:    92.2604  MISS %:    7.73958   MPKI: 0.2912
LLC RFO       ACCESS:      23247  HIT:      19486  MISS:       3761  HIT %:    83.8216  MISS %:    16.1784   MPKI: 0.07522
LLC PREFETCH  ACCESS:     132100  HIT:     112031  MISS:      20069  HIT %:    84.8077  MISS %:    15.1923   MPKI: 0.40138
LLC WRITEBACK ACCESS:     107377  HIT:     107259  MISS:        118  HIT %:    99.8901  MISS %:   0.109893   MPKI: 0.00236
LLC LOAD TRANSLATION ACCESS:       2772  HIT:       2419  MISS:        353  HIT %:    87.2655  MISS %:    12.7345   MPKI: 0.00706
LLC PREFETCH  REQUESTED:          0  ISSUED:          0  USEFUL:       2818  USELESS:      12513
LLC USEFUL LOAD PREFETCHES:       2818 PREFETCH ISSUED TO LOWER LEVEL:      20069  ACCURACY: 14.0416
LLC TIMELY PREFETCHES:       2818 LATE PREFETCHES: 0 DROPPED PREFETCHES: 0
LLC PREFETCHES SAME FILL-ORIGIN LEVEL: 0 DIFFERENT FILL-ORIGIN LEVEL: 0
LLC AVERAGE MISS LATENCY: 162.337 cycles
LLC RQ	ACCESS:     214143	FORWARD:          0	MERGED:          0	TO_CACHE:     214143
LLC WQ	ACCESS:     107377	FORWARD:          0	MERGED:          0	TO_CACHE:     107377
LLC PQ	ACCESS:     132100	FORWARD:          0	MERGED:          0	TO_CACHE:     132100

LLC Dense regions hint to LLC: 0

RAW hits: 901933
Loads Generated: 12061095
Loads sent to L1D: 11159162
Stores Generated: 6511091
Stores sent to L1D: 6511082
Major fault: 0 Minor fault: 2442
Allocated PAGES: 2442

stream: 
stream:times selected: 468603
stream:pref_filled: 118597
stream:pref_useful: 15150
stream:pref_late: 510
stream:misses: 11921
stream:misses_by_poll: 0

CS: 
CS:times selected: 8498
CS:pref_filled: 2079
CS:pref_useful: 1521
CS:pref_late: 627
CS:misses: 138
CS:misses_by_poll: 31

CPLX: 
CPLX:times selected: 453853
CPLX:pref_filled: 83831
CPLX:pref_useful: 9001
CPLX:pref_late: 515
CPLX:misses: 51933
CPLX:misses_by_poll: 29

NL_L1: 
NL:times selected: 2120
NL:pref_filled: 1423
NL:pref_useful: 27
NL:pref_late: 9
NL:misses: 190
NL:misses_by_poll: 0

total selections: 933074
total_filled: 177032
total_useful: 23142
total_late: 2125
total_polluted: 60
total_misses_after_warmup: 642299
conflicts: 3265412
Degree Incremented Times: 0
Degree Decremented Times: 123178

L1 IP Table Write Accesses: 4364788
L1 IP Table Read Accesses: 1099376
L1 RST Write Accesses: 406138
L1 RST Read Accesses: 812276
L1 CSPT Write Accesses: 406138
L1 CSPT Read Accesses: 798653
L1 RR Filter Tag Write Accesses: 367539
L1 RR Filter Tag Read Accesses: 17679850
L1 IP Table Tag Write Accesses: 7862592
L1 IP Table Tag Read Accesses: 7862592
L1 RST Tag Write Accesses: 0
L1 RST Tag Read Accesses: 4306108
L1 RR Filter Write Accesses: 0
L1 RR Filter Read Accesses: 617193
test: 221718
L2 IP Table Read Accesses: 1026317
L2 IP Table Write Accesses: 1417109
L2 IP Table Tag Read Accesses: 790377
L2 IP Table Tag Write Accesses: 790377

DRAM Statistics
 CHANNEL 0
 RQ ROW_BUFFER_HIT:       9388  ROW_BUFFER_MISS:      29355
 DBUS_CONGESTED:      16143
 WQ ROW_BUFFER_HIT:       1741  ROW_BUFFER_MISS:      10280  FULL:          0

 AVG_CONGESTED_CYCLE: 11
 All warmup complete: 2
Channel 0 Bank busy for read cycles: 0
Channel 0 Bank busy for write cycles: 0
Channel 0
Rank 0
0banks busy for read cycles: 97328294
0banks busy for write cycles: 6649
1banks busy for read cycles: 1810030
1banks busy for write cycles: 957779
2banks busy for read cycles: 867284
2banks busy for write cycles: 233443
3banks busy for read cycles: 243706
3banks busy for write cycles: 99765
4banks busy for read cycles: 95861
4banks busy for write cycles: 49867
5banks busy for read cycles: 35347
5banks busy for write cycles: 25862
6banks busy for read cycles: 13545
6banks busy for write cycles: 15777
7banks busy for read cycles: 10495
7banks busy for write cycles: 13215
8banks busy for read cycles: 11993
8banks busy for write cycles: 28997

CPU 0 Branch Prediction Accuracy: 93.323% MPKI: 13.056 Average ROB Occupancy at Mispredict: 19.2328
Branch types
NOT_BRANCH: 40222847 80.4457%
BRANCH_DIRECT_JUMP: 773784 1.54757%
BRANCH_INDIRECT: 108782 0.217564%
BRANCH_CONDITIONAL: 6372831 12.7457%
BRANCH_DIRECT_CALL: 1049282 2.09856%
BRANCH_INDIRECT_CALL: 211458 0.422916%
BRANCH_RETURN: 1260718 2.52144%
BRANCH_OTHER: 0 0%

@sumon_overall_L1D     23142      1555    153852    177032    734376    734406
@Sumon_Early_by_class_L1D     12660      1411      7970         1
@Sumon_Late_by_class_L1D       180       623       309         1

@Sumon_Early_by_cycle_L1D      6036      4011      3150      2012      1572      2146      1294       890       160      1287       501        83
@Sumon_Late_by_cycle_L1D      1394       160         1         0         0         0         0         0         0         0         0         0
@Sumon_Early_stream_L1D      3406      2916      2781      1078        17       302       831       289        81       527       383        49
@Sumon_Early_CS_L1D       566       490        63       129        44        31         9        16        35        28         0         0
@Sumon_Early_CPLX_L1D      1678       540       226       390      1502      1798       326       584        44       732       116        34
@Sumon_Late_stream_L1D       177         2         1         0         0         0         0         0         0         0         0         0
@Sumon_Late_CS_L1D       483       140         0         0         0         0         0         0         0         0         0         0
@Sumon_Late_CPLX_L1D       291        18         0         0         0         0         0         0         0         0         0         0
@sumon_overall_L2C     49896      1594     80321    130506    550361    550361
@Sumon_Early_by_class_L2C      1917        34      1410         0
@Sumon_Late_by_class_L2C         0         0         0         0

@Sumon_Early_by_cycle_L2C      7455      5217      5703      3763      1726      6366      1782        82      1457      4538      6539      5268
@Sumon_Late_by_cycle_L2C      1358       236         0         0         0         0         0         0         0         0         0         0
@Sumon_Early_stream_L2C         0         0         0         0         0         0         0         1         3        24       643      1246
@Sumon_Early_CS_L2C         0         0         0         0         0         0         0         0         0        11        10        13
@Sumon_Early_CPLX_L2C         0         0         0         0         0         0         0         0         0        28       234      1148
@Sumon_Late_stream_L2C         0         0         0         0         0         0         0         0         0         0         0         0
@Sumon_Late_CS_L2C         0         0         0         0         0         0         0         0         0         0         0         0
@Sumon_Late_CPLX_L2C         0         0         0         0         0         0         0         0         0         0         0         0
DRAM PAGES: 1048576
Allocated PAGES: 2442
