
*** ChampSim Multicore Out-of-Order Simulator ***

Warmup Instructions: 2000000
Simulation Instructions: 5000000
Number of CPUs: 1
LLC sets: 2048
LLC ways: 16
Off-chip DRAM Size: 4096 MB Channels: 1 Width: 64-bit Data Rate: 6400 MT/s
CPU 0 runs dpc3_traces/657.xz_s-3167B.champsimtrace.xz
.xz
CPU 0 Bimodal branch predictor
BTB has LRU replacement policy
ITLB has LRU replacement policy
DTLB has LRU replacement policy
STLB has LRU replacement policy
L1I has LRU replacement policy
IP Table Entries: 256
L1D has LRU replacement policy
IP_Table L2 entries: 256
L2C has LRU replacement policy
LLC has LRU replacement policy

Warmup complete CPU 0 instructions: 2000002 cycles: 557980 (Simulation time: 0 hr 1 min 35 sec) 

Finished CPU 0 instructions: 5000001 cycles: 9013159 cumulative IPC: 0.554745 (Simulation time: 0 hr 5 min 1 sec) 

ChampSim completed all CPUs

Region of Interest Statistics

CPU 0 cumulative IPC: 0.554745 instructions: 5000001 cycles: 9013159
ITLB TOTAL     ACCESS:     751134  HIT:     751125  MISS:          9  HIT %:    99.9988  MISS %: 0.00119819   MPKI: 0.0018
ITLB LOAD TRANSLATION ACCESS:     751134  HIT:     751125  MISS:          9  HIT %:    99.9988  MISS %: 0.00119819   MPKI: 0.0018
ITLB PREFETCH  REQUESTED:          0  ISSUED:          0  USEFUL:          0  USELESS:          0
ITLB USEFUL LOAD PREFETCHES:          0 PREFETCH ISSUED TO LOWER LEVEL:          0  ACCURACY: -nan
ITLB TIMELY PREFETCHES:          0 LATE PREFETCHES: 0 DROPPED PREFETCHES: 0
ITLB PREFETCHES SAME FILL-ORIGIN LEVEL: 0 DIFFERENT FILL-ORIGIN LEVEL: 0
ITLB AVERAGE MISS LATENCY: 186.556 cycles
ITLB RQ	ACCESS:     877680	FORWARD:          0	MERGED:     126546	TO_CACHE:     751134

ITLB_Dead_block_count 5 4
ITLB_inaccurate_prefetch_count 0 0
Interactions: positive negative neutral
ITLB_interactions 0 0 0
ITLB_positive 0 0 0
ITLB_negative 0 0 0
ITLB_neutral 0 0 0 0 0 0
DTLB TOTAL     ACCESS:     964153  HIT:     943076  MISS:      21077  HIT %:    97.8139  MISS %:    2.18606   MPKI: 4.2154
DTLB LOAD TRANSLATION ACCESS:     964153  HIT:     943076  MISS:      21077  HIT %:    97.8139  MISS %:    2.18606   MPKI: 4.2154
DTLB PREFETCH  REQUESTED:          0  ISSUED:          0  USEFUL:          0  USELESS:          0
DTLB USEFUL LOAD PREFETCHES:          0 PREFETCH ISSUED TO LOWER LEVEL:          0  ACCURACY: -nan
DTLB TIMELY PREFETCHES:          0 LATE PREFETCHES: 0 DROPPED PREFETCHES: 0
DTLB PREFETCHES SAME FILL-ORIGIN LEVEL: 0 DIFFERENT FILL-ORIGIN LEVEL: 0
DTLB AVERAGE MISS LATENCY: 27.5039 cycles
DTLB RQ	ACCESS:    1144759	FORWARD:          0	MERGED:     180493	TO_CACHE:     964266

DTLB_Dead_block_count 21073 4
DTLB_inaccurate_prefetch_count 0 0
Interactions: positive negative neutral
DTLB_interactions 0 0 0
DTLB_positive 0 0 0
DTLB_negative 0 0 0
DTLB_neutral 0 0 0 0 0 0
STLB TOTAL     ACCESS:      97537  HIT:      94114  MISS:       3423  HIT %:    96.4906  MISS %:    3.50944   MPKI: 0.6846
STLB LOAD TRANSLATION ACCESS:      21086  HIT:      17664  MISS:       3422  HIT %:    83.7712  MISS %:    16.2288   MPKI: 0.6844
STLB TRANSLATION FROM L1D PREFETCHER ACCESS:      76451  HIT:      76450  MISS:          1  HIT %:    99.9987  MISS %: 0.00130803   MPKI: 0.0002
STLB PREFETCH  REQUESTED:          0  ISSUED:          0  USEFUL:          0  USELESS:          1
STLB USEFUL LOAD PREFETCHES:          0 PREFETCH ISSUED TO LOWER LEVEL:          0  ACCURACY: -nan
STLB TIMELY PREFETCHES:          0 LATE PREFETCHES: 0 DROPPED PREFETCHES: 0
STLB PREFETCHES SAME FILL-ORIGIN LEVEL: 0 DIFFERENT FILL-ORIGIN LEVEL: 0
STLB AVERAGE MISS LATENCY: 113.831 cycles
STLB RQ	ACCESS:     113604	FORWARD:          0	MERGED:      16067	TO_CACHE:      97537

STLB_Dead_block_count 3419 4
STLB_inaccurate_prefetch_count 0 0
Interactions: positive negative neutral
STLB_interactions 0 0 0
STLB_positive 0 0 0
STLB_negative 0 0 0
STLB_neutral 0 0 0 0 0 0
STLB Hit, L1D data hit: 0
STLB Hit, L2C data hit: 0
STLB Hit, LLC data hit: 0
STLB Hit, LLC data miss: 0
STLB STLB hints to L2: 0
L1D TOTAL     ACCESS:    1234320  HIT:    1184968  MISS:      49352  HIT %:    96.0017  MISS %:    3.99831   MPKI: 9.8704
L1D LOAD      ACCESS:     791093  HIT:     772695  MISS:      18398  HIT %:    97.6744  MISS %:    2.32564   MPKI: 3.6796
L1D RFO       ACCESS:     350810  HIT:     344963  MISS:       5847  HIT %:    98.3333  MISS %:    1.66671   MPKI: 1.1694
L1D PREFETCH  ACCESS:      92417  HIT:      67310  MISS:      25107  HIT %:    72.8329  MISS %:    27.1671   MPKI: 5.0214
L1D PREFETCH  REQUESTED:     185094  ISSUED:     185094  USEFUL:       3548  USELESS:      21563
L1D USEFUL LOAD PREFETCHES:       3548 PREFETCH ISSUED TO LOWER LEVEL:      25143  ACCURACY: 14.1113
L1D TIMELY PREFETCHES:       3548 LATE PREFETCHES: 35 DROPPED PREFETCHES: 0
L1D PREFETCHES SAME FILL-ORIGIN LEVEL: 25143 DIFFERENT FILL-ORIGIN LEVEL: 0
L1D AVERAGE MISS LATENCY: 3219.53 cycles
L1D RQ	ACCESS:    1147823	FORWARD:          0	MERGED:     353304	TO_CACHE:     792488
L1D WQ	ACCESS:     357048	FORWARD:       2089	MERGED:       4777	TO_CACHE:     352271
L1D PQ	ACCESS:      92576	FORWARD:          0	MERGED:          0	TO_CACHE:      92518

L1D_Dead_block_count 15 18348
L1D_inaccurate_prefetch_count 19298 5845
Interactions: positive negative neutral
L1D_interactions 10465 12464 12633
L1D_positive 5 8431 2029
L1D_negative 10750 2 1712
L1D_neutral 3238 2018 6 4 6806 561
L1D UNIQUE REGIONS ACCESSED: 0
L1D REGIONS CONFLICTS: 0
L1D Cross Page Prefetch Requests: 0
L1D Same Page Prefetch Requests: 134461
L1D ROI Sum of L1D PQ occupancy: 1202398
L1D PREFETCHES PUSHED FROM L2C: 0
L1I TOTAL     ACCESS:     877659  HIT:     877581  MISS:         78  HIT %:    99.9911  MISS %: 0.00888728   MPKI: 0.0156
L1I LOAD      ACCESS:     877659  HIT:     877581  MISS:         78  HIT %:    99.9911  MISS %: 0.00888728   MPKI: 0.0156
L1I PREFETCH  REQUESTED:          0  ISSUED:          0  USEFUL:          0  USELESS:          0
L1I USEFUL LOAD PREFETCHES:          0 PREFETCH ISSUED TO LOWER LEVEL:          0  ACCURACY: -nan
L1I TIMELY PREFETCHES:          0 LATE PREFETCHES: 0 DROPPED PREFETCHES: 0
L1I PREFETCHES SAME FILL-ORIGIN LEVEL: 0 DIFFERENT FILL-ORIGIN LEVEL: 0
L1I AVERAGE MISS LATENCY: 176.91 cycles
L1I RQ	ACCESS:    1293674	FORWARD:          0	MERGED:     415994	TO_CACHE:     877680

L1I_Dead_block_count 74 4
L1I_inaccurate_prefetch_count 0 0
Interactions: positive negative neutral
L1I_interactions 0 0 0
L1I_positive 0 0 0
L1I_negative 0 0 0
L1I_neutral 0 0 0 0 0 0
BTB TOTAL     ACCESS:     677731  HIT:     673304  MISS:       4427  HIT %:    99.3468  MISS %:   0.653209   MPKI: 0.8854
BTB BRANCH_DIRECT_JUMP	ACCESS:      44194  HIT:      44121  MISS:         73
BTB BRANCH_INDIRECT	ACCESS:       7361  HIT:       3474  MISS:       3887
BTB BRANCH_CONDITIONAL	ACCESS:     616419  HIT:     616191  MISS:        228
BTB BRANCH_DIRECT_CALL	ACCESS:       3162  HIT:       3143  MISS:         19
BTB BRANCH_INDIRECT_CALL	ACCESS:       1717  HIT:       1710  MISS:          7
BTB BRANCH_RETURN	ACCESS:       4878  HIT:       4665  MISS:        213
BTB BRANCH_OTHER ACCESS:          0  HIT:          0  MISS:          0

L2C TOTAL     ACCESS:      73889  HIT:      50213  MISS:      23676  HIT %:    67.9573  MISS %:    32.0427   MPKI: 4.7352
L2C LOAD      ACCESS:      18440  HIT:       9733  MISS:       8707  HIT %:     52.782  MISS %:     47.218   MPKI: 1.7414
L2C DATA LOAD MPKI: 1.726
L2C INSTRUCTION LOAD MPKI: 0.0154
L2C RFO       ACCESS:       5846  HIT:       3655  MISS:       2191  HIT %:    62.5214  MISS %:    37.4786   MPKI: 0.4382
L2C PREFETCH  ACCESS:      25493  HIT:      13591  MISS:      11902  HIT %:    53.3127  MISS %:    46.6873   MPKI: 2.3804
L2C DATA PREFETCH MPKI: 2.3804
L2C INSTRUCTION PREFETCH MPKI: 0
L2C WRITEBACK ACCESS:      20687  HIT:      20634  MISS:         53  HIT %:    99.7438  MISS %:     0.2562   MPKI: 0.0106
L2C LOAD TRANSLATION ACCESS:       3422  HIT:       2599  MISS:        823  HIT %:    75.9497  MISS %:    24.0503   MPKI: 0.1646
L2C TRANSLATION FROM L1D PREFETCHER ACCESS:          1  HIT:          1  MISS:          0  HIT %:        100  MISS %:          0   MPKI: 0
L2C PREFETCH  REQUESTED:        373  ISSUED:        373  USEFUL:       1131  USELESS:      10365
L2C USEFUL LOAD PREFETCHES:       1131 PREFETCH ISSUED TO LOWER LEVEL:      11904  ACCURACY: 9.50101
L2C TIMELY PREFETCHES:       1131 LATE PREFETCHES: 2 DROPPED PREFETCHES: 0
L2C PREFETCHES SAME FILL-ORIGIN LEVEL: 61 DIFFERENT FILL-ORIGIN LEVEL: 0
L2C AVERAGE MISS LATENCY: 165.86 cycles
L2C RQ	ACCESS:      27710	FORWARD:          0	MERGED:          0	TO_CACHE:      27709
L2C WQ	ACCESS:      20687	FORWARD:          1	MERGED:          0	TO_CACHE:      20687
L2C PQ	ACCESS:      25516	FORWARD:          0	MERGED:         19	TO_CACHE:      25497

L2C_Dead_block_count 5362 6357
L2C_inaccurate_prefetch_count 10188 1716
Interactions: positive negative neutral
L2C_interactions 2766 3495 10762
L2C_positive 122 2481 163
L2C_negative 2994 165 336
L2C_neutral 121 163 3444 2312 4714 8
L2C Instructions Evicting Data 64
L2C Translations Evicting Data 702
L2C Data Evicting Data 20055
L2C Instructions Evicting Instructions 0
L2C Translations Evicting Instructions 16
L2C Data Evicting Instructions 259
L2C Instructions Evicting Translations 5
L2C Translations Evicting Translations 30
L2C Data Evicting Translations 1025
L2C Dense regions hint from L2: 0
PSCL5 TOTAL     ACCESS:       3423  HIT:       3423  MISS:          0  HIT %:        100  MISS %:          0   MPKI: 0
PSCL5 LOAD TRANSLATION ACCESS:       3422  HIT:       3422  MISS:          0  HIT %:        100  MISS %:          0   MPKI: 0
PSCL5 TRANSLATION FROM L1D PREFETCHER ACCESS:          1  HIT:          1  MISS:          0  HIT %:        100  MISS %:          0   MPKI: 0
PSCL5 PREFETCH  REQUESTED:          0  ISSUED:          0  USEFUL:          0  USELESS:          0
PSCL5 USEFUL LOAD PREFETCHES:          0 PREFETCH ISSUED TO LOWER LEVEL:          0  ACCURACY: -nan
PSCL5 TIMELY PREFETCHES:          0 LATE PREFETCHES: 0 DROPPED PREFETCHES: 0
PSCL5 PREFETCHES SAME FILL-ORIGIN LEVEL: 0 DIFFERENT FILL-ORIGIN LEVEL: 0

PSCL5_Dead_block_count 0 0
PSCL5_inaccurate_prefetch_count 0 0
Interactions: positive negative neutral
PSCL5_interactions 0 0 0
PSCL5_positive 0 0 0
PSCL5_negative 0 0 0
PSCL5_neutral 0 0 0 0 0 0
PSCL4 TOTAL     ACCESS:       3423  HIT:       3423  MISS:          0  HIT %:        100  MISS %:          0   MPKI: 0
PSCL4 LOAD TRANSLATION ACCESS:       3422  HIT:       3422  MISS:          0  HIT %:        100  MISS %:          0   MPKI: 0
PSCL4 TRANSLATION FROM L1D PREFETCHER ACCESS:          1  HIT:          1  MISS:          0  HIT %:        100  MISS %:          0   MPKI: 0
PSCL4 PREFETCH  REQUESTED:          0  ISSUED:          0  USEFUL:          0  USELESS:          0
PSCL4 USEFUL LOAD PREFETCHES:          0 PREFETCH ISSUED TO LOWER LEVEL:          0  ACCURACY: -nan
PSCL4 TIMELY PREFETCHES:          0 LATE PREFETCHES: 0 DROPPED PREFETCHES: 0
PSCL4 PREFETCHES SAME FILL-ORIGIN LEVEL: 0 DIFFERENT FILL-ORIGIN LEVEL: 0

PSCL4_Dead_block_count 0 0
PSCL4_inaccurate_prefetch_count 0 0
Interactions: positive negative neutral
PSCL4_interactions 0 0 0
PSCL4_positive 0 0 0
PSCL4_negative 0 0 0
PSCL4_neutral 0 0 0 0 0 0
PSCL3 TOTAL     ACCESS:       3423  HIT:       3422  MISS:          1  HIT %:    99.9708  MISS %:  0.0292141   MPKI: 0.0002
PSCL3 LOAD TRANSLATION ACCESS:       3422  HIT:       3421  MISS:          1  HIT %:    99.9708  MISS %:  0.0292227   MPKI: 0.0002
PSCL3 TRANSLATION FROM L1D PREFETCHER ACCESS:          1  HIT:          1  MISS:          0  HIT %:        100  MISS %:          0   MPKI: 0
PSCL3 PREFETCH  REQUESTED:          0  ISSUED:          0  USEFUL:          0  USELESS:          0
PSCL3 USEFUL LOAD PREFETCHES:          0 PREFETCH ISSUED TO LOWER LEVEL:          0  ACCURACY: -nan
PSCL3 TIMELY PREFETCHES:          0 LATE PREFETCHES: 0 DROPPED PREFETCHES: 0
PSCL3 PREFETCHES SAME FILL-ORIGIN LEVEL: 0 DIFFERENT FILL-ORIGIN LEVEL: 0

PSCL3_Dead_block_count 0 0
PSCL3_inaccurate_prefetch_count 0 0
Interactions: positive negative neutral
PSCL3_interactions 0 0 0
PSCL3_positive 0 0 0
PSCL3_negative 0 0 0
PSCL3_neutral 0 0 0 0 0 0
PSCL2 TOTAL     ACCESS:       3423  HIT:       3421  MISS:          2  HIT %:    99.9416  MISS %:  0.0584283   MPKI: 0.0004
PSCL2 LOAD TRANSLATION ACCESS:       3422  HIT:       3420  MISS:          2  HIT %:    99.9416  MISS %:  0.0584454   MPKI: 0.0004
PSCL2 TRANSLATION FROM L1D PREFETCHER ACCESS:          1  HIT:          1  MISS:          0  HIT %:        100  MISS %:          0   MPKI: 0
PSCL2 PREFETCH  REQUESTED:          0  ISSUED:          0  USEFUL:          0  USELESS:          0
PSCL2 USEFUL LOAD PREFETCHES:          0 PREFETCH ISSUED TO LOWER LEVEL:          0  ACCURACY: -nan
PSCL2 TIMELY PREFETCHES:          0 LATE PREFETCHES: 0 DROPPED PREFETCHES: 0
PSCL2 PREFETCHES SAME FILL-ORIGIN LEVEL: 0 DIFFERENT FILL-ORIGIN LEVEL: 0

PSCL2_Dead_block_count 0 0
PSCL2_inaccurate_prefetch_count 0 0
Interactions: positive negative neutral
PSCL2_interactions 0 0 0
PSCL2_positive 0 0 0
PSCL2_negative 0 0 0
PSCL2_neutral 0 0 0 0 0 0
LLC TOTAL     ACCESS:      31886  HIT:      12520  MISS:      19366  HIT %:    39.2649  MISS %:    60.7351   MPKI: 3.8732
LLC LOAD      ACCESS:       8705  HIT:       1433  MISS:       7272  HIT %:    16.4618  MISS %:    83.5382   MPKI: 1.4544
LLC RFO       ACCESS:       2191  HIT:        481  MISS:       1710  HIT %:    21.9534  MISS %:    78.0466   MPKI: 0.342
LLC PREFETCH  ACCESS:      11904  HIT:       1849  MISS:      10055  HIT %:    15.5326  MISS %:    84.4674   MPKI: 2.011
LLC WRITEBACK ACCESS:       8263  HIT:       8254  MISS:          9  HIT %:    99.8911  MISS %:   0.108919   MPKI: 0.0018
LLC LOAD TRANSLATION ACCESS:        823  HIT:        503  MISS:        320  HIT %:    61.1179  MISS %:    38.8821   MPKI: 0.064
LLC PREFETCH  REQUESTED:          0  ISSUED:          0  USEFUL:        536  USELESS:        440
LLC USEFUL LOAD PREFETCHES:        536 PREFETCH ISSUED TO LOWER LEVEL:      10055  ACCURACY: 5.33068
LLC TIMELY PREFETCHES:        536 LATE PREFETCHES: 0 DROPPED PREFETCHES: 0
LLC PREFETCHES SAME FILL-ORIGIN LEVEL: 0 DIFFERENT FILL-ORIGIN LEVEL: 0
LLC AVERAGE MISS LATENCY: 164.689 cycles
LLC RQ	ACCESS:      11719	FORWARD:          0	MERGED:          0	TO_CACHE:      11719
LLC WQ	ACCESS:       8263	FORWARD:          0	MERGED:          0	TO_CACHE:       8263
LLC PQ	ACCESS:      11904	FORWARD:          0	MERGED:          0	TO_CACHE:      11904

LLC_Dead_block_count 7068 2234
LLC_inaccurate_prefetch_count 1303 8752
Interactions: positive negative neutral
LLC_interactions 40 9489 731
LLC_positive 5 31 4
LLC_negative 9379 51 59
LLC_neutral 236 10 204 113 167 1
LLC Dense regions hint to LLC: 0

RAW hits: 43535
Loads Generated: 1191359
Loads sent to L1D: 1147823
Stores Generated: 357047
Stores sent to L1D: 357048
Major fault: 0 Minor fault: 3602
Allocated PAGES: 3602

stream: 
stream:times selected: 201831
stream:pref_filled: 20183
stream:pref_useful: 2217
stream:pref_late: 32
stream:misses: 3410
stream:misses_by_poll: 0

CS: 
CS:times selected: 20333
CS:pref_filled: 1755
CS:pref_useful: 1194
CS:pref_late: 0
CS:misses: 168
CS:misses_by_poll: 2

CPLX: 
CPLX:times selected: 180560
CPLX:pref_filled: 8638
CPLX:pref_useful: 846
CPLX:pref_late: 3
CPLX:misses: 15729
CPLX:misses_by_poll: 26

NL_L1: 
NL:times selected: 1407
NL:pref_filled: 228
NL:pref_useful: 23
NL:pref_late: 1
NL:misses: 205
NL:misses_by_poll: 0

total selections: 404131
total_filled: 25107
total_useful: 3548
total_late: 40
total_polluted: 28
total_misses_after_warmup: 19792
conflicts: 26915
Degree Incremented Times: 0
Degree Decremented Times: 8102

L1 IP Table Write Accesses: 735002
L1 IP Table Read Accesses: 708087
L1 RST Write Accesses: 147442
L1 RST Read Accesses: 294884
L1 CSPT Write Accesses: 147442
L1 CSPT Read Accesses: 282941
L1 RR Filter Tag Write Accesses: 92576
L1 RR Filter Tag Read Accesses: 5455010
L1 IP Table Tag Write Accesses: 792487
L1 IP Table Tag Read Accesses: 792487
L1 RST Tag Write Accesses: 0
L1 RST Tag Read Accesses: 1443570
L1 RR Filter Write Accesses: 0
L1 RR Filter Read Accesses: 218004
test: 58560
L2 IP Table Read Accesses: 86593
L2 IP Table Write Accesses: 68693
L2 IP Table Tag Read Accesses: 43484
L2 IP Table Tag Write Accesses: 43484

DRAM Statistics
 CHANNEL 0
 RQ ROW_BUFFER_HIT:       2239  ROW_BUFFER_MISS:      17118
 DBUS_CONGESTED:          0
 WQ ROW_BUFFER_HIT:         35  ROW_BUFFER_MISS:        257  FULL:          0

 AVG_CONGESTED_CYCLE: -
 All warmup complete: 2
Channel 0 Bank busy for read cycles: 0
Channel 0 Bank busy for write cycles: 0
Channel 0
Rank 0
0banks busy for read cycles: 7311649
0banks busy for write cycles: 272
1banks busy for read cycles: 924673
1banks busy for write cycles: 45200
2banks busy for read cycles: 514370
2banks busy for write cycles: 2717
3banks busy for read cycles: 151741
3banks busy for write cycles: 32
4banks busy for read cycles: 46398
4banks busy for write cycles: 0
5banks busy for read cycles: 12171
5banks busy for write cycles: 0
6banks busy for read cycles: 3146
6banks busy for write cycles: 0
7banks busy for read cycles: 633
7banks busy for write cycles: 0
8banks busy for read cycles: 158
8banks busy for write cycles: 0

CPU 0 Branch Prediction Accuracy: 91.2696% MPKI: 12.4602 Average ROB Occupancy at Mispredict: 22.7364
Branch types
NOT_BRANCH: 4286032 85.7206%
BRANCH_DIRECT_JUMP: 44194 0.88388%
BRANCH_INDIRECT: 7361 0.14722%
BRANCH_CONDITIONAL: 652294 13.0459%
BRANCH_DIRECT_CALL: 3162 0.06324%
BRANCH_INDIRECT_CALL: 1717 0.03434%
BRANCH_RETURN: 4878 0.09756%
BRANCH_OTHER: 0 0%

@sumon_overall_L1D      3548        35     21563     25107    185094    185094
@Sumon_Early_by_class_L1D      1812      1009       706         1
@Sumon_Late_by_class_L1D        29         0         2         1

@Sumon_Early_by_cycle_L1D       102        68       162        70        62       259       416       473       522       545       476       393
@Sumon_Late_by_cycle_L1D        24        10         1         0         0         0         0         0         0         0         0         0
@Sumon_Early_stream_L1D        84        52        30        54        48       151       186       276       191       297       265       178
@Sumon_Early_CS_L1D         5         9       127         9         7        67       171       137       258       104        32        83
@Sumon_Early_CPLX_L1D        12         7         4         7         7        38        57        58        70       141       175       130
@Sumon_Late_stream_L1D        20         8         1         0         0         0         0         0         0         0         0         0
@Sumon_Late_CS_L1D         0         0         0         0         0         0         0         0         0         0         0         0
@Sumon_Late_CPLX_L1D         1         1         0         0         0         0         0         0         0         0         0         0
@sumon_overall_L2C      1131         2     10365     11902       373       373
@Sumon_Early_by_class_L2C       664        67       358         0
@Sumon_Late_by_class_L2C         0         0         0         0

@Sumon_Early_by_cycle_L2C         1         2         1         2         1         1         1         3         2         6        30      1081
@Sumon_Late_by_cycle_L2C         2         0         0         0         0         0         0         0         0         0         0         0
@Sumon_Early_stream_L2C         0         0         0         0         0         0         0         0         0         2        15       647
@Sumon_Early_CS_L2C         0         0         0         0         0         0         0         0         0         0         0        67
@Sumon_Early_CPLX_L2C         0         0         0         0         0         0         0         0         0         2        15       341
@Sumon_Late_stream_L2C         0         0         0         0         0         0         0         0         0         0         0         0
@Sumon_Late_CS_L2C         0         0         0         0         0         0         0         0         0         0         0         0
@Sumon_Late_CPLX_L2C         0         0         0         0         0         0         0         0         0         0         0         0
DRAM PAGES: 1048576
Allocated PAGES: 3602
