Initialize SIGNATURE TABLE
ST_SET: 1
ST_WAY: 256
ST_TAG_BIT: 16
ST_TAG_MASK: ffff

Initialize PATTERN TABLE
PT_SET: 512
PT_WAY: 4
SIG_DELTA_BIT: 7
C_SIG_BIT: 4
C_DELTA_BIT: 4

Initialize PREFETCH FILTER
FILTER_SET: 1024

*** ChampSim Multicore Out-of-Order Simulator ***

Warmup Instructions: 10000000
Simulation Instructions: 50000000
Number of CPUs: 1
LLC sets: 2048
LLC ways: 16
Off-chip DRAM Size: 4096 MB Channels: 1 Width: 64-bit Data Rate: 1600 MT/s
CPU 0 runs traces/SPEC2017/602.gcc_s-2226B.champsimtrace.xz
.xz
CPU 0 Bimodal branch predictor
BTB has LRU replacement policy
ITLB has LRU replacement policy
DTLB has LRU replacement policy
STLB has LRU replacement policy
L1I has LRU replacement policy
L1D has LRU replacement policy
ST_WAYS: 256
PT_SETS: 512
L2C has LRU replacement policy
LLC has LRU replacement policy
Heartbeat CPU 0 instructions: 10000002 cycles: 3747258 heartbeat IPC: 2.66862 cumulative IPC: 2.66862 (Simulation time: 0 hr 12 min 59 sec) 

Warmup complete CPU 0 instructions: 10000002 cycles: 3747258 (Simulation time: 0 hr 12 min 59 sec) 

Heartbeat CPU 0 instructions: 20000000 cycles: 44357637 heartbeat IPC: 0.246242 cumulative IPC: 0.246242 (Simulation time: 0 hr 35 min 14 sec) 
Heartbeat CPU 0 instructions: 30000001 cycles: 84476009 heartbeat IPC: 0.249262 cumulative IPC: 0.247743 (Simulation time: 0 hr 55 min 14 sec) 
Heartbeat CPU 0 instructions: 40000002 cycles: 124178371 heartbeat IPC: 0.251874 cumulative IPC: 0.249105 (Simulation time: 1 hr 10 min 36 sec) 
Heartbeat CPU 0 instructions: 50000000 cycles: 163295336 heartbeat IPC: 0.255644 cumulative IPC: 0.250708 (Simulation time: 1 hr 18 min 18 sec) 
Heartbeat CPU 0 instructions: 60000002 cycles: 202566881 heartbeat IPC: 0.254637 cumulative IPC: 0.251484 (Simulation time: 1 hr 22 min 58 sec) 
Finished CPU 0 instructions: 50000000 cycles: 198819623 cumulative IPC: 0.251484 (Simulation time: 1 hr 22 min 58 sec) 

ChampSim completed all CPUs

Region of Interest Statistics

CPU 0 cumulative IPC: 0.251484 instructions: 50000000 cycles: 198819623
ITLB TOTAL     ACCESS:   10630115  HIT:   10630115  MISS:          0  HIT %:        100  MISS %:          0   MPKI: 0
ITLB LOAD TRANSLATION ACCESS:   10630115  HIT:   10630115  MISS:          0  HIT %:        100  MISS %:          0   MPKI: 0
ITLB PREFETCH  REQUESTED:          0  ISSUED:          0  USEFUL:          0  USELESS:          0
ITLB USEFUL LOAD PREFETCHES:          0 PREFETCH ISSUED TO LOWER LEVEL:          0  ACCURACY: -nan
ITLB TIMELY PREFETCHES:          0 LATE PREFETCHES: 0 DROPPED PREFETCHES: 0
ITLB PREFETCHES SAME FILL-ORIGIN LEVEL: 0 DIFFERENT FILL-ORIGIN LEVEL: 0
ITLB AVERAGE MISS LATENCY: -nan cycles
ITLB RQ	ACCESS:   10804948	FORWARD:          0	MERGED:     174833	TO_CACHE:   10630115

DTLB TOTAL     ACCESS:    7725532  HIT:    7656475  MISS:      69057  HIT %:    99.1061  MISS %:    0.89388   MPKI: 1.38114
DTLB LOAD TRANSLATION ACCESS:    7725532  HIT:    7656475  MISS:      69057  HIT %:    99.1061  MISS %:    0.89388   MPKI: 1.38114
DTLB PREFETCH  REQUESTED:          0  ISSUED:          0  USEFUL:          0  USELESS:          0
DTLB USEFUL LOAD PREFETCHES:          0 PREFETCH ISSUED TO LOWER LEVEL:          0  ACCURACY: -nan
DTLB TIMELY PREFETCHES:          0 LATE PREFETCHES: 0 DROPPED PREFETCHES: 0
DTLB PREFETCHES SAME FILL-ORIGIN LEVEL: 0 DIFFERENT FILL-ORIGIN LEVEL: 0
DTLB AVERAGE MISS LATENCY: 116.031 cycles
DTLB RQ	ACCESS:    9092565	FORWARD:          0	MERGED:    1366797	TO_CACHE:    7725768

STLB TOTAL     ACCESS:      69057  HIT:       2562  MISS:      66495  HIT %:    3.70998  MISS %:      96.29   MPKI: 1.3299
STLB LOAD TRANSLATION ACCESS:      69057  HIT:       2562  MISS:      66495  HIT %:    3.70998  MISS %:      96.29   MPKI: 1.3299
STLB PREFETCH  REQUESTED:          0  ISSUED:          0  USEFUL:          0  USELESS:          0
STLB USEFUL LOAD PREFETCHES:          0 PREFETCH ISSUED TO LOWER LEVEL:          0  ACCURACY: -nan
STLB TIMELY PREFETCHES:          0 LATE PREFETCHES: 0 DROPPED PREFETCHES: 0
STLB PREFETCHES SAME FILL-ORIGIN LEVEL: 0 DIFFERENT FILL-ORIGIN LEVEL: 0
STLB AVERAGE MISS LATENCY: 111.139 cycles
STLB RQ	ACCESS:      69057	FORWARD:          0	MERGED:          0	TO_CACHE:      69057

STLB Hit, L1D data hit: 0
STLB Hit, L2C data hit: 0
STLB Hit, LLC data hit: 0
STLB Hit, LLC data miss: 0
STLB STLB hints to L2: 0
L1D TOTAL     ACCESS:    7851684  HIT:    4347175  MISS:    3504509  HIT %:    55.3661  MISS %:    44.6339   MPKI: 70.0902
L1D LOAD      ACCESS:    7197506  HIT:    3694359  MISS:    3503147  HIT %:    51.3283  MISS %:    48.6717   MPKI: 70.0629
L1D RFO       ACCESS:     654178  HIT:     652816  MISS:       1362  HIT %:    99.7918  MISS %:     0.2082   MPKI: 0.02724
L1D PREFETCH  REQUESTED:          0  ISSUED:          0  USEFUL:          0  USELESS:          0
L1D USEFUL LOAD PREFETCHES:          0 PREFETCH ISSUED TO LOWER LEVEL:          0  ACCURACY: -nan
L1D TIMELY PREFETCHES:          0 LATE PREFETCHES: 0 DROPPED PREFETCHES: 0
L1D PREFETCHES SAME FILL-ORIGIN LEVEL: 0 DIFFERENT FILL-ORIGIN LEVEL: 0
L1D AVERAGE MISS LATENCY: 28.6373 cycles
L1D RQ	ACCESS:   17944822	FORWARD:          0	MERGED:    9504874	TO_CACHE:    8438383
L1D WQ	ACCESS:     726008	FORWARD:       1565	MERGED:      71826	TO_CACHE:     654182

L1D UNIQUE REGIONS ACCESSED: 0
L1D REGIONS CONFLICTS: 0
L1D Cross Page Prefetch Requests: 0
L1D Same Page Prefetch Requests: 0
L1D ROI Sum of L1D PQ occupancy: 0
L1D PREFETCHES PUSHED FROM L2C: 0
L1I TOTAL     ACCESS:   10804947  HIT:   10804947  MISS:          0  HIT %:        100  MISS %:          0   MPKI: 0
L1I LOAD      ACCESS:   10804947  HIT:   10804947  MISS:          0  HIT %:        100  MISS %:          0   MPKI: 0
L1I PREFETCH  REQUESTED:          0  ISSUED:          0  USEFUL:          0  USELESS:          0
L1I USEFUL LOAD PREFETCHES:          0 PREFETCH ISSUED TO LOWER LEVEL:          0  ACCURACY: -nan
L1I TIMELY PREFETCHES:          0 LATE PREFETCHES: 0 DROPPED PREFETCHES: 0
L1I PREFETCHES SAME FILL-ORIGIN LEVEL: 0 DIFFERENT FILL-ORIGIN LEVEL: 0
L1I AVERAGE MISS LATENCY: -nan cycles
L1I RQ	ACCESS:   15895902	FORWARD:          0	MERGED:    5090954	TO_CACHE:   10804948

BTB TOTAL     ACCESS:   11916742  HIT:   11916644  MISS:         98  HIT %:    99.9992  MISS %: 0.000822372   MPKI: 0.00196
BTB BRANCH_DIRECT_JUMP	ACCESS:     169060  HIT:     169034  MISS:         26
BTB BRANCH_INDIRECT	ACCESS:          0  HIT:          0  MISS:          0
BTB BRANCH_CONDITIONAL	ACCESS:   11581018  HIT:   11580969  MISS:         49
BTB BRANCH_DIRECT_CALL	ACCESS:      83332  HIT:      83322  MISS:         10
BTB BRANCH_INDIRECT_CALL	ACCESS:          0  HIT:          0  MISS:          0
BTB BRANCH_RETURN	ACCESS:      83332  HIT:      83319  MISS:         13
BTB BRANCH_OTHER ACCESS:          0  HIT:          0  MISS:          0

L2C TOTAL     ACCESS:    5181712  HIT:    1654925  MISS:    3526787  HIT %:    31.9378  MISS %:    68.0622   MPKI: 70.5357
L2C LOAD      ACCESS:    3503145  HIT:    1580017  MISS:    1923128  HIT %:    45.1028  MISS %:    54.8972   MPKI: 38.4626
L2C DATA LOAD MPKI: 38.4626
L2C INSTRUCTION LOAD MPKI: 0
L2C RFO       ACCESS:       1362  HIT:         93  MISS:       1269  HIT %:    6.82819  MISS %:    93.1718   MPKI: 0.02538
L2C PREFETCH  ACCESS:    1603817  HIT:      17249  MISS:    1586568  HIT %:     1.0755  MISS %:    98.9245   MPKI: 31.7314
L2C DATA PREFETCH MPKI: 31.7314
L2C INSTRUCTION PREFETCH MPKI: 0
L2C WRITEBACK ACCESS:       5689  HIT:       5677  MISS:         12  HIT %:    99.7891  MISS %:   0.210933   MPKI: 0.00024
L2C LOAD TRANSLATION ACCESS:      67699  HIT:      51889  MISS:      15810  HIT %:    76.6466  MISS %:    23.3534   MPKI: 0.3162
L2C PREFETCH  REQUESTED:   34851789  ISSUED:   34767316  USEFUL:    1578482  USELESS:       8078
L2C USEFUL LOAD PREFETCHES:    1578482 PREFETCH ISSUED TO LOWER LEVEL:   34542456  ACCURACY: 4.56969
L2C TIMELY PREFETCHES:    1578482 LATE PREFETCHES: 933890 DROPPED PREFETCHES: 0
L2C PREFETCHES SAME FILL-ORIGIN LEVEL: 2520458 DIFFERENT FILL-ORIGIN LEVEL: 32021998
L2C AVERAGE MISS LATENCY: 31.6483 cycles
L2C RQ	ACCESS:    3572208	FORWARD:          0	MERGED:          0	TO_CACHE:    3572206
L2C WQ	ACCESS:       5689	FORWARD:          2	MERGED:          0	TO_CACHE:       5689
L2C PQ	ACCESS:   34767316	FORWARD:          0	MERGED:     194578	TO_CACHE:   34572738

L2C Instructions Evicting Data 0
L2C Translations Evicting Data 15757
L2C Data Evicting Data 3495213
L2C Instructions Evicting Instructions 0
L2C Translations Evicting Instructions 0
L2C Data Evicting Instructions 0
L2C Instructions Evicting Translations 0
L2C Translations Evicting Translations 53
L2C Data Evicting Translations 15752
L2C Dense regions hint from L2: 0
PSCL5 TOTAL     ACCESS:      66495  HIT:      66495  MISS:          0  HIT %:        100  MISS %:          0   MPKI: 0
PSCL5 LOAD TRANSLATION ACCESS:      66495  HIT:      66495  MISS:          0  HIT %:        100  MISS %:          0   MPKI: 0
PSCL5 PREFETCH  REQUESTED:          0  ISSUED:          0  USEFUL:          0  USELESS:          0
PSCL5 USEFUL LOAD PREFETCHES:          0 PREFETCH ISSUED TO LOWER LEVEL:          0  ACCURACY: -nan
PSCL5 TIMELY PREFETCHES:          0 LATE PREFETCHES: 0 DROPPED PREFETCHES: 0
PSCL5 PREFETCHES SAME FILL-ORIGIN LEVEL: 0 DIFFERENT FILL-ORIGIN LEVEL: 0

PSCL4 TOTAL     ACCESS:      66495  HIT:      66495  MISS:          0  HIT %:        100  MISS %:          0   MPKI: 0
PSCL4 LOAD TRANSLATION ACCESS:      66495  HIT:      66495  MISS:          0  HIT %:        100  MISS %:          0   MPKI: 0
PSCL4 PREFETCH  REQUESTED:          0  ISSUED:          0  USEFUL:          0  USELESS:          0
PSCL4 USEFUL LOAD PREFETCHES:          0 PREFETCH ISSUED TO LOWER LEVEL:          0  ACCURACY: -nan
PSCL4 TIMELY PREFETCHES:          0 LATE PREFETCHES: 0 DROPPED PREFETCHES: 0
PSCL4 PREFETCHES SAME FILL-ORIGIN LEVEL: 0 DIFFERENT FILL-ORIGIN LEVEL: 0

PSCL3 TOTAL     ACCESS:      66493  HIT:      66486  MISS:          7  HIT %:    99.9895  MISS %:  0.0105274   MPKI: 0.00014
PSCL3 LOAD TRANSLATION ACCESS:      66493  HIT:      66486  MISS:          7  HIT %:    99.9895  MISS %:  0.0105274   MPKI: 0.00014
PSCL3 PREFETCH  REQUESTED:          0  ISSUED:          0  USEFUL:          0  USELESS:          0
PSCL3 USEFUL LOAD PREFETCHES:          0 PREFETCH ISSUED TO LOWER LEVEL:          0  ACCURACY: -nan
PSCL3 TIMELY PREFETCHES:          0 LATE PREFETCHES: 0 DROPPED PREFETCHES: 0
PSCL3 PREFETCHES SAME FILL-ORIGIN LEVEL: 0 DIFFERENT FILL-ORIGIN LEVEL: 0

PSCL2 TOTAL     ACCESS:      66495  HIT:      64870  MISS:       1625  HIT %:    97.5562  MISS %:    2.44379   MPKI: 0.0325
PSCL2 LOAD TRANSLATION ACCESS:      66495  HIT:      64870  MISS:       1625  HIT %:    97.5562  MISS %:    2.44379   MPKI: 0.0325
PSCL2 PREFETCH  REQUESTED:          0  ISSUED:          0  USEFUL:          0  USELESS:          0
PSCL2 USEFUL LOAD PREFETCHES:          0 PREFETCH ISSUED TO LOWER LEVEL:          0  ACCURACY: -nan
PSCL2 TIMELY PREFETCHES:          0 LATE PREFETCHES: 0 DROPPED PREFETCHES: 0
PSCL2 PREFETCHES SAME FILL-ORIGIN LEVEL: 0 DIFFERENT FILL-ORIGIN LEVEL: 0

LLC TOTAL     ACCESS:   32474354  HIT:   28834139  MISS:    3640215  HIT %:    88.7905  MISS %:    11.2095   MPKI: 72.8043
LLC LOAD      ACCESS:     989238  HIT:     883812  MISS:     105426  HIT %:    89.3427  MISS %:    10.6573   MPKI: 2.10852
LLC RFO       ACCESS:       1269  HIT:        645  MISS:        624  HIT %:    50.8274  MISS %:    49.1726   MPKI: 0.01248
LLC PREFETCH  ACCESS:   31462349  HIT:   27943247  MISS:    3519102  HIT %:    88.8149  MISS %:    11.1851   MPKI: 70.382
LLC WRITEBACK ACCESS:       5688  HIT:       5676  MISS:         12  HIT %:     99.789  MISS %:    0.21097   MPKI: 0.00024
LLC LOAD TRANSLATION ACCESS:      15810  HIT:        759  MISS:      15051  HIT %:    4.80076  MISS %:    95.1992   MPKI: 0.30102
LLC PREFETCH  REQUESTED:          0  ISSUED:          0  USEFUL:     884369  USELESS:    2617642
LLC USEFUL LOAD PREFETCHES:     884369 PREFETCH ISSUED TO LOWER LEVEL:    3521061  ACCURACY: 25.1165
LLC TIMELY PREFETCHES:     884369 LATE PREFETCHES: 1959 DROPPED PREFETCHES: 0
LLC PREFETCHES SAME FILL-ORIGIN LEVEL: 3476233 DIFFERENT FILL-ORIGIN LEVEL: 0
LLC AVERAGE MISS LATENCY: 98.8578 cycles
LLC RQ	ACCESS:    1006317	FORWARD:          0	MERGED:          0	TO_CACHE:    1006317
LLC WQ	ACCESS:       5688	FORWARD:          0	MERGED:          0	TO_CACHE:       5688
LLC PQ	ACCESS:   34542456	FORWARD:          0	MERGED:      23560	TO_CACHE:   34518896

LLC Dense regions hint to LLC: 0

RAW hits: 4014
Loads Generated: 17948839
Loads sent to L1D: 17944822
Stores Generated: 726008
Stores sent to L1D: 726008
Major fault: 0 Minor fault: 48862
Allocated PAGES: 48862
 All Calls: 4198183
 Critical Calls: 4198183
------------------
Depth Distribution
------------------
depth 0: 0
depth 1: 4087836
depth 2: 4014839
depth 3: 3942180
depth 4: 3871147
depth 5: 3795727
depth 6: 3714645
depth 7: 3620800
depth 8: 3521440
depth 9: 3012986
depth 10: 2725330
depth 11: 2239480
depth 12: 1461160
depth 13: 889180
depth 14: 126088
depth 15: 121090
depth 16: 2
depth 17: 0
depth 18: 0
depth 19: 0
depth 20: 0
depth 21: 0
depth 22: 0
depth 23: 0
depth 24: 0
depth 25: 0
depth 26: 0
depth 27: 0
depth 28: 0
depth 29: 0
Total: 41143930
-----------------------------
-----------------------------
	Captured at Filter
-----------------------------
depth 0: 0
depth 1: 29984
depth 2: 26863
depth 3: 26446
depth 4: 26020
depth 5: 25539
depth 6: 25102
depth 7: 24555
depth 8: 23970
depth 9: 20686
depth 10: 18613
depth 11: 15398
depth 12: 10179
depth 13: 6282
depth 14: 898
depth 15: 864
depth 16: 0
depth 17: 0
depth 18: 0
depth 19: 0
depth 20: 0
depth 21: 0
depth 22: 0
depth 23: 0
depth 24: 0
depth 25: 0
depth 26: 0
depth 27: 0
depth 28: 0
depth 29: 0
-----------------------------
-----------------------------
		Lost at Page
-----------------------------
depth 0: 0
depth 1: 65467
depth 2: 130514
depth 3: 195527
depth 4: 260524
depth 5: 325450
depth 6: 389949
depth 7: 453496
depth 8: 515040
depth 9: 506272
depth 10: 519808
depth 11: 480029
depth 12: 351112
depth 13: 238288
depth 14: 37654
depth 15: 40170
depth 16: 0
depth 17: 0
depth 18: 0
depth 19: 0
depth 20: 0
depth 21: 0
depth 22: 0
depth 23: 0
depth 24: 0
depth 25: 0
depth 26: 0
depth 27: 0
depth 28: 0
depth 29: 0
-----------------------------
-----------------------------
	Lost due to PQ Size
-----------------------------
464934
-----------------------------
ST read accesses: 3436849
ST write accesses: 66296
PT read accesses: 211879248
PT write accesses: 5139771
FILTER read accesses: 42115976
FILTER write accesses: 8579768
GHR read accesses: 16941604
GHR write accesses: 3789115
GHR counter read accesses: 176514258
GHR counter write accesses: 8563145
ST tag read accesses: 1381124316
ST tag write accesses: 21109522

DRAM Statistics
 CHANNEL 0
 RQ ROW_BUFFER_HIT:    3425079  ROW_BUFFER_MISS:     215124
 DBUS_CONGESTED:    1835672
 WQ ROW_BUFFER_HIT:        872  ROW_BUFFER_MISS:       4811  FULL:          0

 AVG_CONGESTED_CYCLE: 14
 All warmup complete: 2
Channel 0 Bank busy for read cycles: 0
Channel 0 Bank busy for write cycles: 0
Channel 0
Rank 0
0banks busy for read cycles: 96413990
0banks busy for write cycles: 3137
1banks busy for read cycles: 31926178
1banks busy for write cycles: 625246
2banks busy for read cycles: 32298064
2banks busy for write cycles: 272280
3banks busy for read cycles: 18079766
3banks busy for write cycles: 119772
4banks busy for read cycles: 6127804
4banks busy for write cycles: 48287
5banks busy for read cycles: 2584564
5banks busy for write cycles: 14373
6banks busy for read cycles: 1976607
6banks busy for write cycles: 3119
7banks busy for read cycles: 2004374
7banks busy for write cycles: 502
8banks busy for read cycles: 6321561
8banks busy for write cycles: 0

CPU 0 Branch Prediction Accuracy: 99.1283% MPKI: 3.10846 Average ROB Occupancy at Mispredict: 116.959
Branch types
NOT_BRANCH: 32169786 64.3396%
BRANCH_DIRECT_JUMP: 169060 0.33812%
BRANCH_INDIRECT: 0 0%
BRANCH_CONDITIONAL: 17494487 34.989%
BRANCH_DIRECT_CALL: 83332 0.166664%
BRANCH_INDIRECT_CALL: 0 0%
BRANCH_RETURN: 83332 0.166664%
BRANCH_OTHER: 0 0%

@sumon_overall_L1D         0         0         0         0         0         0
@Sumon_Early_by_class_L1D         0         0         0         0
@Sumon_Late_by_class_L1D         0         0         0         0

@Sumon_Early_by_cycle_L1D         0         0         0         0         0         0         0         0         0         0         0         0
@Sumon_Late_by_cycle_L1D         0         0         0         0         0         0         0         0         0         0         0         0
@Sumon_Early_stream_L1D         0         0         0         0         0         0         0         0         0         0         0         0
@Sumon_Early_CS_L1D         0         0         0         0         0         0         0         0         0         0         0         0
@Sumon_Early_CPLX_L1D         0         0         0         0         0         0         0         0         0         0         0         0
@Sumon_Late_stream_L1D         0         0         0         0         0         0         0         0         0         0         0         0
@Sumon_Late_CS_L1D         0         0         0         0         0         0         0         0         0         0         0         0
@Sumon_Late_CPLX_L1D         0         0         0         0         0         0         0         0         0         0         0         0
@sumon_overall_L2C   1578482    933890      8078   1586568  34767316  34851789
@Sumon_Early_by_class_L2C         0         0         0         0
@Sumon_Late_by_class_L2C         0         0         0         0

@Sumon_Early_by_cycle_L2C   1464045     47897     15742      7411      6121     17303     11983      4705         4      1683      1360       228
@Sumon_Late_by_cycle_L2C    932784      1097         9         0         0         0         0         0         0         0         0         0
@Sumon_Early_stream_L2C         0         0         0         0         0         0         0         0         0         0         0         0
@Sumon_Early_CS_L2C         0         0         0         0         0         0         0         0         0         0         0         0
@Sumon_Early_CPLX_L2C         0         0         0         0         0         0         0         0         0         0         0         0
@Sumon_Late_stream_L2C         0         0         0         0         0         0         0         0         0         0         0         0
@Sumon_Late_CS_L2C         0         0         0         0         0         0         0         0         0         0         0         0
@Sumon_Late_CPLX_L2C         0         0         0         0         0         0         0         0         0         0         0         0
DRAM PAGES: 1048576
Allocated PAGES: 48862
