Initialize SIGNATURE TABLE
ST_SET: 1
ST_WAY: 256
ST_TAG_BIT: 16
ST_TAG_MASK: ffff

Initialize PATTERN TABLE
PT_SET: 512
PT_WAY: 4
SIG_DELTA_BIT: 7
C_SIG_BIT: 4
C_DELTA_BIT: 4

Initialize PREFETCH FILTER
FILTER_SET: 1024

*** ChampSim Multicore Out-of-Order Simulator ***

Warmup Instructions: 10000000
Simulation Instructions: 50000000
Number of CPUs: 1
LLC sets: 2048
LLC ways: 16
Off-chip DRAM Size: 4096 MB Channels: 1 Width: 64-bit Data Rate: 1600 MT/s
CPU 0 runs traces/SPEC2017/621.wrf_s-8065B.champsimtrace.xz
.xz
CPU 0 Bimodal branch predictor
BTB has LRU replacement policy
ITLB has LRU replacement policy
DTLB has LRU replacement policy
STLB has LRU replacement policy
L1I has LRU replacement policy
L1D has LRU replacement policy
ST_WAYS: 256
PT_SETS: 512
L2C has LRU replacement policy
LLC has LRU replacement policy
Heartbeat CPU 0 instructions: 10000002 cycles: 3032499 heartbeat IPC: 3.29761 cumulative IPC: 3.29761 (Simulation time: 0 hr 12 min 25 sec) 

Warmup complete CPU 0 instructions: 10000002 cycles: 3032499 (Simulation time: 0 hr 12 min 25 sec) 

Heartbeat CPU 0 instructions: 20000001 cycles: 12473875 heartbeat IPC: 1.05917 cumulative IPC: 1.05917 (Simulation time: 0 hr 23 min 6 sec) 
Heartbeat CPU 0 instructions: 30000001 cycles: 24648963 heartbeat IPC: 0.821349 cumulative IPC: 0.925221 (Simulation time: 0 hr 34 min 3 sec) 
Heartbeat CPU 0 instructions: 40000000 cycles: 34972119 heartbeat IPC: 0.968696 cumulative IPC: 0.939272 (Simulation time: 0 hr 46 min 20 sec) 
Heartbeat CPU 0 instructions: 50000002 cycles: 46599446 heartbeat IPC: 0.860043 cumulative IPC: 0.918127 (Simulation time: 0 hr 55 min 24 sec) 
Heartbeat CPU 0 instructions: 60000003 cycles: 57168199 heartbeat IPC: 0.946186 cumulative IPC: 0.923605 (Simulation time: 1 hr 5 min 45 sec) 
Finished CPU 0 instructions: 50000001 cycles: 54135700 cumulative IPC: 0.923605 (Simulation time: 1 hr 5 min 45 sec) 

ChampSim completed all CPUs

Region of Interest Statistics

CPU 0 cumulative IPC: 0.923605 instructions: 50000001 cycles: 54135700
ITLB TOTAL     ACCESS:    6810830  HIT:    6810802  MISS:         28  HIT %:    99.9996  MISS %: 0.00041111   MPKI: 0.00056
ITLB LOAD TRANSLATION ACCESS:    6810830  HIT:    6810802  MISS:         28  HIT %:    99.9996  MISS %: 0.00041111   MPKI: 0.00056
ITLB PREFETCH  REQUESTED:          0  ISSUED:          0  USEFUL:          0  USELESS:          0
ITLB USEFUL LOAD PREFETCHES:          0 PREFETCH ISSUED TO LOWER LEVEL:          0  ACCURACY: -nan
ITLB TIMELY PREFETCHES:          0 LATE PREFETCHES: 0 DROPPED PREFETCHES: 0
ITLB PREFETCHES SAME FILL-ORIGIN LEVEL: 0 DIFFERENT FILL-ORIGIN LEVEL: 0
ITLB AVERAGE MISS LATENCY: 256.143 cycles
ITLB RQ	ACCESS:    8157979	FORWARD:          0	MERGED:    1347141	TO_CACHE:    6810838

DTLB TOTAL     ACCESS:   11669237  HIT:   11634593  MISS:      34644  HIT %:    99.7031  MISS %:   0.296883   MPKI: 0.69288
DTLB LOAD TRANSLATION ACCESS:   11669237  HIT:   11634593  MISS:      34644  HIT %:    99.7031  MISS %:   0.296883   MPKI: 0.69288
DTLB PREFETCH  REQUESTED:          0  ISSUED:          0  USEFUL:          0  USELESS:          0
DTLB USEFUL LOAD PREFETCHES:          0 PREFETCH ISSUED TO LOWER LEVEL:          0  ACCURACY: -nan
DTLB TIMELY PREFETCHES:          0 LATE PREFETCHES: 0 DROPPED PREFETCHES: 0
DTLB PREFETCHES SAME FILL-ORIGIN LEVEL: 0 DIFFERENT FILL-ORIGIN LEVEL: 0
DTLB AVERAGE MISS LATENCY: 20.0486 cycles
DTLB RQ	ACCESS:   12922249	FORWARD:          0	MERGED:    1246673	TO_CACHE:   11675576

STLB TOTAL     ACCESS:      34672  HIT:      31544  MISS:       3128  HIT %:    90.9783  MISS %:    9.02169   MPKI: 0.06256
STLB LOAD TRANSLATION ACCESS:      34672  HIT:      31544  MISS:       3128  HIT %:    90.9783  MISS %:    9.02169   MPKI: 0.06256
STLB PREFETCH  REQUESTED:          0  ISSUED:          0  USEFUL:          0  USELESS:          0
STLB USEFUL LOAD PREFETCHES:          0 PREFETCH ISSUED TO LOWER LEVEL:          0  ACCURACY: -nan
STLB TIMELY PREFETCHES:          0 LATE PREFETCHES: 0 DROPPED PREFETCHES: 0
STLB PREFETCHES SAME FILL-ORIGIN LEVEL: 0 DIFFERENT FILL-ORIGIN LEVEL: 0
STLB AVERAGE MISS LATENCY: 123.536 cycles
STLB RQ	ACCESS:      34672	FORWARD:          0	MERGED:          0	TO_CACHE:      34672

STLB Hit, L1D data hit: 0
STLB Hit, L2C data hit: 0
STLB Hit, LLC data hit: 0
STLB Hit, LLC data miss: 0
STLB STLB hints to L2: 0
L1D TOTAL     ACCESS:   12294298  HIT:   11587028  MISS:     707270  HIT %:    94.2472  MISS %:    5.75283   MPKI: 14.1454
L1D LOAD      ACCESS:   10669334  HIT:   10094769  MISS:     574565  HIT %:    94.6148  MISS %:     5.3852   MPKI: 11.4913
L1D RFO       ACCESS:    1624964  HIT:    1492259  MISS:     132705  HIT %:    91.8334  MISS %:    8.16664   MPKI: 2.6541
L1D PREFETCH  REQUESTED:          0  ISSUED:          0  USEFUL:          0  USELESS:          0
L1D USEFUL LOAD PREFETCHES:          0 PREFETCH ISSUED TO LOWER LEVEL:          0  ACCURACY: -nan
L1D TIMELY PREFETCHES:          0 LATE PREFETCHES: 0 DROPPED PREFETCHES: 0
L1D PREFETCHES SAME FILL-ORIGIN LEVEL: 0 DIFFERENT FILL-ORIGIN LEVEL: 0
L1D AVERAGE MISS LATENCY: 109.887 cycles
L1D RQ	ACCESS:   16631492	FORWARD:          0	MERGED:    5759929	TO_CACHE:   10866984
L1D WQ	ACCESS:    2065746	FORWARD:       4579	MERGED:      10481	TO_CACHE:    2055265

L1D UNIQUE REGIONS ACCESSED: 0
L1D REGIONS CONFLICTS: 0
L1D Cross Page Prefetch Requests: 0
L1D Same Page Prefetch Requests: 0
L1D ROI Sum of L1D PQ occupancy: 0
L1D PREFETCHES PUSHED FROM L2C: 0
L1I TOTAL     ACCESS:    8156993  HIT:    8155504  MISS:       1489  HIT %:    99.9817  MISS %:  0.0182543   MPKI: 0.02978
L1I LOAD      ACCESS:    8156993  HIT:    8155504  MISS:       1489  HIT %:    99.9817  MISS %:  0.0182543   MPKI: 0.02978
L1I PREFETCH  REQUESTED:          0  ISSUED:          0  USEFUL:          0  USELESS:          0
L1I USEFUL LOAD PREFETCHES:          0 PREFETCH ISSUED TO LOWER LEVEL:          0  ACCURACY: -nan
L1I TIMELY PREFETCHES:          0 LATE PREFETCHES: 0 DROPPED PREFETCHES: 0
L1I PREFETCHES SAME FILL-ORIGIN LEVEL: 0 DIFFERENT FILL-ORIGIN LEVEL: 0
L1I AVERAGE MISS LATENCY: 220.385 cycles
L1I RQ	ACCESS:   12338632	FORWARD:          0	MERGED:    4180653	TO_CACHE:    8157979

BTB TOTAL     ACCESS:    1522699  HIT:    1522251  MISS:        448  HIT %:    99.9706  MISS %:  0.0294214   MPKI: 0.00896
BTB BRANCH_DIRECT_JUMP	ACCESS:      10290  HIT:      10246  MISS:         44
BTB BRANCH_INDIRECT	ACCESS:          4  HIT:          2  MISS:          2
BTB BRANCH_CONDITIONAL	ACCESS:    1485081  HIT:    1484854  MISS:        227
BTB BRANCH_DIRECT_CALL	ACCESS:      13662  HIT:      13597  MISS:         65
BTB BRANCH_INDIRECT_CALL	ACCESS:          0  HIT:          0  MISS:          0
BTB BRANCH_RETURN	ACCESS:      13662  HIT:      13552  MISS:        110
BTB BRANCH_OTHER ACCESS:          0  HIT:          0  MISS:          0

L2C TOTAL     ACCESS:    1883160  HIT:    1401282  MISS:     481878  HIT %:    74.4112  MISS %:    25.5888   MPKI: 9.63756
L2C LOAD      ACCESS:     576038  HIT:     414530  MISS:     161508  HIT %:    71.9623  MISS %:    28.0377   MPKI: 3.23016
L2C DATA LOAD MPKI: 3.20038
L2C INSTRUCTION LOAD MPKI: 0.02978
L2C RFO       ACCESS:     132705  HIT:      14124  MISS:     118581  HIT %:    10.6432  MISS %:    89.3568   MPKI: 2.37162
L2C PREFETCH  ACCESS:     907378  HIT:     706762  MISS:     200616  HIT %:    77.8906  MISS %:    22.1094   MPKI: 4.01232
L2C DATA PREFETCH MPKI: 4.01232
L2C INSTRUCTION PREFETCH MPKI: 0
L2C WRITEBACK ACCESS:     263897  HIT:     263262  MISS:        635  HIT %:    99.7594  MISS %:   0.240624   MPKI: 0.0127
L2C LOAD TRANSLATION ACCESS:       3142  HIT:       2604  MISS:        538  HIT %:    82.8771  MISS %:    17.1229   MPKI: 0.01076
L2C PREFETCH  REQUESTED:    3403804  ISSUED:    3145956  USEFUL:     198401  USELESS:       2216
L2C USEFUL LOAD PREFETCHES:     198401 PREFETCH ISSUED TO LOWER LEVEL:    2397170  ACCURACY: 8.27647
L2C TIMELY PREFETCHES:     198401 LATE PREFETCHES: 15843 DROPPED PREFETCHES: 0
L2C PREFETCHES SAME FILL-ORIGIN LEVEL: 216459 DIFFERENT FILL-ORIGIN LEVEL: 2180711
L2C AVERAGE MISS LATENCY: 153.479 cycles
L2C RQ	ACCESS:     711901	FORWARD:          0	MERGED:          0	TO_CACHE:     711885
L2C WQ	ACCESS:     263897	FORWARD:         48	MERGED:          0	TO_CACHE:     263897
L2C PQ	ACCESS:    3145956	FORWARD:          0	MERGED:      36889	TO_CACHE:    3109035

L2C Instructions Evicting Data 1489
L2C Translations Evicting Data 537
L2C Data Evicting Data 477177
L2C Instructions Evicting Instructions 0
L2C Translations Evicting Instructions 0
L2C Data Evicting Instructions 1489
L2C Instructions Evicting Translations 0
L2C Translations Evicting Translations 1
L2C Data Evicting Translations 550
L2C Dense regions hint from L2: 0
PSCL5 TOTAL     ACCESS:       3128  HIT:       3128  MISS:          0  HIT %:        100  MISS %:          0   MPKI: 0
PSCL5 LOAD TRANSLATION ACCESS:       3128  HIT:       3128  MISS:          0  HIT %:        100  MISS %:          0   MPKI: 0
PSCL5 PREFETCH  REQUESTED:          0  ISSUED:          0  USEFUL:          0  USELESS:          0
PSCL5 USEFUL LOAD PREFETCHES:          0 PREFETCH ISSUED TO LOWER LEVEL:          0  ACCURACY: -nan
PSCL5 TIMELY PREFETCHES:          0 LATE PREFETCHES: 0 DROPPED PREFETCHES: 0
PSCL5 PREFETCHES SAME FILL-ORIGIN LEVEL: 0 DIFFERENT FILL-ORIGIN LEVEL: 0

PSCL4 TOTAL     ACCESS:       3128  HIT:       3128  MISS:          0  HIT %:        100  MISS %:          0   MPKI: 0
PSCL4 LOAD TRANSLATION ACCESS:       3128  HIT:       3128  MISS:          0  HIT %:        100  MISS %:          0   MPKI: 0
PSCL4 PREFETCH  REQUESTED:          0  ISSUED:          0  USEFUL:          0  USELESS:          0
PSCL4 USEFUL LOAD PREFETCHES:          0 PREFETCH ISSUED TO LOWER LEVEL:          0  ACCURACY: -nan
PSCL4 TIMELY PREFETCHES:          0 LATE PREFETCHES: 0 DROPPED PREFETCHES: 0
PSCL4 PREFETCHES SAME FILL-ORIGIN LEVEL: 0 DIFFERENT FILL-ORIGIN LEVEL: 0

PSCL3 TOTAL     ACCESS:       3128  HIT:       3128  MISS:          0  HIT %:        100  MISS %:          0   MPKI: 0
PSCL3 LOAD TRANSLATION ACCESS:       3128  HIT:       3128  MISS:          0  HIT %:        100  MISS %:          0   MPKI: 0
PSCL3 PREFETCH  REQUESTED:          0  ISSUED:          0  USEFUL:          0  USELESS:          0
PSCL3 USEFUL LOAD PREFETCHES:          0 PREFETCH ISSUED TO LOWER LEVEL:          0  ACCURACY: -nan
PSCL3 TIMELY PREFETCHES:          0 LATE PREFETCHES: 0 DROPPED PREFETCHES: 0
PSCL3 PREFETCHES SAME FILL-ORIGIN LEVEL: 0 DIFFERENT FILL-ORIGIN LEVEL: 0

PSCL2 TOTAL     ACCESS:       3128  HIT:       3105  MISS:         23  HIT %:    99.2647  MISS %:   0.735294   MPKI: 0.00046
PSCL2 LOAD TRANSLATION ACCESS:       3128  HIT:       3105  MISS:         23  HIT %:    99.2647  MISS %:   0.735294   MPKI: 0.00046
PSCL2 PREFETCH  REQUESTED:          0  ISSUED:          0  USEFUL:          0  USELESS:          0
PSCL2 USEFUL LOAD PREFETCHES:          0 PREFETCH ISSUED TO LOWER LEVEL:          0  ACCURACY: -nan
PSCL2 TIMELY PREFETCHES:          0 LATE PREFETCHES: 0 DROPPED PREFETCHES: 0
PSCL2 PREFETCHES SAME FILL-ORIGIN LEVEL: 0 DIFFERENT FILL-ORIGIN LEVEL: 0

LLC TOTAL     ACCESS:    2798634  HIT:    2486871  MISS:     311763  HIT %:    88.8602  MISS %:    11.1398   MPKI: 6.23526
LLC LOAD      ACCESS:     145665  HIT:     119126  MISS:      26539  HIT %:    81.7808  MISS %:    18.2192   MPKI: 0.53078
LLC RFO       ACCESS:     118581  HIT:      20536  MISS:      98045  HIT %:    17.3181  MISS %:    82.6819   MPKI: 1.9609
LLC PREFETCH  ACCESS:    2299996  HIT:    2113558  MISS:     186438  HIT %:     91.894  MISS %:    8.10601   MPKI: 3.72876
LLC WRITEBACK ACCESS:     233854  HIT:     233631  MISS:        223  HIT %:    99.9046  MISS %:  0.0953586   MPKI: 0.00446
LLC LOAD TRANSLATION ACCESS:        538  HIT:         20  MISS:        518  HIT %:    3.71747  MISS %:    96.2825   MPKI: 0.01036
LLC PREFETCH  REQUESTED:          0  ISSUED:          0  USEFUL:      72662  USELESS:     104312
LLC USEFUL LOAD PREFETCHES:      72662 PREFETCH ISSUED TO LOWER LEVEL:     188473  ACCURACY: 38.553
LLC TIMELY PREFETCHES:      72662 LATE PREFETCHES: 2035 DROPPED PREFETCHES: 0
LLC PREFETCHES SAME FILL-ORIGIN LEVEL: 185247 DIFFERENT FILL-ORIGIN LEVEL: 0
LLC AVERAGE MISS LATENCY: 295.322 cycles
LLC RQ	ACCESS:     264784	FORWARD:          0	MERGED:          0	TO_CACHE:     264784
LLC WQ	ACCESS:     233854	FORWARD:          0	MERGED:          0	TO_CACHE:     233854
LLC PQ	ACCESS:    2397134	FORWARD:          0	MERGED:      16409	TO_CACHE:    2380725

LLC Dense regions hint to LLC: 0

RAW hits: 26394
Loads Generated: 16657890
Loads sent to L1D: 16631492
Stores Generated: 2065746
Stores sent to L1D: 2065746
Major fault: 0 Minor fault: 5259
Allocated PAGES: 5259
 All Calls: 923365
 Critical Calls: 923365
------------------
Depth Distribution
------------------
depth 0: 0
depth 1: 784330
depth 2: 725742
depth 3: 672996
depth 4: 616491
depth 5: 441764
depth 6: 367683
depth 7: 314398
depth 8: 232353
depth 9: 160414
depth 10: 85643
depth 11: 48926
depth 12: 26471
depth 13: 9530
depth 14: 74
depth 15: 73
depth 16: 0
depth 17: 0
depth 18: 0
depth 19: 0
depth 20: 0
depth 21: 0
depth 22: 0
depth 23: 0
depth 24: 0
depth 25: 0
depth 26: 0
depth 27: 0
depth 28: 0
depth 29: 0
Total: 4486888
-----------------------------
-----------------------------
	Captured at Filter
-----------------------------
depth 0: 0
depth 1: 49112
depth 2: 47300
depth 3: 45957
depth 4: 43613
depth 5: 22698
depth 6: 17805
depth 7: 16258
depth 8: 11726
depth 9: 7854
depth 10: 1404
depth 11: 337
depth 12: 140
depth 13: 62
depth 14: 1
depth 15: 0
depth 16: 0
depth 17: 0
depth 18: 0
depth 19: 0
depth 20: 0
depth 21: 0
depth 22: 0
depth 23: 0
depth 24: 0
depth 25: 0
depth 26: 0
depth 27: 0
depth 28: 0
depth 29: 0
-----------------------------
-----------------------------
		Lost at Page
-----------------------------
depth 0: 0
depth 1: 20058
depth 2: 35116
depth 3: 48618
depth 4: 59457
depth 5: 50784
depth 6: 49616
depth 7: 48158
depth 8: 41499
depth 9: 33887
depth 10: 18604
depth 11: 11078
depth 12: 6351
depth 13: 2493
depth 14: 20
depth 15: 22
depth 16: 0
depth 17: 0
depth 18: 0
depth 19: 0
depth 20: 0
depth 21: 0
depth 22: 0
depth 23: 0
depth 24: 0
depth 25: 0
depth 26: 0
depth 27: 0
depth 28: 0
depth 29: 0
-----------------------------
-----------------------------
	Lost due to PQ Size
-----------------------------
617846
-----------------------------
ST read accesses: 567046
ST write accesses: 7503
PT read accesses: 22527830
PT write accesses: 847890
FILTER read accesses: 4695902
FILTER write accesses: 1121986
GHR read accesses: 1753956
GHR write accesses: 288837
GHR counter read accesses: 19126430
GHR counter write accesses: 1241715
ST tag read accesses: 223537386
ST tag write accesses: 6961159

DRAM Statistics
 CHANNEL 0
 RQ ROW_BUFFER_HIT:      88178  ROW_BUFFER_MISS:     223325
 DBUS_CONGESTED:     272719
 WQ ROW_BUFFER_HIT:      30013  ROW_BUFFER_MISS:     135416  FULL:          0

 AVG_CONGESTED_CYCLE: 14
 All warmup complete: 2
Channel 0 Bank busy for read cycles: 0
Channel 0 Bank busy for write cycles: 0
Channel 0
Rank 0
0banks busy for read cycles: 28790137
0banks busy for write cycles: 31113
1banks busy for read cycles: 5555636
1banks busy for write cycles: 2402027
2banks busy for read cycles: 4702588
2banks busy for write cycles: 2348388
3banks busy for read cycles: 2040186
3banks busy for write cycles: 756235
4banks busy for read cycles: 1015800
4banks busy for write cycles: 328624
5banks busy for read cycles: 563957
5banks busy for write cycles: 221904
6banks busy for read cycles: 319745
6banks busy for write cycles: 168755
7banks busy for read cycles: 333960
7banks busy for write cycles: 212621
8banks busy for read cycles: 1837225
8banks busy for write cycles: 2506800

CPU 0 Branch Prediction Accuracy: 95.9166% MPKI: 1.36026 Average ROB Occupancy at Mispredict: 58.7564
Branch types
NOT_BRANCH: 48334087 96.6682%
BRANCH_DIRECT_JUMP: 10290 0.02058%
BRANCH_INDIRECT: 4 8e-06%
BRANCH_CONDITIONAL: 1627965 3.25593%
BRANCH_DIRECT_CALL: 13662 0.027324%
BRANCH_INDIRECT_CALL: 0 0%
BRANCH_RETURN: 13662 0.027324%
BRANCH_OTHER: 0 0%

@sumon_overall_L1D         0         0         0         0         0         0
@Sumon_Early_by_class_L1D         0         0         0         0
@Sumon_Late_by_class_L1D         0         0         0         0

@Sumon_Early_by_cycle_L1D         0         0         0         0         0         0         0         0         0         0         0         0
@Sumon_Late_by_cycle_L1D         0         0         0         0         0         0         0         0         0         0         0         0
@Sumon_Early_stream_L1D         0         0         0         0         0         0         0         0         0         0         0         0
@Sumon_Early_CS_L1D         0         0         0         0         0         0         0         0         0         0         0         0
@Sumon_Early_CPLX_L1D         0         0         0         0         0         0         0         0         0         0         0         0
@Sumon_Late_stream_L1D         0         0         0         0         0         0         0         0         0         0         0         0
@Sumon_Late_CS_L1D         0         0         0         0         0         0         0         0         0         0         0         0
@Sumon_Late_CPLX_L1D         0         0         0         0         0         0         0         0         0         0         0         0
@sumon_overall_L2C    198401     15843      2216    200616   3145956   3403804
@Sumon_Early_by_class_L2C         0         0         0         0
@Sumon_Late_by_class_L2C         0         0         0         0

@Sumon_Early_by_cycle_L2C     84436     16167     30484     60167       681      2662      2024       154       462       357       711        96
@Sumon_Late_by_cycle_L2C     14565      1134        97        31         6        10         0         0         0         0         0         0
@Sumon_Early_stream_L2C         0         0         0         0         0         0         0         0         0         0         0         0
@Sumon_Early_CS_L2C         0         0         0         0         0         0         0         0         0         0         0         0
@Sumon_Early_CPLX_L2C         0         0         0         0         0         0         0         0         0         0         0         0
@Sumon_Late_stream_L2C         0         0         0         0         0         0         0         0         0         0         0         0
@Sumon_Late_CS_L2C         0         0         0         0         0         0         0         0         0         0         0         0
@Sumon_Late_CPLX_L2C         0         0         0         0         0         0         0         0         0         0         0         0
DRAM PAGES: 1048576
Allocated PAGES: 5259
