Initialize SIGNATURE TABLE
ST_SET: 1
ST_WAY: 256
ST_TAG_BIT: 16
ST_TAG_MASK: ffff

Initialize PATTERN TABLE
PT_SET: 512
PT_WAY: 4
SIG_DELTA_BIT: 7
C_SIG_BIT: 4
C_DELTA_BIT: 4

Initialize PREFETCH FILTER
FILTER_SET: 1024

*** ChampSim Multicore Out-of-Order Simulator ***

Warmup Instructions: 10000000
Simulation Instructions: 50000000
Number of CPUs: 1
LLC sets: 2048
LLC ways: 16
Off-chip DRAM Size: 4096 MB Channels: 1 Width: 64-bit Data Rate: 1600 MT/s
CPU 0 runs traces/SPEC2017/654.roms_s-1390B.champsimtrace.xz
.xz
CPU 0 Bimodal branch predictor
BTB has LRU replacement policy
ITLB has LRU replacement policy
DTLB has LRU replacement policy
STLB has LRU replacement policy
L1I has LRU replacement policy
L1D has LRU replacement policy
ST_WAYS: 256
PT_SETS: 512
L2C has LRU replacement policy
LLC has LRU replacement policy
Heartbeat CPU 0 instructions: 10000001 cycles: 3758726 heartbeat IPC: 2.66048 cumulative IPC: 2.66048 (Simulation time: 0 hr 15 min 59 sec) 

Warmup complete CPU 0 instructions: 10000001 cycles: 3758726 (Simulation time: 0 hr 15 min 59 sec) 

Heartbeat CPU 0 instructions: 20000000 cycles: 19427080 heartbeat IPC: 0.638229 cumulative IPC: 0.638229 (Simulation time: 0 hr 31 min 38 sec) 
Heartbeat CPU 0 instructions: 30000003 cycles: 35308832 heartbeat IPC: 0.629654 cumulative IPC: 0.633912 (Simulation time: 0 hr 45 min 36 sec) 
Heartbeat CPU 0 instructions: 40000000 cycles: 51283954 heartbeat IPC: 0.625973 cumulative IPC: 0.631244 (Simulation time: 1 hr 2 min 45 sec) 
Heartbeat CPU 0 instructions: 50000000 cycles: 67462699 heartbeat IPC: 0.618095 cumulative IPC: 0.627904 (Simulation time: 1 hr 14 min 37 sec) 
Heartbeat CPU 0 instructions: 60000001 cycles: 79743757 heartbeat IPC: 0.814262 cumulative IPC: 0.658024 (Simulation time: 1 hr 17 min 48 sec) 
Finished CPU 0 instructions: 50000000 cycles: 75985031 cumulative IPC: 0.658024 (Simulation time: 1 hr 17 min 48 sec) 

ChampSim completed all CPUs

Region of Interest Statistics

CPU 0 cumulative IPC: 0.658024 instructions: 50000000 cycles: 75985031
ITLB TOTAL     ACCESS:    7721287  HIT:    7721264  MISS:         23  HIT %:    99.9997  MISS %: 0.000297878   MPKI: 0.00046
ITLB LOAD TRANSLATION ACCESS:    7721287  HIT:    7721264  MISS:         23  HIT %:    99.9997  MISS %: 0.000297878   MPKI: 0.00046
ITLB PREFETCH  REQUESTED:          0  ISSUED:          0  USEFUL:          0  USELESS:          0
ITLB USEFUL LOAD PREFETCHES:          0 PREFETCH ISSUED TO LOWER LEVEL:          0  ACCURACY: -nan
ITLB TIMELY PREFETCHES:          0 LATE PREFETCHES: 0 DROPPED PREFETCHES: 0
ITLB PREFETCHES SAME FILL-ORIGIN LEVEL: 0 DIFFERENT FILL-ORIGIN LEVEL: 0
ITLB AVERAGE MISS LATENCY: 297.261 cycles
ITLB RQ	ACCESS:    8638551	FORWARD:          0	MERGED:     917258	TO_CACHE:    7721293

DTLB TOTAL     ACCESS:   13973410  HIT:   13918637  MISS:      54773  HIT %:     99.608  MISS %:    0.39198   MPKI: 1.09546
DTLB LOAD TRANSLATION ACCESS:   13973410  HIT:   13918637  MISS:      54773  HIT %:     99.608  MISS %:    0.39198   MPKI: 1.09546
DTLB PREFETCH  REQUESTED:          0  ISSUED:          0  USEFUL:          0  USELESS:          0
DTLB USEFUL LOAD PREFETCHES:          0 PREFETCH ISSUED TO LOWER LEVEL:          0  ACCURACY: -nan
DTLB TIMELY PREFETCHES:          0 LATE PREFETCHES: 0 DROPPED PREFETCHES: 0
DTLB PREFETCHES SAME FILL-ORIGIN LEVEL: 0 DIFFERENT FILL-ORIGIN LEVEL: 0
DTLB AVERAGE MISS LATENCY: 201.095 cycles
DTLB RQ	ACCESS:   15197772	FORWARD:          0	MERGED:    1162688	TO_CACHE:   14035084

STLB TOTAL     ACCESS:      54796  HIT:      15824  MISS:      38972  HIT %:     28.878  MISS %:     71.122   MPKI: 0.77944
STLB LOAD TRANSLATION ACCESS:      54796  HIT:      15824  MISS:      38972  HIT %:     28.878  MISS %:     71.122   MPKI: 0.77944
STLB PREFETCH  REQUESTED:          0  ISSUED:          0  USEFUL:          0  USELESS:          0
STLB USEFUL LOAD PREFETCHES:          0 PREFETCH ISSUED TO LOWER LEVEL:          0  ACCURACY: -nan
STLB TIMELY PREFETCHES:          0 LATE PREFETCHES: 0 DROPPED PREFETCHES: 0
STLB PREFETCHES SAME FILL-ORIGIN LEVEL: 0 DIFFERENT FILL-ORIGIN LEVEL: 0
STLB AVERAGE MISS LATENCY: 268.459 cycles
STLB RQ	ACCESS:      54796	FORWARD:          0	MERGED:          0	TO_CACHE:      54796

STLB Hit, L1D data hit: 0
STLB Hit, L2C data hit: 0
STLB Hit, LLC data hit: 0
STLB Hit, LLC data miss: 0
STLB STLB hints to L2: 0
L1D TOTAL     ACCESS:   11521745  HIT:    9760986  MISS:    1760759  HIT %:    84.7179  MISS %:    15.2821   MPKI: 35.2152
L1D LOAD      ACCESS:    9464845  HIT:    8202498  MISS:    1262347  HIT %:    86.6628  MISS %:    13.3372   MPKI: 25.2469
L1D RFO       ACCESS:    2056900  HIT:    1558488  MISS:     498412  HIT %:    75.7688  MISS %:    24.2312   MPKI: 9.96824
L1D PREFETCH  REQUESTED:          0  ISSUED:          0  USEFUL:          0  USELESS:          0
L1D USEFUL LOAD PREFETCHES:          0 PREFETCH ISSUED TO LOWER LEVEL:          0  ACCURACY: -nan
L1D TIMELY PREFETCHES:          0 LATE PREFETCHES: 0 DROPPED PREFETCHES: 0
L1D PREFETCHES SAME FILL-ORIGIN LEVEL: 0 DIFFERENT FILL-ORIGIN LEVEL: 0
L1D AVERAGE MISS LATENCY: 218.749 cycles
L1D RQ	ACCESS:   17793133	FORWARD:          0	MERGED:    7788428	TO_CACHE:   10004554
L1D WQ	ACCESS:    5193236	FORWARD:        151	MERGED:         18	TO_CACHE:    5193218

L1D UNIQUE REGIONS ACCESSED: 0
L1D REGIONS CONFLICTS: 0
L1D Cross Page Prefetch Requests: 0
L1D Same Page Prefetch Requests: 0
L1D ROI Sum of L1D PQ occupancy: 0
L1D PREFETCHES PUSHED FROM L2C: 0
L1I TOTAL     ACCESS:    8638310  HIT:    8637891  MISS:        419  HIT %:    99.9951  MISS %: 0.00485049   MPKI: 0.00838
L1I LOAD      ACCESS:    8638310  HIT:    8637891  MISS:        419  HIT %:    99.9951  MISS %: 0.00485049   MPKI: 0.00838
L1I PREFETCH  REQUESTED:          0  ISSUED:          0  USEFUL:          0  USELESS:          0
L1I USEFUL LOAD PREFETCHES:          0 PREFETCH ISSUED TO LOWER LEVEL:          0  ACCURACY: -nan
L1I TIMELY PREFETCHES:          0 LATE PREFETCHES: 0 DROPPED PREFETCHES: 0
L1I PREFETCHES SAME FILL-ORIGIN LEVEL: 0 DIFFERENT FILL-ORIGIN LEVEL: 0
L1I AVERAGE MISS LATENCY: 269.649 cycles
L1I RQ	ACCESS:   13147723	FORWARD:          0	MERGED:    4509172	TO_CACHE:    8638551

BTB TOTAL     ACCESS:    3086896  HIT:    3086656  MISS:        240  HIT %:    99.9922  MISS %:  0.0077748   MPKI: 0.0048
BTB BRANCH_DIRECT_JUMP	ACCESS:        167  HIT:        144  MISS:         23
BTB BRANCH_INDIRECT	ACCESS:          0  HIT:          0  MISS:          0
BTB BRANCH_CONDITIONAL	ACCESS:    3086455  HIT:    3086363  MISS:         92
BTB BRANCH_DIRECT_CALL	ACCESS:        137  HIT:         76  MISS:         61
BTB BRANCH_INDIRECT_CALL	ACCESS:          0  HIT:          0  MISS:          0
BTB BRANCH_RETURN	ACCESS:        137  HIT:         73  MISS:         64
BTB BRANCH_OTHER ACCESS:          0  HIT:          0  MISS:          0

L2C TOTAL     ACCESS:    3855273  HIT:    2214870  MISS:    1640403  HIT %:    57.4504  MISS %:    42.5496   MPKI: 32.8081
L2C LOAD      ACCESS:    1262765  HIT:     835381  MISS:     427384  HIT %:    66.1549  MISS %:    33.8451   MPKI: 8.54768
L2C DATA LOAD MPKI: 8.5393
L2C INSTRUCTION LOAD MPKI: 0.00838
L2C RFO       ACCESS:     498412  HIT:          6  MISS:     498406  HIT %: 0.00120382  MISS %:    99.9988   MPKI: 9.96812
L2C PREFETCH  ACCESS:    1387768  HIT:     681783  MISS:     705985  HIT %:     49.128  MISS %:     50.872   MPKI: 14.1197
L2C DATA PREFETCH MPKI: 14.1197
L2C INSTRUCTION PREFETCH MPKI: 0
L2C WRITEBACK ACCESS:     667261  HIT:     667246  MISS:         15  HIT %:    99.9978  MISS %:   0.002248   MPKI: 0.0003
L2C LOAD TRANSLATION ACCESS:      39067  HIT:      30454  MISS:       8613  HIT %:    77.9533  MISS %:    22.0467   MPKI: 0.17226
L2C PREFETCH  REQUESTED:    9388283  ISSUED:    8833342  USEFUL:     697900  USELESS:       8092
L2C USEFUL LOAD PREFETCHES:     697900 PREFETCH ISSUED TO LOWER LEVEL:    7842810  ACCURACY: 8.8986
L2C TIMELY PREFETCHES:     697900 LATE PREFETCHES: 58633 DROPPED PREFETCHES: 0
L2C PREFETCHES SAME FILL-ORIGIN LEVEL: 764618 DIFFERENT FILL-ORIGIN LEVEL: 7078192
L2C AVERAGE MISS LATENCY: 238.73 cycles
L2C RQ	ACCESS:    1800246	FORWARD:          0	MERGED:          0	TO_CACHE:    1800245
L2C WQ	ACCESS:     667261	FORWARD:          1	MERGED:          0	TO_CACHE:     667261
L2C PQ	ACCESS:    8833342	FORWARD:          0	MERGED:     279537	TO_CACHE:    8553805

L2C Instructions Evicting Data 419
L2C Translations Evicting Data 8561
L2C Data Evicting Data 1622363
L2C Instructions Evicting Instructions 0
L2C Translations Evicting Instructions 4
L2C Data Evicting Instructions 415
L2C Instructions Evicting Translations 0
L2C Translations Evicting Translations 48
L2C Data Evicting Translations 8578
L2C Dense regions hint from L2: 0
PSCL5 TOTAL     ACCESS:      38972  HIT:      38972  MISS:          0  HIT %:        100  MISS %:          0   MPKI: 0
PSCL5 LOAD TRANSLATION ACCESS:      38972  HIT:      38972  MISS:          0  HIT %:        100  MISS %:          0   MPKI: 0
PSCL5 PREFETCH  REQUESTED:          0  ISSUED:          0  USEFUL:          0  USELESS:          0
PSCL5 USEFUL LOAD PREFETCHES:          0 PREFETCH ISSUED TO LOWER LEVEL:          0  ACCURACY: -nan
PSCL5 TIMELY PREFETCHES:          0 LATE PREFETCHES: 0 DROPPED PREFETCHES: 0
PSCL5 PREFETCHES SAME FILL-ORIGIN LEVEL: 0 DIFFERENT FILL-ORIGIN LEVEL: 0

PSCL4 TOTAL     ACCESS:      38972  HIT:      38972  MISS:          0  HIT %:        100  MISS %:          0   MPKI: 0
PSCL4 LOAD TRANSLATION ACCESS:      38972  HIT:      38972  MISS:          0  HIT %:        100  MISS %:          0   MPKI: 0
PSCL4 PREFETCH  REQUESTED:          0  ISSUED:          0  USEFUL:          0  USELESS:          0
PSCL4 USEFUL LOAD PREFETCHES:          0 PREFETCH ISSUED TO LOWER LEVEL:          0  ACCURACY: -nan
PSCL4 TIMELY PREFETCHES:          0 LATE PREFETCHES: 0 DROPPED PREFETCHES: 0
PSCL4 PREFETCHES SAME FILL-ORIGIN LEVEL: 0 DIFFERENT FILL-ORIGIN LEVEL: 0

PSCL3 TOTAL     ACCESS:      38972  HIT:      38971  MISS:          1  HIT %:    99.9974  MISS %: 0.00256594   MPKI: 2e-05
PSCL3 LOAD TRANSLATION ACCESS:      38972  HIT:      38971  MISS:          1  HIT %:    99.9974  MISS %: 0.00256594   MPKI: 2e-05
PSCL3 PREFETCH  REQUESTED:          0  ISSUED:          0  USEFUL:          0  USELESS:          0
PSCL3 USEFUL LOAD PREFETCHES:          0 PREFETCH ISSUED TO LOWER LEVEL:          0  ACCURACY: -nan
PSCL3 TIMELY PREFETCHES:          0 LATE PREFETCHES: 0 DROPPED PREFETCHES: 0
PSCL3 PREFETCHES SAME FILL-ORIGIN LEVEL: 0 DIFFERENT FILL-ORIGIN LEVEL: 0

PSCL2 TOTAL     ACCESS:      38972  HIT:      38781  MISS:        191  HIT %:    99.5099  MISS %:   0.490095   MPKI: 0.00382
PSCL2 LOAD TRANSLATION ACCESS:      38972  HIT:      38781  MISS:        191  HIT %:    99.5099  MISS %:   0.490095   MPKI: 0.00382
PSCL2 PREFETCH  REQUESTED:          0  ISSUED:          0  USEFUL:          0  USELESS:          0
PSCL2 USEFUL LOAD PREFETCHES:          0 PREFETCH ISSUED TO LOWER LEVEL:          0  ACCURACY: -nan
PSCL2 TIMELY PREFETCHES:          0 LATE PREFETCHES: 0 DROPPED PREFETCHES: 0
PSCL2 PREFETCHES SAME FILL-ORIGIN LEVEL: 0 DIFFERENT FILL-ORIGIN LEVEL: 0

LLC TOTAL     ACCESS:    7706562  HIT:    5990101  MISS:    1716461  HIT %:    77.7273  MISS %:    22.2727   MPKI: 34.3292
LLC LOAD      ACCESS:     368751  HIT:     312758  MISS:      55993  HIT %:    84.8155  MISS %:    15.1845   MPKI: 1.11986
LLC RFO       ACCESS:     498406  HIT:         25  MISS:     498381  HIT %: 0.00501599  MISS %:     99.995   MPKI: 9.96762
LLC PREFETCH  ACCESS:    6165422  HIT:    5011928  MISS:    1153494  HIT %:    81.2909  MISS %:    18.7091   MPKI: 23.0699
LLC WRITEBACK ACCESS:     665370  HIT:     665353  MISS:         17  HIT %:    99.9974  MISS %: 0.00255497   MPKI: 0.00034
LLC LOAD TRANSLATION ACCESS:       8613  HIT:         37  MISS:       8576  HIT %:   0.429583  MISS %:    99.5704   MPKI: 0.17152
LLC PREFETCH  REQUESTED:          0  ISSUED:          0  USEFUL:     312582  USELESS:     840765
LLC USEFUL LOAD PREFETCHES:     312582 PREFETCH ISSUED TO LOWER LEVEL:    1165252  ACCURACY: 26.8253
LLC TIMELY PREFETCHES:     312582 LATE PREFETCHES: 11756 DROPPED PREFETCHES: 0
LLC PREFETCHES SAME FILL-ORIGIN LEVEL: 1147896 DIFFERENT FILL-ORIGIN LEVEL: 0
LLC AVERAGE MISS LATENCY: 542.778 cycles
LLC RQ	ACCESS:     875770	FORWARD:          0	MERGED:          0	TO_CACHE:     875770
LLC WQ	ACCESS:     665370	FORWARD:          0	MERGED:          0	TO_CACHE:     665370
LLC PQ	ACCESS:    7842201	FORWARD:          0	MERGED:      71593	TO_CACHE:    7770608

LLC Dense regions hint to LLC: 0

RAW hits: 1868
Loads Generated: 17795006
Loads sent to L1D: 17793133
Stores Generated: 5193403
Stores sent to L1D: 5193404
Major fault: 0 Minor fault: 31870
Allocated PAGES: 31870
 All Calls: 1551624
 Critical Calls: 1551624
------------------
Depth Distribution
------------------
depth 0: 0
depth 1: 1447884
depth 2: 1408428
depth 3: 1362360
depth 4: 1321534
depth 5: 1267661
depth 6: 1208427
depth 7: 1043073
depth 8: 763070
depth 9: 447210
depth 10: 251956
depth 11: 134161
depth 12: 74134
depth 13: 37583
depth 14: 11913
depth 15: 11559
depth 16: 39
depth 17: 0
depth 18: 0
depth 19: 0
depth 20: 0
depth 21: 0
depth 22: 0
depth 23: 0
depth 24: 0
depth 25: 0
depth 26: 0
depth 27: 0
depth 28: 0
depth 29: 0
Total: 10790992
-----------------------------
-----------------------------
	Captured at Filter
-----------------------------
depth 0: 0
depth 1: 52951
depth 2: 49537
depth 3: 48475
depth 4: 47309
depth 5: 45103
depth 6: 42124
depth 7: 36763
depth 8: 26714
depth 9: 17094
depth 10: 6988
depth 11: 2294
depth 12: 564
depth 13: 181
depth 14: 71
depth 15: 50
depth 16: 0
depth 17: 0
depth 18: 0
depth 19: 0
depth 20: 0
depth 21: 0
depth 22: 0
depth 23: 0
depth 24: 0
depth 25: 0
depth 26: 0
depth 27: 0
depth 28: 0
depth 29: 0
-----------------------------
-----------------------------
		Lost at Page
-----------------------------
depth 0: 0
depth 1: 24235
depth 2: 48042
depth 3: 71694
depth 4: 95399
depth 5: 118129
depth 6: 140341
depth 7: 146884
depth 8: 129794
depth 9: 92871
depth 10: 58483
depth 11: 33451
depth 12: 18699
depth 13: 9755
depth 14: 3393
depth 15: 3655
depth 16: 2
depth 17: 0
depth 18: 0
depth 19: 0
depth 20: 0
depth 21: 0
depth 22: 0
depth 23: 0
depth 24: 0
depth 25: 0
depth 26: 0
depth 27: 0
depth 28: 0
depth 29: 0
-----------------------------
-----------------------------
	Lost due to PQ Size
-----------------------------
772626
-----------------------------
ST read accesses: 1233065
ST write accesses: 29281
PT read accesses: 58532378
PT write accesses: 1832494
FILTER read accesses: 12548870
FILTER write accesses: 3325281
GHR read accesses: 4233893
GHR write accesses: 799766
GHR counter read accesses: 49341780
GHR counter write accesses: 2973198
ST tag read accesses: 500759581
ST tag write accesses: 14111007

DRAM Statistics
 CHANNEL 0
 RQ ROW_BUFFER_HIT:     544394  ROW_BUFFER_MISS:    1172050
 DBUS_CONGESTED:    1833646
 WQ ROW_BUFFER_HIT:     111273  ROW_BUFFER_MISS:     552656  FULL:          0

 AVG_CONGESTED_CYCLE: 14
 All warmup complete: 2
Channel 0 Bank busy for read cycles: 0
Channel 0 Bank busy for write cycles: 0
Channel 0
Rank 0
0banks busy for read cycles: 2477790
0banks busy for write cycles: 3247
1banks busy for read cycles: 5090785
1banks busy for write cycles: 496746
2banks busy for read cycles: 4680545
2banks busy for write cycles: 190736
3banks busy for read cycles: 4418123
3banks busy for write cycles: 153675
4banks busy for read cycles: 4527347
4banks busy for write cycles: 143743
5banks busy for read cycles: 4525151
5banks busy for write cycles: 139856
6banks busy for read cycles: 4084354
6banks busy for write cycles: 151507
7banks busy for read cycles: 5160963
7banks busy for write cycles: 870954
8banks busy for read cycles: 18736119
8banks busy for write cycles: 20133391

CPU 0 Branch Prediction Accuracy: 99.7911% MPKI: 0.12922 Average ROB Occupancy at Mispredict: 121.145
Branch types
NOT_BRANCH: 46907122 93.8142%
BRANCH_DIRECT_JUMP: 167 0.000334%
BRANCH_INDIRECT: 0 0%
BRANCH_CONDITIONAL: 3092362 6.18472%
BRANCH_DIRECT_CALL: 137 0.000274%
BRANCH_INDIRECT_CALL: 0 0%
BRANCH_RETURN: 137 0.000274%
BRANCH_OTHER: 0 0%

@sumon_overall_L1D         0         0         0         0         0         0
@Sumon_Early_by_class_L1D         0         0         0         0
@Sumon_Late_by_class_L1D         0         0         0         0

@Sumon_Early_by_cycle_L1D         0         0         0         0         0         0         0         0         0         0         0         0
@Sumon_Late_by_cycle_L1D         0         0         0         0         0         0         0         0         0         0         0         0
@Sumon_Early_stream_L1D         0         0         0         0         0         0         0         0         0         0         0         0
@Sumon_Early_CS_L1D         0         0         0         0         0         0         0         0         0         0         0         0
@Sumon_Early_CPLX_L1D         0         0         0         0         0         0         0         0         0         0         0         0
@Sumon_Late_stream_L1D         0         0         0         0         0         0         0         0         0         0         0         0
@Sumon_Late_CS_L1D         0         0         0         0         0         0         0         0         0         0         0         0
@Sumon_Late_CPLX_L1D         0         0         0         0         0         0         0         0         0         0         0         0
@sumon_overall_L2C    697900     58633      8092    705985   8833342   9388283
@Sumon_Early_by_class_L2C         0         0         0         0
@Sumon_Late_by_class_L2C         0         0         0         0

@Sumon_Early_by_cycle_L2C    226819    191811    142820     99409     13558     20982      1669       398         0       432         0         2
@Sumon_Late_by_cycle_L2C     40477      7141      6653      2608       927       825         2         0         0         0         0         0
@Sumon_Early_stream_L2C         0         0         0         0         0         0         0         0         0         0         0         0
@Sumon_Early_CS_L2C         0         0         0         0         0         0         0         0         0         0         0         0
@Sumon_Early_CPLX_L2C         0         0         0         0         0         0         0         0         0         0         0         0
@Sumon_Late_stream_L2C         0         0         0         0         0         0         0         0         0         0         0         0
@Sumon_Late_CS_L2C         0         0         0         0         0         0         0         0         0         0         0         0
@Sumon_Late_CPLX_L2C         0         0         0         0         0         0         0         0         0         0         0         0
DRAM PAGES: 1048576
Allocated PAGES: 31870
