Initialize SIGNATURE TABLE
ST_SET: 1
ST_WAY: 256
ST_TAG_BIT: 16
ST_TAG_MASK: ffff

Initialize PATTERN TABLE
PT_SET: 512
PT_WAY: 4
SIG_DELTA_BIT: 7
C_SIG_BIT: 4
C_DELTA_BIT: 4

Initialize PREFETCH FILTER
FILTER_SET: 1024

*** ChampSim Multicore Out-of-Order Simulator ***

Warmup Instructions: 10000000
Simulation Instructions: 50000000
Number of CPUs: 1
LLC sets: 2048
LLC ways: 16
Off-chip DRAM Size: 4096 MB Channels: 1 Width: 64-bit Data Rate: 1600 MT/s
CPU 0 runs traces/SPEC2017/654.roms_s-293B.champsimtrace.xz
.xz
CPU 0 Bimodal branch predictor
BTB has LRU replacement policy
ITLB has LRU replacement policy
DTLB has LRU replacement policy
STLB has LRU replacement policy
L1I has LRU replacement policy
L1D has LRU replacement policy
ST_WAYS: 256
PT_SETS: 512
L2C has LRU replacement policy
LLC has LRU replacement policy
Heartbeat CPU 0 instructions: 10000001 cycles: 3119654 heartbeat IPC: 3.20548 cumulative IPC: 3.20548 (Simulation time: 0 hr 12 min 10 sec) 

Warmup complete CPU 0 instructions: 10000001 cycles: 3119654 (Simulation time: 0 hr 12 min 10 sec) 

Heartbeat CPU 0 instructions: 20000003 cycles: 12990201 heartbeat IPC: 1.01312 cumulative IPC: 1.01312 (Simulation time: 0 hr 24 min 49 sec) 
Heartbeat CPU 0 instructions: 30000000 cycles: 22521001 heartbeat IPC: 1.04923 cumulative IPC: 1.03086 (Simulation time: 0 hr 36 min 34 sec) 
Heartbeat CPU 0 instructions: 40000003 cycles: 32399185 heartbeat IPC: 1.01233 cumulative IPC: 1.02461 (Simulation time: 0 hr 48 min 9 sec) 
Heartbeat CPU 0 instructions: 50000000 cycles: 41936814 heartbeat IPC: 1.04848 cumulative IPC: 1.03047 (Simulation time: 0 hr 58 min 27 sec) 
Heartbeat CPU 0 instructions: 60000002 cycles: 51812036 heartbeat IPC: 1.01264 cumulative IPC: 1.02685 (Simulation time: 1 hr 7 min 28 sec) 
Finished CPU 0 instructions: 50000001 cycles: 48692382 cumulative IPC: 1.02685 (Simulation time: 1 hr 7 min 28 sec) 

ChampSim completed all CPUs

Region of Interest Statistics

CPU 0 cumulative IPC: 1.02685 instructions: 50000001 cycles: 48692382
ITLB TOTAL     ACCESS:    7043996  HIT:    7043996  MISS:          0  HIT %:        100  MISS %:          0   MPKI: 0
ITLB LOAD TRANSLATION ACCESS:    7043996  HIT:    7043996  MISS:          0  HIT %:        100  MISS %:          0   MPKI: 0
ITLB PREFETCH  REQUESTED:          0  ISSUED:          0  USEFUL:          0  USELESS:          0
ITLB USEFUL LOAD PREFETCHES:          0 PREFETCH ISSUED TO LOWER LEVEL:          0  ACCURACY: -nan
ITLB TIMELY PREFETCHES:          0 LATE PREFETCHES: 0 DROPPED PREFETCHES: 0
ITLB PREFETCHES SAME FILL-ORIGIN LEVEL: 0 DIFFERENT FILL-ORIGIN LEVEL: 0
ITLB AVERAGE MISS LATENCY: -nan cycles
ITLB RQ	ACCESS:    8965799	FORWARD:          0	MERGED:    1921803	TO_CACHE:    7043996

DTLB TOTAL     ACCESS:   13266727  HIT:   13252242  MISS:      14485  HIT %:    99.8908  MISS %:   0.109183   MPKI: 0.2897
DTLB LOAD TRANSLATION ACCESS:   13266727  HIT:   13252242  MISS:      14485  HIT %:    99.8908  MISS %:   0.109183   MPKI: 0.2897
DTLB PREFETCH  REQUESTED:          0  ISSUED:          0  USEFUL:          0  USELESS:          0
DTLB USEFUL LOAD PREFETCHES:          0 PREFETCH ISSUED TO LOWER LEVEL:          0  ACCURACY: -nan
DTLB TIMELY PREFETCHES:          0 LATE PREFETCHES: 0 DROPPED PREFETCHES: 0
DTLB PREFETCHES SAME FILL-ORIGIN LEVEL: 0 DIFFERENT FILL-ORIGIN LEVEL: 0
DTLB AVERAGE MISS LATENCY: 162.369 cycles
DTLB RQ	ACCESS:   15245097	FORWARD:          0	MERGED:    1945723	TO_CACHE:   13299374

STLB TOTAL     ACCESS:      14485  HIT:       9445  MISS:       5040  HIT %:    65.2054  MISS %:    34.7946   MPKI: 0.1008
STLB LOAD TRANSLATION ACCESS:      14485  HIT:       9445  MISS:       5040  HIT %:    65.2054  MISS %:    34.7946   MPKI: 0.1008
STLB PREFETCH  REQUESTED:          0  ISSUED:          0  USEFUL:          0  USELESS:          0
STLB USEFUL LOAD PREFETCHES:          0 PREFETCH ISSUED TO LOWER LEVEL:          0  ACCURACY: -nan
STLB TIMELY PREFETCHES:          0 LATE PREFETCHES: 0 DROPPED PREFETCHES: 0
STLB PREFETCHES SAME FILL-ORIGIN LEVEL: 0 DIFFERENT FILL-ORIGIN LEVEL: 0
STLB AVERAGE MISS LATENCY: 438.832 cycles
STLB RQ	ACCESS:      14485	FORWARD:          0	MERGED:          0	TO_CACHE:      14485

STLB Hit, L1D data hit: 0
STLB Hit, L2C data hit: 0
STLB Hit, LLC data hit: 0
STLB Hit, LLC data miss: 0
STLB STLB hints to L2: 0
L1D TOTAL     ACCESS:   14724870  HIT:   14108320  MISS:     616550  HIT %:    95.8129  MISS %:    4.18713   MPKI: 12.331
L1D LOAD      ACCESS:   10547301  HIT:   10180957  MISS:     366344  HIT %:    96.5267  MISS %:    3.47334   MPKI: 7.32688
L1D RFO       ACCESS:    4177569  HIT:    3927363  MISS:     250206  HIT %:    94.0107  MISS %:    5.98927   MPKI: 5.00412
L1D PREFETCH  REQUESTED:          0  ISSUED:          0  USEFUL:          0  USELESS:          0
L1D USEFUL LOAD PREFETCHES:          0 PREFETCH ISSUED TO LOWER LEVEL:          0  ACCURACY: -nan
L1D TIMELY PREFETCHES:          0 LATE PREFETCHES: 0 DROPPED PREFETCHES: 0
L1D PREFETCHES SAME FILL-ORIGIN LEVEL: 0 DIFFERENT FILL-ORIGIN LEVEL: 0
L1D AVERAGE MISS LATENCY: 97.2637 cycles
L1D RQ	ACCESS:   16773409	FORWARD:          0	MERGED:    6012436	TO_CACHE:   10621125
L1D WQ	ACCESS:    4623972	FORWARD:     139848	MERGED:          0	TO_CACHE:    4623972

L1D UNIQUE REGIONS ACCESSED: 0
L1D REGIONS CONFLICTS: 0
L1D Cross Page Prefetch Requests: 0
L1D Same Page Prefetch Requests: 0
L1D ROI Sum of L1D PQ occupancy: 0
L1D PREFETCHES PUSHED FROM L2C: 0
L1I TOTAL     ACCESS:    8965797  HIT:    8965797  MISS:          0  HIT %:        100  MISS %:          0   MPKI: 0
L1I LOAD      ACCESS:    8965797  HIT:    8965797  MISS:          0  HIT %:        100  MISS %:          0   MPKI: 0
L1I PREFETCH  REQUESTED:          0  ISSUED:          0  USEFUL:          0  USELESS:          0
L1I USEFUL LOAD PREFETCHES:          0 PREFETCH ISSUED TO LOWER LEVEL:          0  ACCURACY: -nan
L1I TIMELY PREFETCHES:          0 LATE PREFETCHES: 0 DROPPED PREFETCHES: 0
L1I PREFETCHES SAME FILL-ORIGIN LEVEL: 0 DIFFERENT FILL-ORIGIN LEVEL: 0
L1I AVERAGE MISS LATENCY: -nan cycles
L1I RQ	ACCESS:   11489676	FORWARD:          0	MERGED:    2523877	TO_CACHE:    8965799

BTB TOTAL     ACCESS:     648184  HIT:     648169  MISS:         15  HIT %:    99.9977  MISS %: 0.00231416   MPKI: 0.0003
BTB BRANCH_DIRECT_JUMP	ACCESS:          8  HIT:          7  MISS:          1
BTB BRANCH_INDIRECT	ACCESS:          0  HIT:          0  MISS:          0
BTB BRANCH_CONDITIONAL	ACCESS:     648176  HIT:     648162  MISS:         14
BTB BRANCH_DIRECT_CALL	ACCESS:          0  HIT:          0  MISS:          0
BTB BRANCH_INDIRECT_CALL	ACCESS:          0  HIT:          0  MISS:          0
BTB BRANCH_RETURN	ACCESS:          0  HIT:          0  MISS:          0
BTB BRANCH_OTHER ACCESS:          0  HIT:          0  MISS:          0

L2C TOTAL     ACCESS:    1593913  HIT:    1077087  MISS:     516826  HIT %:     67.575  MISS %:     32.425   MPKI: 10.3365
L2C LOAD      ACCESS:     366344  HIT:     282973  MISS:      83371  HIT %:    77.2424  MISS %:    22.7576   MPKI: 1.66742
L2C DATA LOAD MPKI: 1.66742
L2C INSTRUCTION LOAD MPKI: 0
L2C RFO       ACCESS:     250206  HIT:        685  MISS:     249521  HIT %:   0.273774  MISS %:    99.7262   MPKI: 4.99042
L2C PREFETCH  ACCESS:     718621  HIT:     539086  MISS:     179535  HIT %:    75.0167  MISS %:    24.9833   MPKI: 3.5907
L2C DATA PREFETCH MPKI: 3.5907
L2C INSTRUCTION PREFETCH MPKI: 0
L2C WRITEBACK ACCESS:     251124  HIT:     250844  MISS:        280  HIT %:    99.8885  MISS %:   0.111499   MPKI: 0.0056
L2C LOAD TRANSLATION ACCESS:       7618  HIT:       3499  MISS:       4119  HIT %:    45.9307  MISS %:    54.0693   MPKI: 0.08238
L2C PREFETCH  REQUESTED:    2570807  ISSUED:    2435488  USEFUL:     178143  USELESS:       1406
L2C USEFUL LOAD PREFETCHES:     178143 PREFETCH ISSUED TO LOWER LEVEL:    1889664  ACCURACY: 9.42723
L2C TIMELY PREFETCHES:     178143 LATE PREFETCHES: 416 DROPPED PREFETCHES: 0
L2C PREFETCHES SAME FILL-ORIGIN LEVEL: 179951 DIFFERENT FILL-ORIGIN LEVEL: 1709713
L2C AVERAGE MISS LATENCY: 111.531 cycles
L2C RQ	ACCESS:     624170	FORWARD:          0	MERGED:          0	TO_CACHE:     624170
L2C WQ	ACCESS:     251124	FORWARD:          0	MERGED:          0	TO_CACHE:     251124
L2C PQ	ACCESS:    2435488	FORWARD:          0	MERGED:       6547	TO_CACHE:    2428941

L2C Instructions Evicting Data 0
L2C Translations Evicting Data 4090
L2C Data Evicting Data 508391
L2C Instructions Evicting Instructions 0
L2C Translations Evicting Instructions 0
L2C Data Evicting Instructions 0
L2C Instructions Evicting Translations 0
L2C Translations Evicting Translations 29
L2C Data Evicting Translations 4036
L2C Dense regions hint from L2: 0
PSCL5 TOTAL     ACCESS:       5040  HIT:       5040  MISS:          0  HIT %:        100  MISS %:          0   MPKI: 0
PSCL5 LOAD TRANSLATION ACCESS:       5040  HIT:       5040  MISS:          0  HIT %:        100  MISS %:          0   MPKI: 0
PSCL5 PREFETCH  REQUESTED:          0  ISSUED:          0  USEFUL:          0  USELESS:          0
PSCL5 USEFUL LOAD PREFETCHES:          0 PREFETCH ISSUED TO LOWER LEVEL:          0  ACCURACY: -nan
PSCL5 TIMELY PREFETCHES:          0 LATE PREFETCHES: 0 DROPPED PREFETCHES: 0
PSCL5 PREFETCHES SAME FILL-ORIGIN LEVEL: 0 DIFFERENT FILL-ORIGIN LEVEL: 0

PSCL4 TOTAL     ACCESS:       5040  HIT:       5040  MISS:          0  HIT %:        100  MISS %:          0   MPKI: 0
PSCL4 LOAD TRANSLATION ACCESS:       5040  HIT:       5040  MISS:          0  HIT %:        100  MISS %:          0   MPKI: 0
PSCL4 PREFETCH  REQUESTED:          0  ISSUED:          0  USEFUL:          0  USELESS:          0
PSCL4 USEFUL LOAD PREFETCHES:          0 PREFETCH ISSUED TO LOWER LEVEL:          0  ACCURACY: -nan
PSCL4 TIMELY PREFETCHES:          0 LATE PREFETCHES: 0 DROPPED PREFETCHES: 0
PSCL4 PREFETCHES SAME FILL-ORIGIN LEVEL: 0 DIFFERENT FILL-ORIGIN LEVEL: 0

PSCL3 TOTAL     ACCESS:       5031  HIT:       4954  MISS:         77  HIT %:    98.4695  MISS %:    1.53051   MPKI: 0.00154
PSCL3 LOAD TRANSLATION ACCESS:       5031  HIT:       4954  MISS:         77  HIT %:    98.4695  MISS %:    1.53051   MPKI: 0.00154
PSCL3 PREFETCH  REQUESTED:          0  ISSUED:          0  USEFUL:          0  USELESS:          0
PSCL3 USEFUL LOAD PREFETCHES:          0 PREFETCH ISSUED TO LOWER LEVEL:          0  ACCURACY: -nan
PSCL3 TIMELY PREFETCHES:          0 LATE PREFETCHES: 0 DROPPED PREFETCHES: 0
PSCL3 PREFETCHES SAME FILL-ORIGIN LEVEL: 0 DIFFERENT FILL-ORIGIN LEVEL: 0

PSCL2 TOTAL     ACCESS:       5040  HIT:       2517  MISS:       2523  HIT %:    49.9405  MISS %:    50.0595   MPKI: 0.05046
PSCL2 LOAD TRANSLATION ACCESS:       5040  HIT:       2517  MISS:       2523  HIT %:    49.9405  MISS %:    50.0595   MPKI: 0.05046
PSCL2 PREFETCH  REQUESTED:          0  ISSUED:          0  USEFUL:          0  USELESS:          0
PSCL2 USEFUL LOAD PREFETCHES:          0 PREFETCH ISSUED TO LOWER LEVEL:          0  ACCURACY: -nan
PSCL2 TIMELY PREFETCHES:          0 LATE PREFETCHES: 0 DROPPED PREFETCHES: 0
PSCL2 PREFETCHES SAME FILL-ORIGIN LEVEL: 0 DIFFERENT FILL-ORIGIN LEVEL: 0

LLC TOTAL     ACCESS:    2448888  HIT:    2089253  MISS:     359635  HIT %:    85.3144  MISS %:    14.6856   MPKI: 7.1927
LLC LOAD      ACCESS:      82955  HIT:      76296  MISS:       6659  HIT %:    91.9728  MISS %:    8.02724   MPKI: 0.13318
LLC RFO       ACCESS:     249521  HIT:      53158  MISS:     196363  HIT %:     21.304  MISS %:     78.696   MPKI: 3.92726
LLC PREFETCH  ACCESS:    1860160  HIT:    1707621  MISS:     152539  HIT %:    91.7997  MISS %:    8.20032   MPKI: 3.05078
LLC WRITEBACK ACCESS:     252133  HIT:     252103  MISS:         30  HIT %:    99.9881  MISS %:  0.0118985   MPKI: 0.0006
LLC LOAD TRANSLATION ACCESS:       4119  HIT:         75  MISS:       4044  HIT %:    1.82083  MISS %:    98.1792   MPKI: 0.08088
LLC PREFETCH  REQUESTED:          0  ISSUED:          0  USEFUL:      57174  USELESS:      92478
LLC USEFUL LOAD PREFETCHES:      57174 PREFETCH ISSUED TO LOWER LEVEL:     152622  ACCURACY: 37.4612
LLC TIMELY PREFETCHES:      57174 LATE PREFETCHES: 83 DROPPED PREFETCHES: 0
LLC PREFETCHES SAME FILL-ORIGIN LEVEL: 149754 DIFFERENT FILL-ORIGIN LEVEL: 0
LLC AVERAGE MISS LATENCY: 221.122 cycles
LLC RQ	ACCESS:     336597	FORWARD:          0	MERGED:          0	TO_CACHE:     336597
LLC WQ	ACCESS:     252133	FORWARD:          0	MERGED:          0	TO_CACHE:     252133
LLC PQ	ACCESS:    1889664	FORWARD:          0	MERGED:        296	TO_CACHE:    1889368

LLC Dense regions hint to LLC: 0

RAW hits: 608467
Loads Generated: 17381878
Loads sent to L1D: 16773409
Stores Generated: 4623969
Stores sent to L1D: 4623972
Major fault: 0 Minor fault: 6614
Allocated PAGES: 6614
 All Calls: 417903
 Critical Calls: 417903
------------------
Depth Distribution
------------------
depth 0: 0
depth 1: 372596
depth 2: 359693
depth 3: 347862
depth 4: 337312
depth 5: 325376
depth 6: 311802
depth 7: 279179
depth 8: 204763
depth 9: 138982
depth 10: 59356
depth 11: 25927
depth 12: 12325
depth 13: 4985
depth 14: 372
depth 15: 355
depth 16: 0
depth 17: 0
depth 18: 0
depth 19: 0
depth 20: 0
depth 21: 0
depth 22: 0
depth 23: 0
depth 24: 0
depth 25: 0
depth 26: 0
depth 27: 0
depth 28: 0
depth 29: 0
Total: 2780885
-----------------------------
-----------------------------
	Captured at Filter
-----------------------------
depth 0: 0
depth 1: 32812
depth 2: 32396
depth 3: 32511
depth 4: 32443
depth 5: 32147
depth 6: 31373
depth 7: 29444
depth 8: 21963
depth 9: 16177
depth 10: 4917
depth 11: 797
depth 12: 91
depth 13: 18
depth 14: 0
depth 15: 2
depth 16: 0
depth 17: 0
depth 18: 0
depth 19: 0
depth 20: 0
depth 21: 0
depth 22: 0
depth 23: 0
depth 24: 0
depth 25: 0
depth 26: 0
depth 27: 0
depth 28: 0
depth 29: 0
-----------------------------
-----------------------------
		Lost at Page
-----------------------------
depth 0: 0
depth 1: 6621
depth 2: 12804
depth 3: 19108
depth 4: 25447
depth 5: 31661
depth 6: 37477
depth 7: 40588
depth 8: 35702
depth 9: 28945
depth 10: 13631
depth 11: 6476
depth 12: 3436
depth 13: 1573
depth 14: 118
depth 15: 126
depth 16: 0
depth 17: 0
depth 18: 0
depth 19: 0
depth 20: 0
depth 21: 0
depth 22: 0
depth 23: 0
depth 24: 0
depth 25: 0
depth 26: 0
depth 27: 0
depth 28: 0
depth 29: 0
-----------------------------
-----------------------------
	Lost due to PQ Size
-----------------------------
160592
-----------------------------
ST read accesses: 360505
ST write accesses: 5839
PT read accesses: 17017875
PT write accesses: 536504
FILTER read accesses: 3691004
FILTER write accesses: 973208
GHR read accesses: 1333450
GHR write accesses: 230249
GHR counter read accesses: 14333372
GHR counter write accesses: 828651
ST tag read accesses: 144028985
ST tag write accesses: 4244467

DRAM Statistics
 CHANNEL 0
 RQ ROW_BUFFER_HIT:      59995  ROW_BUFFER_MISS:     299456
 DBUS_CONGESTED:     261448
 WQ ROW_BUFFER_HIT:      58764  ROW_BUFFER_MISS:     162527  FULL:          0

 AVG_CONGESTED_CYCLE: 14
 All warmup complete: 2
Channel 0 Bank busy for read cycles: 0
Channel 0 Bank busy for write cycles: 0
Channel 0
Rank 0
0banks busy for read cycles: 9246381
0banks busy for write cycles: 43686
1banks busy for read cycles: 11433298
1banks busy for write cycles: 4858746
2banks busy for read cycles: 8291864
2banks busy for write cycles: 2902963
3banks busy for read cycles: 2417140
3banks busy for write cycles: 1343091
4banks busy for read cycles: 1328116
4banks busy for write cycles: 896952
5banks busy for read cycles: 589679
5banks busy for write cycles: 514724
6banks busy for read cycles: 376544
6banks busy for write cycles: 339165
7banks busy for read cycles: 345119
7banks busy for write cycles: 389326
8banks busy for read cycles: 532760
8banks busy for write cycles: 2842829

CPU 0 Branch Prediction Accuracy: 99.7993% MPKI: 0.02604 Average ROB Occupancy at Mispredict: 64.4002
Branch types
NOT_BRANCH: 49351064 98.7021%
BRANCH_DIRECT_JUMP: 8 1.6e-05%
BRANCH_INDIRECT: 0 0%
BRANCH_CONDITIONAL: 648608 1.29722%
BRANCH_DIRECT_CALL: 0 0%
BRANCH_INDIRECT_CALL: 0 0%
BRANCH_RETURN: 0 0%
BRANCH_OTHER: 0 0%

@sumon_overall_L1D         0         0         0         0         0         0
@Sumon_Early_by_class_L1D         0         0         0         0
@Sumon_Late_by_class_L1D         0         0         0         0

@Sumon_Early_by_cycle_L1D         0         0         0         0         0         0         0         0         0         0         0         0
@Sumon_Late_by_cycle_L1D         0         0         0         0         0         0         0         0         0         0         0         0
@Sumon_Early_stream_L1D         0         0         0         0         0         0         0         0         0         0         0         0
@Sumon_Early_CS_L1D         0         0         0         0         0         0         0         0         0         0         0         0
@Sumon_Early_CPLX_L1D         0         0         0         0         0         0         0         0         0         0         0         0
@Sumon_Late_stream_L1D         0         0         0         0         0         0         0         0         0         0         0         0
@Sumon_Late_CS_L1D         0         0         0         0         0         0         0         0         0         0         0         0
@Sumon_Late_CPLX_L1D         0         0         0         0         0         0         0         0         0         0         0         0
@sumon_overall_L2C    178143       416      1406    179535   2435488   2570807
@Sumon_Early_by_class_L2C         0         0         0         0
@Sumon_Late_by_class_L2C         0         0         0         0

@Sumon_Early_by_cycle_L2C     35483     24804     75356      2295      1005     39165        17         6         2         1         0         9
@Sumon_Late_by_cycle_L2C       305        42        48        11         5         5         0         0         0         0         0         0
@Sumon_Early_stream_L2C         0         0         0         0         0         0         0         0         0         0         0         0
@Sumon_Early_CS_L2C         0         0         0         0         0         0         0         0         0         0         0         0
@Sumon_Early_CPLX_L2C         0         0         0         0         0         0         0         0         0         0         0         0
@Sumon_Late_stream_L2C         0         0         0         0         0         0         0         0         0         0         0         0
@Sumon_Late_CS_L2C         0         0         0         0         0         0         0         0         0         0         0         0
@Sumon_Late_CPLX_L2C         0         0         0         0         0         0         0         0         0         0         0         0
DRAM PAGES: 1048576
Allocated PAGES: 6614
