Initialize SIGNATURE TABLE
ST_SET: 1
ST_WAY: 256
ST_TAG_BIT: 16
ST_TAG_MASK: ffff

Initialize PATTERN TABLE
PT_SET: 512
PT_WAY: 4
SIG_DELTA_BIT: 7
C_SIG_BIT: 4
C_DELTA_BIT: 4

Initialize PREFETCH FILTER
FILTER_SET: 1024

*** ChampSim Multicore Out-of-Order Simulator ***

Warmup Instructions: 10000000
Simulation Instructions: 50000000
Number of CPUs: 1
LLC sets: 2048
LLC ways: 16
Off-chip DRAM Size: 4096 MB Channels: 1 Width: 64-bit Data Rate: 1600 MT/s
CPU 0 runs traces/SPEC2017/654.roms_s-294B.champsimtrace.xz
.xz
CPU 0 Bimodal branch predictor
BTB has LRU replacement policy
ITLB has LRU replacement policy
DTLB has LRU replacement policy
STLB has LRU replacement policy
L1I has LRU replacement policy
L1D has LRU replacement policy
ST_WAYS: 256
PT_SETS: 512
L2C has LRU replacement policy
LLC has LRU replacement policy
Heartbeat CPU 0 instructions: 10000001 cycles: 3209576 heartbeat IPC: 3.11568 cumulative IPC: 3.11568 (Simulation time: 0 hr 13 min 18 sec) 

Warmup complete CPU 0 instructions: 10000001 cycles: 3209576 (Simulation time: 0 hr 13 min 18 sec) 

Heartbeat CPU 0 instructions: 20000000 cycles: 12934949 heartbeat IPC: 1.02824 cumulative IPC: 1.02824 (Simulation time: 0 hr 27 min 25 sec) 
Heartbeat CPU 0 instructions: 30000003 cycles: 22651015 heartbeat IPC: 1.02922 cumulative IPC: 1.02873 (Simulation time: 0 hr 40 min 46 sec) 
Heartbeat CPU 0 instructions: 40000001 cycles: 32374518 heartbeat IPC: 1.02844 cumulative IPC: 1.02863 (Simulation time: 0 hr 53 min 5 sec) 
Heartbeat CPU 0 instructions: 50000002 cycles: 42101486 heartbeat IPC: 1.02807 cumulative IPC: 1.02849 (Simulation time: 1 hr 4 min 13 sec) 
Heartbeat CPU 0 instructions: 60000002 cycles: 51767317 heartbeat IPC: 1.03457 cumulative IPC: 1.0297 (Simulation time: 1 hr 12 min 15 sec) 
Finished CPU 0 instructions: 50000001 cycles: 48557741 cumulative IPC: 1.0297 (Simulation time: 1 hr 12 min 15 sec) 

ChampSim completed all CPUs

Region of Interest Statistics

CPU 0 cumulative IPC: 1.0297 instructions: 50000001 cycles: 48557741
ITLB TOTAL     ACCESS:    6711381  HIT:    6711381  MISS:          0  HIT %:        100  MISS %:          0   MPKI: 0
ITLB LOAD TRANSLATION ACCESS:    6711381  HIT:    6711381  MISS:          0  HIT %:        100  MISS %:          0   MPKI: 0
ITLB PREFETCH  REQUESTED:          0  ISSUED:          0  USEFUL:          0  USELESS:          0
ITLB USEFUL LOAD PREFETCHES:          0 PREFETCH ISSUED TO LOWER LEVEL:          0  ACCURACY: -nan
ITLB TIMELY PREFETCHES:          0 LATE PREFETCHES: 0 DROPPED PREFETCHES: 0
ITLB PREFETCHES SAME FILL-ORIGIN LEVEL: 0 DIFFERENT FILL-ORIGIN LEVEL: 0
ITLB AVERAGE MISS LATENCY: -nan cycles
ITLB RQ	ACCESS:    8368933	FORWARD:          0	MERGED:    1657553	TO_CACHE:    6711380

DTLB TOTAL     ACCESS:   12887825  HIT:   12868070  MISS:      19755  HIT %:    99.8467  MISS %:   0.153284   MPKI: 0.3951
DTLB LOAD TRANSLATION ACCESS:   12887825  HIT:   12868070  MISS:      19755  HIT %:    99.8467  MISS %:   0.153284   MPKI: 0.3951
DTLB PREFETCH  REQUESTED:          0  ISSUED:          0  USEFUL:          0  USELESS:          0
DTLB USEFUL LOAD PREFETCHES:          0 PREFETCH ISSUED TO LOWER LEVEL:          0  ACCURACY: -nan
DTLB TIMELY PREFETCHES:          0 LATE PREFETCHES: 0 DROPPED PREFETCHES: 0
DTLB PREFETCHES SAME FILL-ORIGIN LEVEL: 0 DIFFERENT FILL-ORIGIN LEVEL: 0
DTLB AVERAGE MISS LATENCY: 384.635 cycles
DTLB RQ	ACCESS:   14060470	FORWARD:          0	MERGED:    1170208	TO_CACHE:   12890262

STLB TOTAL     ACCESS:      19755  HIT:       3324  MISS:      16431  HIT %:    16.8261  MISS %:    83.1739   MPKI: 0.32862
STLB LOAD TRANSLATION ACCESS:      19755  HIT:       3324  MISS:      16431  HIT %:    16.8261  MISS %:    83.1739   MPKI: 0.32862
STLB PREFETCH  REQUESTED:          0  ISSUED:          0  USEFUL:          0  USELESS:          0
STLB USEFUL LOAD PREFETCHES:          0 PREFETCH ISSUED TO LOWER LEVEL:          0  ACCURACY: -nan
STLB TIMELY PREFETCHES:          0 LATE PREFETCHES: 0 DROPPED PREFETCHES: 0
STLB PREFETCHES SAME FILL-ORIGIN LEVEL: 0 DIFFERENT FILL-ORIGIN LEVEL: 0
STLB AVERAGE MISS LATENCY: 450.381 cycles
STLB RQ	ACCESS:      19755	FORWARD:          0	MERGED:          0	TO_CACHE:      19755

STLB Hit, L1D data hit: 0
STLB Hit, L2C data hit: 0
STLB Hit, LLC data hit: 0
STLB Hit, LLC data miss: 0
STLB STLB hints to L2: 0
L1D TOTAL     ACCESS:   13879104  HIT:   13232435  MISS:     646669  HIT %:    95.3407  MISS %:     4.6593   MPKI: 12.9334
L1D LOAD      ACCESS:   12204638  HIT:   11563179  MISS:     641459  HIT %:    94.7441  MISS %:    5.25586   MPKI: 12.8292
L1D RFO       ACCESS:    1674466  HIT:    1669256  MISS:       5210  HIT %:    99.6889  MISS %:   0.311144   MPKI: 0.1042
L1D PREFETCH  REQUESTED:          0  ISSUED:          0  USEFUL:          0  USELESS:          0
L1D USEFUL LOAD PREFETCHES:          0 PREFETCH ISSUED TO LOWER LEVEL:          0  ACCURACY: -nan
L1D TIMELY PREFETCHES:          0 LATE PREFETCHES: 0 DROPPED PREFETCHES: 0
L1D PREFETCHES SAME FILL-ORIGIN LEVEL: 0 DIFFERENT FILL-ORIGIN LEVEL: 0
L1D AVERAGE MISS LATENCY: 37.8051 cycles
L1D RQ	ACCESS:   19112601	FORWARD:          0	MERGED:    6751998	TO_CACHE:   12360595
L1D WQ	ACCESS:    1699875	FORWARD:          8	MERGED:          0	TO_CACHE:    1699875

L1D UNIQUE REGIONS ACCESSED: 0
L1D REGIONS CONFLICTS: 0
L1D Cross Page Prefetch Requests: 0
L1D Same Page Prefetch Requests: 0
L1D ROI Sum of L1D PQ occupancy: 0
L1D PREFETCHES PUSHED FROM L2C: 0
L1I TOTAL     ACCESS:    8368933  HIT:    8368933  MISS:          0  HIT %:        100  MISS %:          0   MPKI: 0
L1I LOAD      ACCESS:    8368933  HIT:    8368933  MISS:          0  HIT %:        100  MISS %:          0   MPKI: 0
L1I PREFETCH  REQUESTED:          0  ISSUED:          0  USEFUL:          0  USELESS:          0
L1I USEFUL LOAD PREFETCHES:          0 PREFETCH ISSUED TO LOWER LEVEL:          0  ACCURACY: -nan
L1I TIMELY PREFETCHES:          0 LATE PREFETCHES: 0 DROPPED PREFETCHES: 0
L1I PREFETCHES SAME FILL-ORIGIN LEVEL: 0 DIFFERENT FILL-ORIGIN LEVEL: 0
L1I AVERAGE MISS LATENCY: -nan cycles
L1I RQ	ACCESS:   13398687	FORWARD:          0	MERGED:    5029754	TO_CACHE:    8368933

BTB TOTAL     ACCESS:    2106371  HIT:    2106360  MISS:         11  HIT %:    99.9995  MISS %: 0.000522225   MPKI: 0.00022
BTB BRANCH_DIRECT_JUMP	ACCESS:         40  HIT:         39  MISS:          1
BTB BRANCH_INDIRECT	ACCESS:          0  HIT:          0  MISS:          0
BTB BRANCH_CONDITIONAL	ACCESS:    2106251  HIT:    2106243  MISS:          8
BTB BRANCH_DIRECT_CALL	ACCESS:         40  HIT:         39  MISS:          1
BTB BRANCH_INDIRECT_CALL	ACCESS:          0  HIT:          0  MISS:          0
BTB BRANCH_RETURN	ACCESS:         40  HIT:         39  MISS:          1
BTB BRANCH_OTHER ACCESS:          0  HIT:          0  MISS:          0

L2C TOTAL     ACCESS:    1098243  HIT:     431623  MISS:     666620  HIT %:    39.3012  MISS %:    60.6988   MPKI: 13.3324
L2C LOAD      ACCESS:     641459  HIT:     413313  MISS:     228146  HIT %:    64.4333  MISS %:    35.5667   MPKI: 4.56292
L2C DATA LOAD MPKI: 4.56292
L2C INSTRUCTION LOAD MPKI: 0
L2C RFO       ACCESS:       5210  HIT:          0  MISS:       5210  HIT %:          0  MISS %:        100   MPKI: 0.1042
L2C PREFETCH  ACCESS:     418645  HIT:       3431  MISS:     415214  HIT %:   0.819549  MISS %:    99.1805   MPKI: 8.30428
L2C DATA PREFETCH MPKI: 8.30428
L2C INSTRUCTION PREFETCH MPKI: 0
L2C WRITEBACK ACCESS:       8284  HIT:       3783  MISS:       4501  HIT %:    45.6663  MISS %:    54.3337   MPKI: 0.09002
L2C LOAD TRANSLATION ACCESS:      24645  HIT:      11096  MISS:      13549  HIT %:    45.0233  MISS %:    54.9767   MPKI: 0.27098
L2C PREFETCH  REQUESTED:    3234834  ISSUED:    2692653  USEFUL:     408754  USELESS:       6448
L2C USEFUL LOAD PREFETCHES:     408754 PREFETCH ISSUED TO LOWER LEVEL:    2687241  ACCURACY: 15.2109
L2C TIMELY PREFETCHES:     408754 LATE PREFETCHES: 234 DROPPED PREFETCHES: 0
L2C PREFETCHES SAME FILL-ORIGIN LEVEL: 415448 DIFFERENT FILL-ORIGIN LEVEL: 2271793
L2C AVERAGE MISS LATENCY: 46.2805 cycles
L2C RQ	ACCESS:     671314	FORWARD:          0	MERGED:          0	TO_CACHE:     671314
L2C WQ	ACCESS:       8284	FORWARD:          0	MERGED:          0	TO_CACHE:       8284
L2C PQ	ACCESS:    2692653	FORWARD:          0	MERGED:       1478	TO_CACHE:    2691175

L2C Instructions Evicting Data 0
L2C Translations Evicting Data 13255
L2C Data Evicting Data 635399
L2C Instructions Evicting Instructions 0
L2C Translations Evicting Instructions 0
L2C Data Evicting Instructions 0
L2C Instructions Evicting Translations 0
L2C Translations Evicting Translations 294
L2C Data Evicting Translations 13171
L2C Dense regions hint from L2: 0
PSCL5 TOTAL     ACCESS:      16431  HIT:      16431  MISS:          0  HIT %:        100  MISS %:          0   MPKI: 0
PSCL5 LOAD TRANSLATION ACCESS:      16431  HIT:      16431  MISS:          0  HIT %:        100  MISS %:          0   MPKI: 0
PSCL5 PREFETCH  REQUESTED:          0  ISSUED:          0  USEFUL:          0  USELESS:          0
PSCL5 USEFUL LOAD PREFETCHES:          0 PREFETCH ISSUED TO LOWER LEVEL:          0  ACCURACY: -nan
PSCL5 TIMELY PREFETCHES:          0 LATE PREFETCHES: 0 DROPPED PREFETCHES: 0
PSCL5 PREFETCHES SAME FILL-ORIGIN LEVEL: 0 DIFFERENT FILL-ORIGIN LEVEL: 0

PSCL4 TOTAL     ACCESS:      16431  HIT:      16431  MISS:          0  HIT %:        100  MISS %:          0   MPKI: 0
PSCL4 LOAD TRANSLATION ACCESS:      16431  HIT:      16431  MISS:          0  HIT %:        100  MISS %:          0   MPKI: 0
PSCL4 PREFETCH  REQUESTED:          0  ISSUED:          0  USEFUL:          0  USELESS:          0
PSCL4 USEFUL LOAD PREFETCHES:          0 PREFETCH ISSUED TO LOWER LEVEL:          0  ACCURACY: -nan
PSCL4 TIMELY PREFETCHES:          0 LATE PREFETCHES: 0 DROPPED PREFETCHES: 0
PSCL4 PREFETCHES SAME FILL-ORIGIN LEVEL: 0 DIFFERENT FILL-ORIGIN LEVEL: 0

PSCL3 TOTAL     ACCESS:      16430  HIT:      16425  MISS:          5  HIT %:    99.9696  MISS %:  0.0304321   MPKI: 0.0001
PSCL3 LOAD TRANSLATION ACCESS:      16430  HIT:      16425  MISS:          5  HIT %:    99.9696  MISS %:  0.0304321   MPKI: 0.0001
PSCL3 PREFETCH  REQUESTED:          0  ISSUED:          0  USEFUL:          0  USELESS:          0
PSCL3 USEFUL LOAD PREFETCHES:          0 PREFETCH ISSUED TO LOWER LEVEL:          0  ACCURACY: -nan
PSCL3 TIMELY PREFETCHES:          0 LATE PREFETCHES: 0 DROPPED PREFETCHES: 0
PSCL3 PREFETCHES SAME FILL-ORIGIN LEVEL: 0 DIFFERENT FILL-ORIGIN LEVEL: 0

PSCL2 TOTAL     ACCESS:      16431  HIT:       8154  MISS:       8277  HIT %:    49.6257  MISS %:    50.3743   MPKI: 0.16554
PSCL2 LOAD TRANSLATION ACCESS:      16431  HIT:       8154  MISS:       8277  HIT %:    49.6257  MISS %:    50.3743   MPKI: 0.16554
PSCL2 PREFETCH  REQUESTED:          0  ISSUED:          0  USEFUL:          0  USELESS:          0
PSCL2 USEFUL LOAD PREFETCHES:          0 PREFETCH ISSUED TO LOWER LEVEL:          0  ACCURACY: -nan
PSCL2 TIMELY PREFETCHES:          0 LATE PREFETCHES: 0 DROPPED PREFETCHES: 0
PSCL2 PREFETCHES SAME FILL-ORIGIN LEVEL: 0 DIFFERENT FILL-ORIGIN LEVEL: 0

LLC TOTAL     ACCESS:    2936223  HIT:    2358740  MISS:     577483  HIT %:    80.3325  MISS %:    19.6675   MPKI: 11.5497
LLC LOAD      ACCESS:     227912  HIT:     173683  MISS:      54229  HIT %:    76.2062  MISS %:    23.7938   MPKI: 1.08458
LLC RFO       ACCESS:       5210  HIT:         73  MISS:       5137  HIT %:    1.40115  MISS %:    98.5988   MPKI: 0.10274
LLC PREFETCH  ACCESS:    2683949  HIT:    2170256  MISS:     513693  HIT %:    80.8606  MISS %:    19.1394   MPKI: 10.2739
LLC WRITEBACK ACCESS:       5603  HIT:       5307  MISS:        296  HIT %:    94.7171  MISS %:    5.28288   MPKI: 0.00592
LLC LOAD TRANSLATION ACCESS:      13549  HIT:       9421  MISS:       4128  HIT %:    69.5328  MISS %:    30.4672   MPKI: 0.08256
LLC PREFETCH  REQUESTED:          0  ISSUED:          0  USEFUL:     161915  USELESS:     352694
LLC USEFUL LOAD PREFETCHES:     161915 PREFETCH ISSUED TO LOWER LEVEL:     513795  ACCURACY: 31.5135
LLC TIMELY PREFETCHES:     161915 LATE PREFETCHES: 100 DROPPED PREFETCHES: 0
LLC PREFETCHES SAME FILL-ORIGIN LEVEL: 487667 DIFFERENT FILL-ORIGIN LEVEL: 0
LLC AVERAGE MISS LATENCY: 113.538 cycles
LLC RQ	ACCESS:     246671	FORWARD:          0	MERGED:          0	TO_CACHE:     246671
LLC WQ	ACCESS:       5603	FORWARD:          0	MERGED:          0	TO_CACHE:       5603
LLC PQ	ACCESS:    2687241	FORWARD:          0	MERGED:        294	TO_CACHE:    2686947

LLC Dense regions hint to LLC: 0

RAW hits: 75
Loads Generated: 19112677
Loads sent to L1D: 19112601
Stores Generated: 1699875
Stores sent to L1D: 1699875
Major fault: 0 Minor fault: 20110
Allocated PAGES: 20110
 All Calls: 769974
 Critical Calls: 769974
------------------
Depth Distribution
------------------
depth 0: 0
depth 1: 668086
depth 2: 624537
depth 3: 600732
depth 4: 582341
depth 5: 542294
depth 6: 257495
depth 7: 31288
depth 8: 2693
depth 9: 0
depth 10: 0
depth 11: 0
depth 12: 0
depth 13: 0
depth 14: 0
depth 15: 0
depth 16: 0
depth 17: 0
depth 18: 0
depth 19: 0
depth 20: 0
depth 21: 0
depth 22: 0
depth 23: 0
depth 24: 0
depth 25: 0
depth 26: 0
depth 27: 0
depth 28: 0
depth 29: 0
Total: 3309466
-----------------------------
-----------------------------
	Captured at Filter
-----------------------------
depth 0: 0
depth 1: 4699
depth 2: 4523
depth 3: 4432
depth 4: 4349
depth 5: 4272
depth 6: 2251
depth 7: 305
depth 8: 38
depth 9: 0
depth 10: 0
depth 11: 0
depth 12: 0
depth 13: 0
depth 14: 0
depth 15: 0
depth 16: 0
depth 17: 0
depth 18: 0
depth 19: 0
depth 20: 0
depth 21: 0
depth 22: 0
depth 23: 0
depth 24: 0
depth 25: 0
depth 26: 0
depth 27: 0
depth 28: 0
depth 29: 0
-----------------------------
-----------------------------
		Lost at Page
-----------------------------
depth 0: 0
depth 1: 11819
depth 2: 23383
depth 3: 35043
depth 4: 46756
depth 5: 58432
depth 6: 35728
depth 7: 5370
depth 8: 493
depth 9: 0
depth 10: 0
depth 11: 0
depth 12: 0
depth 13: 0
depth 14: 0
depth 15: 0
depth 16: 0
depth 17: 0
depth 18: 0
depth 19: 0
depth 20: 0
depth 21: 0
depth 22: 0
depth 23: 0
depth 24: 0
depth 25: 0
depth 26: 0
depth 27: 0
depth 28: 0
depth 29: 0
-----------------------------
-----------------------------
	Lost due to PQ Size
-----------------------------
666374
-----------------------------
ST read accesses: 621742
ST write accesses: 19717
PT read accesses: 20317453
PT write accesses: 918097
FILTER read accesses: 4562792
FILTER write accesses: 1490046
GHR read accesses: 1091850
GHR write accesses: 171602
GHR counter read accesses: 17542518
GHR counter write accesses: 1513729
ST tag read accesses: 256765958
ST tag write accesses: 8884470

DRAM Statistics
 CHANNEL 0
 RQ ROW_BUFFER_HIT:     479386  ROW_BUFFER_MISS:      97801
 DBUS_CONGESTED:     278239
 WQ ROW_BUFFER_HIT:        831  ROW_BUFFER_MISS:       4395  FULL:          0

 AVG_CONGESTED_CYCLE: 13
 All warmup complete: 2
Channel 0 Bank busy for read cycles: 0
Channel 0 Bank busy for write cycles: 0
Channel 0
Rank 0
0banks busy for read cycles: 26723858
0banks busy for write cycles: 3617
1banks busy for read cycles: 9461123
1banks busy for write cycles: 538082
2banks busy for read cycles: 5805803
2banks busy for write cycles: 127548
3banks busy for read cycles: 2682866
3banks busy for write cycles: 32069
4banks busy for read cycles: 1124736
4banks busy for write cycles: 14107
5banks busy for read cycles: 629878
5banks busy for write cycles: 7398
6banks busy for read cycles: 701539
6banks busy for write cycles: 3217
7banks busy for read cycles: 552902
7banks busy for write cycles: 1931
8banks busy for read cycles: 145645
8banks busy for write cycles: 1423

CPU 0 Branch Prediction Accuracy: 99.9267% MPKI: 0.03682 Average ROB Occupancy at Mispredict: 112.748
Branch types
NOT_BRANCH: 47488929 94.9779%
BRANCH_DIRECT_JUMP: 40 8e-05%
BRANCH_INDIRECT: 0 0%
BRANCH_CONDITIONAL: 2510869 5.02174%
BRANCH_DIRECT_CALL: 40 8e-05%
BRANCH_INDIRECT_CALL: 0 0%
BRANCH_RETURN: 40 8e-05%
BRANCH_OTHER: 0 0%

@sumon_overall_L1D         0         0         0         0         0         0
@Sumon_Early_by_class_L1D         0         0         0         0
@Sumon_Late_by_class_L1D         0         0         0         0

@Sumon_Early_by_cycle_L1D         0         0         0         0         0         0         0         0         0         0         0         0
@Sumon_Late_by_cycle_L1D         0         0         0         0         0         0         0         0         0         0         0         0
@Sumon_Early_stream_L1D         0         0         0         0         0         0         0         0         0         0         0         0
@Sumon_Early_CS_L1D         0         0         0         0         0         0         0         0         0         0         0         0
@Sumon_Early_CPLX_L1D         0         0         0         0         0         0         0         0         0         0         0         0
@Sumon_Late_stream_L1D         0         0         0         0         0         0         0         0         0         0         0         0
@Sumon_Late_CS_L1D         0         0         0         0         0         0         0         0         0         0         0         0
@Sumon_Late_CPLX_L1D         0         0         0         0         0         0         0         0         0         0         0         0
@sumon_overall_L2C    408754       234      6448    415214   2692653   3234834
@Sumon_Early_by_class_L2C         0         0         0         0
@Sumon_Late_by_class_L2C         0         0         0         0

@Sumon_Early_by_cycle_L2C      1634      5482    377419     19320      3347      1551         0         0         0         0         0         1
@Sumon_Late_by_cycle_L2C       202        32         0         0         0         0         0         0         0         0         0         0
@Sumon_Early_stream_L2C         0         0         0         0         0         0         0         0         0         0         0         0
@Sumon_Early_CS_L2C         0         0         0         0         0         0         0         0         0         0         0         0
@Sumon_Early_CPLX_L2C         0         0         0         0         0         0         0         0         0         0         0         0
@Sumon_Late_stream_L2C         0         0         0         0         0         0         0         0         0         0         0         0
@Sumon_Late_CS_L2C         0         0         0         0         0         0         0         0         0         0         0         0
@Sumon_Late_CPLX_L2C         0         0         0         0         0         0         0         0         0         0         0         0
DRAM PAGES: 1048576
Allocated PAGES: 20110
