Initialize SIGNATURE TABLE
ST_SET: 1
ST_WAY: 256
ST_TAG_BIT: 16
ST_TAG_MASK: ffff

Initialize PATTERN TABLE
PT_SET: 512
PT_WAY: 4
SIG_DELTA_BIT: 7
C_SIG_BIT: 4
C_DELTA_BIT: 4

Initialize PREFETCH FILTER
FILTER_SET: 1024

*** ChampSim Multicore Out-of-Order Simulator ***

Warmup Instructions: 10000000
Simulation Instructions: 50000000
Number of CPUs: 1
LLC sets: 2048
LLC ways: 16
Off-chip DRAM Size: 4096 MB Channels: 1 Width: 64-bit Data Rate: 533 MT/s
CPU 0 runs traces/SPEC2017/602.gcc_s-734B.champsimtrace.xz
.xz
CPU 0 Bimodal branch predictor
BTB has LRU replacement policy
ITLB has LRU replacement policy
DTLB has LRU replacement policy
STLB has LRU replacement policy
L1I has LRU replacement policy
L1D has LRU replacement policy
ST_WAYS: 256
PT_SETS: 512
L2C has LRU replacement policy
LLC has LRU replacement policy
Heartbeat CPU 0 instructions: 10000000 cycles: 3227690 heartbeat IPC: 3.09819 cumulative IPC: 3.09819 (Simulation time: 0 hr 17 min 30 sec) 

Warmup complete CPU 0 instructions: 10000003 cycles: 3227691 (Simulation time: 0 hr 17 min 30 sec) 

Heartbeat CPU 0 instructions: 20000000 cycles: 29036913 heartbeat IPC: 0.387458 cumulative IPC: 0.387458 (Simulation time: 0 hr 39 min 46 sec) 
Heartbeat CPU 0 instructions: 30000000 cycles: 54529099 heartbeat IPC: 0.392277 cumulative IPC: 0.389853 (Simulation time: 1 hr 1 min 47 sec) 
Heartbeat CPU 0 instructions: 40000002 cycles: 80349784 heartbeat IPC: 0.387286 cumulative IPC: 0.388994 (Simulation time: 1 hr 23 min 44 sec) 
Heartbeat CPU 0 instructions: 50000000 cycles: 105708179 heartbeat IPC: 0.394347 cumulative IPC: 0.390318 (Simulation time: 1 hr 45 min 15 sec) 
Heartbeat CPU 0 instructions: 60000000 cycles: 131103806 heartbeat IPC: 0.393769 cumulative IPC: 0.391003 (Simulation time: 5 hr 48 min 51 sec) 
Finished CPU 0 instructions: 50000000 cycles: 127876136 cumulative IPC: 0.391003 (Simulation time: 5 hr 48 min 53 sec) 

ChampSim completed all CPUs

Region of Interest Statistics

CPU 0 cumulative IPC: 0.391003 instructions: 50000000 cycles: 127876136
ITLB TOTAL     ACCESS:    7537216  HIT:    7537214  MISS:          2  HIT %:        100  MISS %: 2.6535e-05   MPKI: 4e-05
ITLB LOAD TRANSLATION ACCESS:    7537216  HIT:    7537214  MISS:          2  HIT %:        100  MISS %: 2.6535e-05   MPKI: 4e-05
ITLB PREFETCH  REQUESTED:          0  ISSUED:          0  USEFUL:          0  USELESS:          0
ITLB USEFUL LOAD PREFETCHES:          0 PREFETCH ISSUED TO LOWER LEVEL:          0  ACCURACY: -nan
ITLB TIMELY PREFETCHES:          0 LATE PREFETCHES: 0 DROPPED PREFETCHES: 0
ITLB PREFETCHES SAME FILL-ORIGIN LEVEL: 0 DIFFERENT FILL-ORIGIN LEVEL: 0
ITLB AVERAGE MISS LATENCY: 578.5 cycles
ITLB RQ	ACCESS:    8175175	FORWARD:          0	MERGED:     637958	TO_CACHE:    7537217

DTLB TOTAL     ACCESS:   15076376  HIT:   15062004  MISS:      14372  HIT %:    99.9047  MISS %:  0.0953279   MPKI: 0.28744
DTLB LOAD TRANSLATION ACCESS:   15076376  HIT:   15062004  MISS:      14372  HIT %:    99.9047  MISS %:  0.0953279   MPKI: 0.28744
DTLB PREFETCH  REQUESTED:          0  ISSUED:          0  USEFUL:          0  USELESS:          0
DTLB USEFUL LOAD PREFETCHES:          0 PREFETCH ISSUED TO LOWER LEVEL:          0  ACCURACY: -nan
DTLB TIMELY PREFETCHES:          0 LATE PREFETCHES: 0 DROPPED PREFETCHES: 0
DTLB PREFETCHES SAME FILL-ORIGIN LEVEL: 0 DIFFERENT FILL-ORIGIN LEVEL: 0
DTLB AVERAGE MISS LATENCY: 103.741 cycles
DTLB RQ	ACCESS:   15215431	FORWARD:          0	MERGED:     138754	TO_CACHE:   15076677

STLB TOTAL     ACCESS:      14374  HIT:       4101  MISS:      10273  HIT %:    28.5307  MISS %:    71.4693   MPKI: 0.20546
STLB LOAD TRANSLATION ACCESS:      14374  HIT:       4101  MISS:      10273  HIT %:    28.5307  MISS %:    71.4693   MPKI: 0.20546
STLB PREFETCH  REQUESTED:          0  ISSUED:          0  USEFUL:          0  USELESS:          0
STLB USEFUL LOAD PREFETCHES:          0 PREFETCH ISSUED TO LOWER LEVEL:          0  ACCURACY: -nan
STLB TIMELY PREFETCHES:          0 LATE PREFETCHES: 0 DROPPED PREFETCHES: 0
STLB PREFETCHES SAME FILL-ORIGIN LEVEL: 0 DIFFERENT FILL-ORIGIN LEVEL: 0
STLB AVERAGE MISS LATENCY: 132.615 cycles
STLB RQ	ACCESS:      14374	FORWARD:          0	MERGED:          0	TO_CACHE:      14374

STLB Hit, L1D data hit: 0
STLB Hit, L2C data hit: 0
STLB Hit, LLC data hit: 0
STLB Hit, LLC data miss: 0
STLB STLB hints to L2: 0
L1D TOTAL     ACCESS:   15140107  HIT:   14329660  MISS:     810447  HIT %:     94.647  MISS %:    5.35298   MPKI: 16.2089
L1D LOAD      ACCESS:   10126221  HIT:    9315863  MISS:     810358  HIT %:    91.9974  MISS %:    8.00257   MPKI: 16.2072
L1D RFO       ACCESS:    5013886  HIT:    5013797  MISS:         89  HIT %:    99.9982  MISS %: 0.00177507   MPKI: 0.00178
L1D PREFETCH  REQUESTED:          0  ISSUED:          0  USEFUL:          0  USELESS:          0
L1D USEFUL LOAD PREFETCHES:          0 PREFETCH ISSUED TO LOWER LEVEL:          0  ACCURACY: -nan
L1D TIMELY PREFETCHES:          0 LATE PREFETCHES: 0 DROPPED PREFETCHES: 0
L1D PREFETCHES SAME FILL-ORIGIN LEVEL: 0 DIFFERENT FILL-ORIGIN LEVEL: 0
L1D AVERAGE MISS LATENCY: 23.1351 cycles
L1D RQ	ACCESS:   13120635	FORWARD:          0	MERGED:    2916639	TO_CACHE:   10201317
L1D WQ	ACCESS:    5633019	FORWARD:       2679	MERGED:     618905	TO_CACHE:    5014114

L1D UNIQUE REGIONS ACCESSED: 0
L1D REGIONS CONFLICTS: 0
L1D Cross Page Prefetch Requests: 0
L1D Same Page Prefetch Requests: 0
L1D ROI Sum of L1D PQ occupancy: 0
L1D PREFETCHES PUSHED FROM L2C: 0
L1I TOTAL     ACCESS:    8175166  HIT:    8175111  MISS:         55  HIT %:    99.9993  MISS %: 0.000672769   MPKI: 0.0011
L1I LOAD      ACCESS:    8175166  HIT:    8175111  MISS:         55  HIT %:    99.9993  MISS %: 0.000672769   MPKI: 0.0011
L1I PREFETCH  REQUESTED:          0  ISSUED:          0  USEFUL:          0  USELESS:          0
L1I USEFUL LOAD PREFETCHES:          0 PREFETCH ISSUED TO LOWER LEVEL:          0  ACCURACY: -nan
L1I TIMELY PREFETCHES:          0 LATE PREFETCHES: 0 DROPPED PREFETCHES: 0
L1I PREFETCHES SAME FILL-ORIGIN LEVEL: 0 DIFFERENT FILL-ORIGIN LEVEL: 0
L1I AVERAGE MISS LATENCY: 215.364 cycles
L1I RQ	ACCESS:   13812881	FORWARD:          0	MERGED:    5637706	TO_CACHE:    8175175

BTB TOTAL     ACCESS:    9209261  HIT:    9202770  MISS:       6491  HIT %:    99.9295  MISS %:  0.0704834   MPKI: 0.12982
BTB BRANCH_DIRECT_JUMP	ACCESS:    1247487  HIT:    1247450  MISS:         37
BTB BRANCH_INDIRECT	ACCESS:          0  HIT:          0  MISS:          0
BTB BRANCH_CONDITIONAL	ACCESS:    6708204  HIT:    6708123  MISS:         81
BTB BRANCH_DIRECT_CALL	ACCESS:     626785  HIT:     626768  MISS:         17
BTB BRANCH_INDIRECT_CALL	ACCESS:          0  HIT:          0  MISS:          0
BTB BRANCH_RETURN	ACCESS:     626785  HIT:     620429  MISS:       6356
BTB BRANCH_OTHER ACCESS:          0  HIT:          0  MISS:          0

L2C TOTAL     ACCESS:    3950360  HIT:    3539297  MISS:     411063  HIT %:    89.5943  MISS %:    10.4057   MPKI: 8.22126
L2C LOAD      ACCESS:     810413  HIT:     669188  MISS:     141225  HIT %:    82.5737  MISS %:    17.4263   MPKI: 2.8245
L2C DATA LOAD MPKI: 2.8234
L2C INSTRUCTION LOAD MPKI: 0.0011
L2C RFO       ACCESS:         89  HIT:         29  MISS:         60  HIT %:    32.5843  MISS %:    67.4157   MPKI: 0.0012
L2C PREFETCH  ACCESS:    3120780  HIT:    2854918  MISS:     265862  HIT %:    91.4809  MISS %:    8.51909   MPKI: 5.31724
L2C DATA PREFETCH MPKI: 5.31724
L2C INSTRUCTION PREFETCH MPKI: 0
L2C WRITEBACK ACCESS:       7977  HIT:       7976  MISS:          1  HIT %:    99.9875  MISS %:   0.012536   MPKI: 2e-05
L2C LOAD TRANSLATION ACCESS:      11101  HIT:       7186  MISS:       3915  HIT %:    64.7329  MISS %:    35.2671   MPKI: 0.0783
L2C PREFETCH  REQUESTED:    6760868  ISSUED:    6733476  USEFUL:     264780  USELESS:       1091
L2C USEFUL LOAD PREFETCHES:     264780 PREFETCH ISSUED TO LOWER LEVEL:    3863630  ACCURACY: 6.85314
L2C TIMELY PREFETCHES:     264780 LATE PREFETCHES: 1082 DROPPED PREFETCHES: 0
L2C PREFETCHES SAME FILL-ORIGIN LEVEL: 266944 DIFFERENT FILL-ORIGIN LEVEL: 3596686
L2C AVERAGE MISS LATENCY: 38.8112 cycles
L2C RQ	ACCESS:     821603	FORWARD:          0	MERGED:          0	TO_CACHE:     821603
L2C WQ	ACCESS:       7977	FORWARD:          0	MERGED:          0	TO_CACHE:       7977
L2C PQ	ACCESS:    6733476	FORWARD:          0	MERGED:      12024	TO_CACHE:    6721452

L2C Instructions Evicting Data 53
L2C Translations Evicting Data 3878
L2C Data Evicting Data 403116
L2C Instructions Evicting Instructions 0
L2C Translations Evicting Instructions 0
L2C Data Evicting Instructions 55
L2C Instructions Evicting Translations 2
L2C Translations Evicting Translations 37
L2C Data Evicting Translations 3921
L2C Dense regions hint from L2: 0
PSCL5 TOTAL     ACCESS:      10273  HIT:      10273  MISS:          0  HIT %:        100  MISS %:          0   MPKI: 0
PSCL5 LOAD TRANSLATION ACCESS:      10273  HIT:      10273  MISS:          0  HIT %:        100  MISS %:          0   MPKI: 0
PSCL5 PREFETCH  REQUESTED:          0  ISSUED:          0  USEFUL:          0  USELESS:          0
PSCL5 USEFUL LOAD PREFETCHES:          0 PREFETCH ISSUED TO LOWER LEVEL:          0  ACCURACY: -nan
PSCL5 TIMELY PREFETCHES:          0 LATE PREFETCHES: 0 DROPPED PREFETCHES: 0
PSCL5 PREFETCHES SAME FILL-ORIGIN LEVEL: 0 DIFFERENT FILL-ORIGIN LEVEL: 0

PSCL4 TOTAL     ACCESS:      10273  HIT:      10273  MISS:          0  HIT %:        100  MISS %:          0   MPKI: 0
PSCL4 LOAD TRANSLATION ACCESS:      10273  HIT:      10273  MISS:          0  HIT %:        100  MISS %:          0   MPKI: 0
PSCL4 PREFETCH  REQUESTED:          0  ISSUED:          0  USEFUL:          0  USELESS:          0
PSCL4 USEFUL LOAD PREFETCHES:          0 PREFETCH ISSUED TO LOWER LEVEL:          0  ACCURACY: -nan
PSCL4 TIMELY PREFETCHES:          0 LATE PREFETCHES: 0 DROPPED PREFETCHES: 0
PSCL4 PREFETCHES SAME FILL-ORIGIN LEVEL: 0 DIFFERENT FILL-ORIGIN LEVEL: 0

PSCL3 TOTAL     ACCESS:      10273  HIT:      10272  MISS:          1  HIT %:    99.9903  MISS %: 0.00973425   MPKI: 2e-05
PSCL3 LOAD TRANSLATION ACCESS:      10273  HIT:      10272  MISS:          1  HIT %:    99.9903  MISS %: 0.00973425   MPKI: 2e-05
PSCL3 PREFETCH  REQUESTED:          0  ISSUED:          0  USEFUL:          0  USELESS:          0
PSCL3 USEFUL LOAD PREFETCHES:          0 PREFETCH ISSUED TO LOWER LEVEL:          0  ACCURACY: -nan
PSCL3 TIMELY PREFETCHES:          0 LATE PREFETCHES: 0 DROPPED PREFETCHES: 0
PSCL3 PREFETCHES SAME FILL-ORIGIN LEVEL: 0 DIFFERENT FILL-ORIGIN LEVEL: 0

PSCL2 TOTAL     ACCESS:      10273  HIT:       9309  MISS:        964  HIT %:    90.6162  MISS %:    9.38382   MPKI: 0.01928
PSCL2 LOAD TRANSLATION ACCESS:      10273  HIT:       9309  MISS:        964  HIT %:    90.6162  MISS %:    9.38382   MPKI: 0.01928
PSCL2 PREFETCH  REQUESTED:          0  ISSUED:          0  USEFUL:          0  USELESS:          0
PSCL2 USEFUL LOAD PREFETCHES:          0 PREFETCH ISSUED TO LOWER LEVEL:          0  ACCURACY: -nan
PSCL2 TIMELY PREFETCHES:          0 LATE PREFETCHES: 0 DROPPED PREFETCHES: 0
PSCL2 PREFETCHES SAME FILL-ORIGIN LEVEL: 0 DIFFERENT FILL-ORIGIN LEVEL: 0

LLC TOTAL     ACCESS:    3969341  HIT:    3533602  MISS:     435739  HIT %:    89.0224  MISS %:    10.9776   MPKI: 8.71478
LLC LOAD      ACCESS:     140143  HIT:     121933  MISS:      18210  HIT %:    87.0061  MISS %:    12.9939   MPKI: 0.3642
LLC RFO       ACCESS:         60  HIT:          4  MISS:         56  HIT %:    6.66667  MISS %:    93.3333   MPKI: 0.00112
LLC PREFETCH  ACCESS:    3821958  HIT:    3408671  MISS:     413287  HIT %:    89.1865  MISS %:    10.8135   MPKI: 8.26574
LLC WRITEBACK ACCESS:       3265  HIT:       2736  MISS:        529  HIT %:    83.7979  MISS %:    16.2021   MPKI: 0.01058
LLC LOAD TRANSLATION ACCESS:       3915  HIT:        258  MISS:       3657  HIT %:    6.59004  MISS %:      93.41   MPKI: 0.07314
LLC PREFETCH  REQUESTED:          0  ISSUED:          0  USEFUL:     121793  USELESS:     290947
LLC USEFUL LOAD PREFETCHES:     121793 PREFETCH ISSUED TO LOWER LEVEL:     413485  ACCURACY: 29.4552
LLC TIMELY PREFETCHES:     121793 LATE PREFETCHES: 196 DROPPED PREFETCHES: 0
LLC PREFETCHES SAME FILL-ORIGIN LEVEL: 408947 DIFFERENT FILL-ORIGIN LEVEL: 0
LLC AVERAGE MISS LATENCY: 166.509 cycles
LLC RQ	ACCESS:     144118	FORWARD:          0	MERGED:          0	TO_CACHE:     144118
LLC WQ	ACCESS:       3265	FORWARD:          0	MERGED:          0	TO_CACHE:       3265
LLC PQ	ACCESS:    3863630	FORWARD:          0	MERGED:       7758	TO_CACHE:    3855872

LLC Dense regions hint to LLC: 0

RAW hits: 7427
Loads Generated: 13128062
Loads sent to L1D: 13120635
Stores Generated: 5633019
Stores sent to L1D: 5633019
Major fault: 0 Minor fault: 6201
Allocated PAGES: 6201
 All Calls: 971161
 Critical Calls: 971161
------------------
Depth Distribution
------------------
depth 0: 0
depth 1: 846568
depth 2: 828036
depth 3: 803983
depth 4: 780728
depth 5: 762779
depth 6: 743258
depth 7: 716613
depth 8: 675704
depth 9: 568883
depth 10: 493146
depth 11: 397640
depth 12: 242320
depth 13: 139243
depth 14: 12016
depth 15: 11555
depth 16: 0
depth 17: 0
depth 18: 0
depth 19: 0
depth 20: 0
depth 21: 0
depth 22: 0
depth 23: 0
depth 24: 0
depth 25: 0
depth 26: 0
depth 27: 0
depth 28: 0
depth 29: 0
Total: 8022472
-----------------------------
-----------------------------
	Captured at Filter
-----------------------------
depth 0: 0
depth 1: 107629
depth 2: 106598
depth 3: 105712
depth 4: 103063
depth 5: 101001
depth 6: 99267
depth 7: 96786
depth 8: 92064
depth 9: 77538
depth 10: 65813
depth 11: 53283
depth 12: 34456
depth 13: 18642
depth 14: 1611
depth 15: 1688
depth 16: 0
depth 17: 0
depth 18: 0
depth 19: 0
depth 20: 0
depth 21: 0
depth 22: 0
depth 23: 0
depth 24: 0
depth 25: 0
depth 26: 0
depth 27: 0
depth 28: 0
depth 29: 0
-----------------------------
-----------------------------
		Lost at Page
-----------------------------
depth 0: 0
depth 1: 14773
depth 2: 28795
depth 3: 43409
depth 4: 56548
depth 5: 70660
depth 6: 84526
depth 7: 97642
depth 8: 109252
depth 9: 107262
depth 10: 106702
depth 11: 98294
depth 12: 68945
depth 13: 44587
depth 14: 4200
depth 15: 4504
depth 16: 0
depth 17: 0
depth 18: 0
depth 19: 0
depth 20: 0
depth 21: 0
depth 22: 0
depth 23: 0
depth 24: 0
depth 25: 0
depth 26: 0
depth 27: 0
depth 28: 0
depth 29: 0
-----------------------------
-----------------------------
	Lost due to PQ Size
-----------------------------
66471
-----------------------------
ST read accesses: 799929
ST write accesses: 10429
PT read accesses: 46192599
PT write accesses: 1181429
FILTER read accesses: 8865126
FILTER write accesses: 1377371
GHR read accesses: 4017362
GHR write accesses: 782803
GHR counter read accesses: 38543880
GHR counter write accesses: 1778207
ST tag read accesses: 299872892
ST tag write accesses: 5182568

DRAM Statistics
 CHANNEL 0
 RQ ROW_BUFFER_HIT:     390479  ROW_BUFFER_MISS:      44731
 DBUS_CONGESTED:     255643
 WQ ROW_BUFFER_HIT:        392  ROW_BUFFER_MISS:       2958  FULL:          0

 AVG_CONGESTED_CYCLE: 53
 All warmup complete: 2
Channel 0 Bank busy for read cycles: 0
Channel 0 Bank busy for write cycles: 0
Channel 0
Rank 0
0banks busy for read cycles: 102671998
0banks busy for write cycles: 2331
1banks busy for read cycles: 10628328
1banks busy for write cycles: 334144
2banks busy for read cycles: 6863152
2banks busy for write cycles: 78600
3banks busy for read cycles: 2953631
3banks busy for write cycles: 23641
4banks busy for read cycles: 1039100
4banks busy for write cycles: 10575
5banks busy for read cycles: 690569
5banks busy for write cycles: 2860
6banks busy for read cycles: 564898
6banks busy for write cycles: 2011
7banks busy for read cycles: 565532
7banks busy for write cycles: 1029
8banks busy for read cycles: 1442836
8banks busy for write cycles: 902

CPU 0 Branch Prediction Accuracy: 94.7226% MPKI: 12.5192 Average ROB Occupancy at Mispredict: 59.0499
Branch types
NOT_BRANCH: 38138558 76.2771%
BRANCH_DIRECT_JUMP: 1247487 2.49497%
BRANCH_INDIRECT: 0 0%
BRANCH_CONDITIONAL: 9360076 18.7202%
BRANCH_DIRECT_CALL: 626785 1.25357%
BRANCH_INDIRECT_CALL: 0 0%
BRANCH_RETURN: 626785 1.25357%
BRANCH_OTHER: 0 0%

@sumon_overall_L1D         0         0         0         0         0         0
@Sumon_Early_by_class_L1D         0         0         0         0
@Sumon_Late_by_class_L1D         0         0         0         0

@Sumon_Early_by_cycle_L1D         0         0         0         0         0         0         0         0         0         0         0         0
@Sumon_Late_by_cycle_L1D         0         0         0         0         0         0         0         0         0         0         0         0
@Sumon_Early_stream_L1D         0         0         0         0         0         0         0         0         0         0         0         0
@Sumon_Early_CS_L1D         0         0         0         0         0         0         0         0         0         0         0         0
@Sumon_Early_CPLX_L1D         0         0         0         0         0         0         0         0         0         0         0         0
@Sumon_Late_stream_L1D         0         0         0         0         0         0         0         0         0         0         0         0
@Sumon_Late_CS_L1D         0         0         0         0         0         0         0         0         0         0         0         0
@Sumon_Late_CPLX_L1D         0         0         0         0         0         0         0         0         0         0         0         0
@sumon_overall_L2C    264780      1082      1091    265862   6733476   6760868
@Sumon_Early_by_class_L2C         0         0         0         0
@Sumon_Late_by_class_L2C         0         0         0         0

@Sumon_Early_by_cycle_L2C       938     88882    161724      6021       726      1230       886      1850      1356       985         1       181
@Sumon_Late_by_cycle_L2C      1010        45        27         0         0         0         0         0         0         0         0         0
@Sumon_Early_stream_L2C         0         0         0         0         0         0         0         0         0         0         0         0
@Sumon_Early_CS_L2C         0         0         0         0         0         0         0         0         0         0         0         0
@Sumon_Early_CPLX_L2C         0         0         0         0         0         0         0         0         0         0         0         0
@Sumon_Late_stream_L2C         0         0         0         0         0         0         0         0         0         0         0         0
@Sumon_Late_CS_L2C         0         0         0         0         0         0         0         0         0         0         0         0
@Sumon_Late_CPLX_L2C         0         0         0         0         0         0         0         0         0         0         0         0
DRAM PAGES: 1048576
Allocated PAGES: 6201
