Initialize SIGNATURE TABLE
ST_SET: 1
ST_WAY: 256
ST_TAG_BIT: 16
ST_TAG_MASK: ffff

Initialize PATTERN TABLE
PT_SET: 512
PT_WAY: 4
SIG_DELTA_BIT: 7
C_SIG_BIT: 4
C_DELTA_BIT: 4

Initialize PREFETCH FILTER
FILTER_SET: 1024

*** ChampSim Multicore Out-of-Order Simulator ***

Warmup Instructions: 10000000
Simulation Instructions: 50000000
Number of CPUs: 1
LLC sets: 2048
LLC ways: 16
Off-chip DRAM Size: 4096 MB Channels: 1 Width: 64-bit Data Rate: 533 MT/s
CPU 0 runs traces/SPEC2017/603.bwaves_s-2931B.champsimtrace.xz
.xz
CPU 0 Bimodal branch predictor
BTB has LRU replacement policy
ITLB has LRU replacement policy
DTLB has LRU replacement policy
STLB has LRU replacement policy
L1I has LRU replacement policy
L1D has LRU replacement policy
ST_WAYS: 256
PT_SETS: 512
L2C has LRU replacement policy
LLC has LRU replacement policy
Heartbeat CPU 0 instructions: 10000003 cycles: 2948047 heartbeat IPC: 3.39208 cumulative IPC: 3.39208 (Simulation time: 0 hr 17 min 52 sec) 

Warmup complete CPU 0 instructions: 10000003 cycles: 2948047 (Simulation time: 0 hr 17 min 52 sec) 

Heartbeat CPU 0 instructions: 20000001 cycles: 15130168 heartbeat IPC: 0.820875 cumulative IPC: 0.820875 (Simulation time: 0 hr 43 min 52 sec) 
Heartbeat CPU 0 instructions: 30000001 cycles: 27368226 heartbeat IPC: 0.817123 cumulative IPC: 0.818995 (Simulation time: 1 hr 9 min 52 sec) 
Heartbeat CPU 0 instructions: 40000003 cycles: 39524680 heartbeat IPC: 0.822608 cumulative IPC: 0.820196 (Simulation time: 1 hr 35 min 28 sec) 
Killed
*** Reached end of trace for Core: 0 Repeating trace: traces/SPEC2017/603.bwaves_s-2931B.champsimtrace.xz
Killed
*** Reached end of trace for Core: 0 Repeating trace: traces/SPEC2017/603.bwaves_s-2931B.champsimtrace.xz
Killed
*** Reached end of trace for Core: 0 Repeating trace: traces/SPEC2017/603.bwaves_s-2931B.champsimtrace.xz
Killed
*** Reached end of trace for Core: 0 Repeating trace: traces/SPEC2017/603.bwaves_s-2931B.champsimtrace.xz
Heartbeat CPU 0 instructions: 50000003 cycles: 50885027 heartbeat IPC: 0.880255 cumulative IPC: 0.834429 (Simulation time: 2 hr 52 min 55 sec) 
Killed
*** Reached end of trace for Core: 0 Repeating trace: traces/SPEC2017/603.bwaves_s-2931B.champsimtrace.xz
Heartbeat CPU 0 instructions: 60000000 cycles: 62141151 heartbeat IPC: 0.888405 cumulative IPC: 0.844693 (Simulation time: 5 hr 38 min 53 sec) 
Finished CPU 0 instructions: 50000001 cycles: 59193105 cumulative IPC: 0.844693 (Simulation time: 5 hr 38 min 55 sec) 

ChampSim completed all CPUs

Region of Interest Statistics

CPU 0 cumulative IPC: 0.844693 instructions: 50000001 cycles: 59193105
ITLB TOTAL     ACCESS:    6059077  HIT:    6059077  MISS:          0  HIT %:        100  MISS %:          0   MPKI: 0
ITLB LOAD TRANSLATION ACCESS:    6059077  HIT:    6059077  MISS:          0  HIT %:        100  MISS %:          0   MPKI: 0
ITLB PREFETCH  REQUESTED:          0  ISSUED:          0  USEFUL:          0  USELESS:          0
ITLB USEFUL LOAD PREFETCHES:          0 PREFETCH ISSUED TO LOWER LEVEL:          0  ACCURACY: -nan
ITLB TIMELY PREFETCHES:          0 LATE PREFETCHES: 0 DROPPED PREFETCHES: 0
ITLB PREFETCHES SAME FILL-ORIGIN LEVEL: 0 DIFFERENT FILL-ORIGIN LEVEL: 0
ITLB AVERAGE MISS LATENCY: -nan cycles
ITLB RQ	ACCESS:    7044156	FORWARD:          0	MERGED:     985079	TO_CACHE:    6059077

DTLB TOTAL     ACCESS:   11914391  HIT:   11812067  MISS:     102324  HIT %:    99.1412  MISS %:   0.858827   MPKI: 2.04648
DTLB LOAD TRANSLATION ACCESS:   11914391  HIT:   11812067  MISS:     102324  HIT %:    99.1412  MISS %:   0.858827   MPKI: 2.04648
DTLB PREFETCH  REQUESTED:          0  ISSUED:          0  USEFUL:          0  USELESS:          0
DTLB USEFUL LOAD PREFETCHES:          0 PREFETCH ISSUED TO LOWER LEVEL:          0  ACCURACY: -nan
DTLB TIMELY PREFETCHES:          0 LATE PREFETCHES: 0 DROPPED PREFETCHES: 0
DTLB PREFETCHES SAME FILL-ORIGIN LEVEL: 0 DIFFERENT FILL-ORIGIN LEVEL: 0
DTLB AVERAGE MISS LATENCY: 59.5264 cycles
DTLB RQ	ACCESS:   17531405	FORWARD:          0	MERGED:    5608792	TO_CACHE:   11922613

STLB TOTAL     ACCESS:     102324  HIT:      92680  MISS:       9644  HIT %:     90.575  MISS %:    9.42496   MPKI: 0.19288
STLB LOAD TRANSLATION ACCESS:     102324  HIT:      92680  MISS:       9644  HIT %:     90.575  MISS %:    9.42496   MPKI: 0.19288
STLB PREFETCH  REQUESTED:          0  ISSUED:          0  USEFUL:          0  USELESS:          0
STLB USEFUL LOAD PREFETCHES:          0 PREFETCH ISSUED TO LOWER LEVEL:          0  ACCURACY: -nan
STLB TIMELY PREFETCHES:          0 LATE PREFETCHES: 0 DROPPED PREFETCHES: 0
STLB PREFETCHES SAME FILL-ORIGIN LEVEL: 0 DIFFERENT FILL-ORIGIN LEVEL: 0
STLB AVERAGE MISS LATENCY: 530.105 cycles
STLB RQ	ACCESS:     102324	FORWARD:          0	MERGED:          0	TO_CACHE:     102324

STLB Hit, L1D data hit: 0
STLB Hit, L2C data hit: 0
STLB Hit, LLC data hit: 0
STLB Hit, LLC data miss: 0
STLB STLB hints to L2: 0
L1D TOTAL     ACCESS:   15790005  HIT:   14987389  MISS:     802616  HIT %:    94.9169  MISS %:    5.08306   MPKI: 16.0523
L1D LOAD      ACCESS:    8880835  HIT:    8380086  MISS:     500749  HIT %:    94.3615  MISS %:    5.63854   MPKI: 10.015
L1D RFO       ACCESS:    6909170  HIT:    6607303  MISS:     301867  HIT %:    95.6309  MISS %:    4.36908   MPKI: 6.03734
L1D PREFETCH  REQUESTED:          0  ISSUED:          0  USEFUL:          0  USELESS:          0
L1D USEFUL LOAD PREFETCHES:          0 PREFETCH ISSUED TO LOWER LEVEL:          0  ACCURACY: -nan
L1D TIMELY PREFETCHES:          0 LATE PREFETCHES: 0 DROPPED PREFETCHES: 0
L1D PREFETCHES SAME FILL-ORIGIN LEVEL: 0 DIFFERENT FILL-ORIGIN LEVEL: 0
L1D AVERAGE MISS LATENCY: 855.77 cycles
L1D RQ	ACCESS:   13826515	FORWARD:          0	MERGED:    4255741	TO_CACHE:    8886980
L1D WQ	ACCESS:    9162255	FORWARD:     683794	MERGED:     517830	TO_CACHE:    8644425

L1D UNIQUE REGIONS ACCESSED: 0
L1D REGIONS CONFLICTS: 0
L1D Cross Page Prefetch Requests: 0
L1D Same Page Prefetch Requests: 0
L1D ROI Sum of L1D PQ occupancy: 0
L1D PREFETCHES PUSHED FROM L2C: 0
L1I TOTAL     ACCESS:    7044149  HIT:    7044142  MISS:          7  HIT %:    99.9999  MISS %: 9.93733e-05   MPKI: 0.00014
L1I LOAD      ACCESS:    7044149  HIT:    7044142  MISS:          7  HIT %:    99.9999  MISS %: 9.93733e-05   MPKI: 0.00014
L1I PREFETCH  REQUESTED:          0  ISSUED:          0  USEFUL:          0  USELESS:          0
L1I USEFUL LOAD PREFETCHES:          0 PREFETCH ISSUED TO LOWER LEVEL:          0  ACCURACY: -nan
L1I TIMELY PREFETCHES:          0 LATE PREFETCHES: 0 DROPPED PREFETCHES: 0
L1I PREFETCHES SAME FILL-ORIGIN LEVEL: 0 DIFFERENT FILL-ORIGIN LEVEL: 0
L1I AVERAGE MISS LATENCY: 774.571 cycles
L1I RQ	ACCESS:   10191672	FORWARD:          0	MERGED:    3147516	TO_CACHE:    7044156

BTB TOTAL     ACCESS:     421995  HIT:     421990  MISS:          5  HIT %:    99.9988  MISS %: 0.00118485   MPKI: 0.0001
BTB BRANCH_DIRECT_JUMP	ACCESS:          0  HIT:          0  MISS:          0
BTB BRANCH_INDIRECT	ACCESS:          0  HIT:          0  MISS:          0
BTB BRANCH_CONDITIONAL	ACCESS:     421995  HIT:     421990  MISS:          5
BTB BRANCH_DIRECT_CALL	ACCESS:          0  HIT:          0  MISS:          0
BTB BRANCH_INDIRECT_CALL	ACCESS:          0  HIT:          0  MISS:          0
BTB BRANCH_RETURN	ACCESS:          0  HIT:          0  MISS:          0
BTB BRANCH_OTHER ACCESS:          0  HIT:          0  MISS:          0

L2C TOTAL     ACCESS:    1633791  HIT:     892870  MISS:     740921  HIT %:    54.6502  MISS %:    45.3498   MPKI: 14.8184
L2C LOAD      ACCESS:     500727  HIT:     346699  MISS:     154028  HIT %:    69.2391  MISS %:    30.7609   MPKI: 3.08056
L2C DATA LOAD MPKI: 3.08042
L2C INSTRUCTION LOAD MPKI: 0.00014
L2C RFO       ACCESS:     299600  HIT:       1887  MISS:     297713  HIT %:    0.62984  MISS %:    99.3702   MPKI: 5.95426
L2C PREFETCH  ACCESS:     519855  HIT:     231982  MISS:     287873  HIT %:    44.6244  MISS %:    55.3756   MPKI: 5.75746
L2C DATA PREFETCH MPKI: 5.75746
L2C INSTRUCTION PREFETCH MPKI: 0
L2C WRITEBACK ACCESS:     303935  HIT:     303910  MISS:         25  HIT %:    99.9918  MISS %: 0.00822544   MPKI: 0.0005
L2C LOAD TRANSLATION ACCESS:       9674  HIT:       8392  MISS:       1282  HIT %:     86.748  MISS %:     13.252   MPKI: 0.02564
L2C PREFETCH  REQUESTED:    3125388  ISSUED:    2855443  USEFUL:     287818  USELESS:         57
L2C USEFUL LOAD PREFETCHES:     287818 PREFETCH ISSUED TO LOWER LEVEL:    2611802  ACCURACY: 11.0199
L2C TIMELY PREFETCHES:     287818 LATE PREFETCHES: 659 DROPPED PREFETCHES: 0
L2C PREFETCHES SAME FILL-ORIGIN LEVEL: 288533 DIFFERENT FILL-ORIGIN LEVEL: 2323269
L2C AVERAGE MISS LATENCY: 932.464 cycles
L2C RQ	ACCESS:     812310	FORWARD:          0	MERGED:          0	TO_CACHE:     810014
L2C WQ	ACCESS:     303935	FORWARD:       2296	MERGED:          0	TO_CACHE:     303935
L2C PQ	ACCESS:    2855443	FORWARD:          0	MERGED:      11487	TO_CACHE:    2843956

L2C Instructions Evicting Data 7
L2C Translations Evicting Data 1282
L2C Data Evicting Data 738314
L2C Instructions Evicting Instructions 0
L2C Translations Evicting Instructions 0
L2C Data Evicting Instructions 7
L2C Instructions Evicting Translations 0
L2C Translations Evicting Translations 0
L2C Data Evicting Translations 1286
L2C Dense regions hint from L2: 0
PSCL5 TOTAL     ACCESS:       9644  HIT:       9644  MISS:          0  HIT %:        100  MISS %:          0   MPKI: 0
PSCL5 LOAD TRANSLATION ACCESS:       9644  HIT:       9644  MISS:          0  HIT %:        100  MISS %:          0   MPKI: 0
PSCL5 PREFETCH  REQUESTED:          0  ISSUED:          0  USEFUL:          0  USELESS:          0
PSCL5 USEFUL LOAD PREFETCHES:          0 PREFETCH ISSUED TO LOWER LEVEL:          0  ACCURACY: -nan
PSCL5 TIMELY PREFETCHES:          0 LATE PREFETCHES: 0 DROPPED PREFETCHES: 0
PSCL5 PREFETCHES SAME FILL-ORIGIN LEVEL: 0 DIFFERENT FILL-ORIGIN LEVEL: 0

PSCL4 TOTAL     ACCESS:       9644  HIT:       9644  MISS:          0  HIT %:        100  MISS %:          0   MPKI: 0
PSCL4 LOAD TRANSLATION ACCESS:       9644  HIT:       9644  MISS:          0  HIT %:        100  MISS %:          0   MPKI: 0
PSCL4 PREFETCH  REQUESTED:          0  ISSUED:          0  USEFUL:          0  USELESS:          0
PSCL4 USEFUL LOAD PREFETCHES:          0 PREFETCH ISSUED TO LOWER LEVEL:          0  ACCURACY: -nan
PSCL4 TIMELY PREFETCHES:          0 LATE PREFETCHES: 0 DROPPED PREFETCHES: 0
PSCL4 PREFETCHES SAME FILL-ORIGIN LEVEL: 0 DIFFERENT FILL-ORIGIN LEVEL: 0

PSCL3 TOTAL     ACCESS:       7868  HIT:       7855  MISS:         13  HIT %:    99.8348  MISS %:   0.165226   MPKI: 0.00026
PSCL3 LOAD TRANSLATION ACCESS:       7868  HIT:       7855  MISS:         13  HIT %:    99.8348  MISS %:   0.165226   MPKI: 0.00026
PSCL3 PREFETCH  REQUESTED:          0  ISSUED:          0  USEFUL:          0  USELESS:          0
PSCL3 USEFUL LOAD PREFETCHES:          0 PREFETCH ISSUED TO LOWER LEVEL:          0  ACCURACY: -nan
PSCL3 TIMELY PREFETCHES:          0 LATE PREFETCHES: 0 DROPPED PREFETCHES: 0
PSCL3 PREFETCHES SAME FILL-ORIGIN LEVEL: 0 DIFFERENT FILL-ORIGIN LEVEL: 0

PSCL2 TOTAL     ACCESS:       9644  HIT:       9609  MISS:         35  HIT %:    99.6371  MISS %:    0.36292   MPKI: 0.0007
PSCL2 LOAD TRANSLATION ACCESS:       9644  HIT:       9609  MISS:         35  HIT %:    99.6371  MISS %:    0.36292   MPKI: 0.0007
PSCL2 PREFETCH  REQUESTED:          0  ISSUED:          0  USEFUL:          0  USELESS:          0
PSCL2 USEFUL LOAD PREFETCHES:          0 PREFETCH ISSUED TO LOWER LEVEL:          0  ACCURACY: -nan
PSCL2 TIMELY PREFETCHES:          0 LATE PREFETCHES: 0 DROPPED PREFETCHES: 0
PSCL2 PREFETCHES SAME FILL-ORIGIN LEVEL: 0 DIFFERENT FILL-ORIGIN LEVEL: 0

LLC TOTAL     ACCESS:    3192331  HIT:    2574507  MISS:     617824  HIT %:    80.6466  MISS %:    19.3534   MPKI: 12.3565
LLC LOAD      ACCESS:     153370  HIT:     144340  MISS:       9030  HIT %:    94.1123  MISS %:    5.88772   MPKI: 0.1806
LLC RFO       ACCESS:     297713  HIT:      28966  MISS:     268747  HIT %:     9.7295  MISS %:    90.2705   MPKI: 5.37494
LLC PREFETCH  ACCESS:    2442206  HIT:    2103440  MISS:     338766  HIT %:    86.1287  MISS %:    13.8713   MPKI: 6.77532
LLC WRITEBACK ACCESS:     297760  HIT:     297739  MISS:         21  HIT %:    99.9929  MISS %: 0.00705266   MPKI: 0.00042
LLC LOAD TRANSLATION ACCESS:       1282  HIT:         22  MISS:       1260  HIT %:    1.71607  MISS %:    98.2839   MPKI: 0.0252
LLC PREFETCH  REQUESTED:          0  ISSUED:          0  USEFUL:     128050  USELESS:     211261
LLC USEFUL LOAD PREFETCHES:     128050 PREFETCH ISSUED TO LOWER LEVEL:     339405  ACCURACY: 37.7278
LLC TIMELY PREFETCHES:     128050 LATE PREFETCHES: 620 DROPPED PREFETCHES: 0
LLC PREFETCHES SAME FILL-ORIGIN LEVEL: 334124 DIFFERENT FILL-ORIGIN LEVEL: 0
LLC AVERAGE MISS LATENCY: 1961.2 cycles
LLC RQ	ACCESS:     452376	FORWARD:          0	MERGED:          0	TO_CACHE:     452376
LLC WQ	ACCESS:     297760	FORWARD:          0	MERGED:          0	TO_CACHE:     297760
LLC PQ	ACCESS:    2611802	FORWARD:          0	MERGED:         11	TO_CACHE:    2611791

LLC Dense regions hint to LLC: 0

RAW hits: 834938
Loads Generated: 14661456
Loads sent to L1D: 13826515
Stores Generated: 9162236
Stores sent to L1D: 9162255
Major fault: 0 Minor fault: 9877
Allocated PAGES: 9877
 All Calls: 618057
 Critical Calls: 618057
------------------
Depth Distribution
------------------
depth 0: 0
depth 1: 562478
depth 2: 536826
depth 3: 501010
depth 4: 468257
depth 5: 436944
depth 6: 405439
depth 7: 304251
depth 8: 190538
depth 9: 23762
depth 10: 428
depth 11: 3
depth 12: 0
depth 13: 0
depth 14: 0
depth 15: 0
depth 16: 0
depth 17: 0
depth 18: 0
depth 19: 0
depth 20: 0
depth 21: 0
depth 22: 0
depth 23: 0
depth 24: 0
depth 25: 0
depth 26: 0
depth 27: 0
depth 28: 0
depth 29: 0
Total: 3429936
-----------------------------
-----------------------------
	Captured at Filter
-----------------------------
depth 0: 0
depth 1: 21231
depth 2: 17272
depth 3: 15068
depth 4: 13995
depth 5: 11106
depth 6: 9563
depth 7: 7666
depth 8: 4082
depth 9: 907
depth 10: 59
depth 11: 0
depth 12: 0
depth 13: 0
depth 14: 0
depth 15: 0
depth 16: 0
depth 17: 0
depth 18: 0
depth 19: 0
depth 20: 0
depth 21: 0
depth 22: 0
depth 23: 0
depth 24: 0
depth 25: 0
depth 26: 0
depth 27: 0
depth 28: 0
depth 29: 0
-----------------------------
-----------------------------
		Lost at Page
-----------------------------
depth 0: 0
depth 1: 11238
depth 2: 19148
depth 3: 28259
depth 4: 36306
depth 5: 45039
depth 6: 52261
depth 7: 47560
depth 8: 35544
depth 9: 7199
depth 10: 188
depth 11: 1
depth 12: 0
depth 13: 0
depth 14: 0
depth 15: 0
depth 16: 0
depth 17: 0
depth 18: 0
depth 19: 0
depth 20: 0
depth 21: 0
depth 22: 0
depth 23: 0
depth 24: 0
depth 25: 0
depth 26: 0
depth 27: 0
depth 28: 0
depth 29: 0
-----------------------------
-----------------------------
	Lost due to PQ Size
-----------------------------
393478
-----------------------------
ST read accesses: 495280
ST write accesses: 5441
PT read accesses: 19506006
PT write accesses: 734502
FILTER read accesses: 4429436
FILTER write accesses: 1353255
GHR read accesses: 1423967
GHR write accesses: 229454
GHR counter read accesses: 16586994
GHR counter write accesses: 1127973
ST tag read accesses: 195379944
ST tag write accesses: 6866338

DRAM Statistics
 CHANNEL 0
 RQ ROW_BUFFER_HIT:     341869  ROW_BUFFER_MISS:     275934
 DBUS_CONGESTED:     863638
 WQ ROW_BUFFER_HIT:      52722  ROW_BUFFER_MISS:     216117  FULL:          0

 AVG_CONGESTED_CYCLE: 52
 All warmup complete: 2
Channel 0 Bank busy for read cycles: 0
Channel 0 Bank busy for write cycles: 0
Channel 0
Rank 0
0banks busy for read cycles: 4133043
0banks busy for write cycles: 12
1banks busy for read cycles: 1034795
1banks busy for write cycles: 32377
2banks busy for read cycles: 1667101
2banks busy for write cycles: 31724
3banks busy for read cycles: 3966251
3banks busy for write cycles: 31906
4banks busy for read cycles: 7469727
4banks busy for write cycles: 31742
5banks busy for read cycles: 8428243
5banks busy for write cycles: 31775
6banks busy for read cycles: 6974857
6banks busy for write cycles: 32647
7banks busy for read cycles: 4850746
7banks busy for write cycles: 316591
8banks busy for read cycles: 3850701
8banks busy for write cycles: 16308868

CPU 0 Branch Prediction Accuracy: 80.6203% MPKI: 1.63564 Average ROB Occupancy at Mispredict: 117.021
Branch types
NOT_BRANCH: 49577697 99.1554%
BRANCH_DIRECT_JUMP: 0 0%
BRANCH_INDIRECT: 0 0%
BRANCH_CONDITIONAL: 421998 0.843996%
BRANCH_DIRECT_CALL: 0 0%
BRANCH_INDIRECT_CALL: 0 0%
BRANCH_RETURN: 0 0%
BRANCH_OTHER: 0 0%

@sumon_overall_L1D         0         0         0         0         0         0
@Sumon_Early_by_class_L1D         0         0         0         0
@Sumon_Late_by_class_L1D         0         0         0         0

@Sumon_Early_by_cycle_L1D         0         0         0         0         0         0         0         0         0         0         0         0
@Sumon_Late_by_cycle_L1D         0         0         0         0         0         0         0         0         0         0         0         0
@Sumon_Early_stream_L1D         0         0         0         0         0         0         0         0         0         0         0         0
@Sumon_Early_CS_L1D         0         0         0         0         0         0         0         0         0         0         0         0
@Sumon_Early_CPLX_L1D         0         0         0         0         0         0         0         0         0         0         0         0
@Sumon_Late_stream_L1D         0         0         0         0         0         0         0         0         0         0         0         0
@Sumon_Late_CS_L1D         0         0         0         0         0         0         0         0         0         0         0         0
@Sumon_Late_CPLX_L1D         0         0         0         0         0         0         0         0         0         0         0         0
@sumon_overall_L2C    287818       659        57    287873   2855443   3125388
@Sumon_Early_by_class_L2C         0         0         0         0
@Sumon_Late_by_class_L2C         0         0         0         0

@Sumon_Early_by_cycle_L2C        99       205      1077     10578     97321    166431     10440      1596        46         0         0        25
@Sumon_Late_by_cycle_L2C        96       133       156       113        65        92         4         0         0         0         0         0
@Sumon_Early_stream_L2C         0         0         0         0         0         0         0         0         0         0         0         0
@Sumon_Early_CS_L2C         0         0         0         0         0         0         0         0         0         0         0         0
@Sumon_Early_CPLX_L2C         0         0         0         0         0         0         0         0         0         0         0         0
@Sumon_Late_stream_L2C         0         0         0         0         0         0         0         0         0         0         0         0
@Sumon_Late_CS_L2C         0         0         0         0         0         0         0         0         0         0         0         0
@Sumon_Late_CPLX_L2C         0         0         0         0         0         0         0         0         0         0         0         0
DRAM PAGES: 1048576
Allocated PAGES: 9877
