Initialize SIGNATURE TABLE
ST_SET: 1
ST_WAY: 256
ST_TAG_BIT: 16
ST_TAG_MASK: ffff

Initialize PATTERN TABLE
PT_SET: 512
PT_WAY: 4
SIG_DELTA_BIT: 7
C_SIG_BIT: 4
C_DELTA_BIT: 4

Initialize PREFETCH FILTER
FILTER_SET: 1024

*** ChampSim Multicore Out-of-Order Simulator ***

Warmup Instructions: 10000000
Simulation Instructions: 50000000
Number of CPUs: 1
LLC sets: 2048
LLC ways: 16
Off-chip DRAM Size: 4096 MB Channels: 1 Width: 64-bit Data Rate: 533 MT/s
CPU 0 runs traces/SPEC2017/607.cactuBSSN_s-4004B.champsimtrace.xz
.xz
CPU 0 Bimodal branch predictor
BTB has LRU replacement policy
ITLB has LRU replacement policy
DTLB has LRU replacement policy
STLB has LRU replacement policy
L1I has LRU replacement policy
L1D has LRU replacement policy
ST_WAYS: 256
PT_SETS: 512
L2C has LRU replacement policy
LLC has LRU replacement policy
Heartbeat CPU 0 instructions: 10000001 cycles: 3597227 heartbeat IPC: 2.77992 cumulative IPC: 2.77992 (Simulation time: 0 hr 20 min 55 sec) 

Warmup complete CPU 0 instructions: 10000001 cycles: 3597227 (Simulation time: 0 hr 20 min 55 sec) 

Heartbeat CPU 0 instructions: 20000002 cycles: 14533455 heartbeat IPC: 0.914392 cumulative IPC: 0.914392 (Simulation time: 0 hr 42 min 50 sec) 
Heartbeat CPU 0 instructions: 30000003 cycles: 25716861 heartbeat IPC: 0.894182 cumulative IPC: 0.904174 (Simulation time: 1 hr 5 min 6 sec) 
Heartbeat CPU 0 instructions: 40000001 cycles: 36863633 heartbeat IPC: 0.897121 cumulative IPC: 0.901811 (Simulation time: 1 hr 27 min 14 sec) 
Heartbeat CPU 0 instructions: 50000000 cycles: 48040372 heartbeat IPC: 0.894715 cumulative IPC: 0.900026 (Simulation time: 1 hr 49 min 11 sec) 
Heartbeat CPU 0 instructions: 60000002 cycles: 59216952 heartbeat IPC: 0.894728 cumulative IPC: 0.898962 (Simulation time: 6 hr 6 min 12 sec) 
Finished CPU 0 instructions: 50000001 cycles: 55619725 cumulative IPC: 0.898962 (Simulation time: 6 hr 6 min 12 sec) 

ChampSim completed all CPUs

Region of Interest Statistics

CPU 0 cumulative IPC: 0.898962 instructions: 50000001 cycles: 55619725
ITLB TOTAL     ACCESS:    6967129  HIT:    6967129  MISS:          0  HIT %:        100  MISS %:          0   MPKI: 0
ITLB LOAD TRANSLATION ACCESS:    6967129  HIT:    6967129  MISS:          0  HIT %:        100  MISS %:          0   MPKI: 0
ITLB PREFETCH  REQUESTED:          0  ISSUED:          0  USEFUL:          0  USELESS:          0
ITLB USEFUL LOAD PREFETCHES:          0 PREFETCH ISSUED TO LOWER LEVEL:          0  ACCURACY: -nan
ITLB TIMELY PREFETCHES:          0 LATE PREFETCHES: 0 DROPPED PREFETCHES: 0
ITLB PREFETCHES SAME FILL-ORIGIN LEVEL: 0 DIFFERENT FILL-ORIGIN LEVEL: 0
ITLB AVERAGE MISS LATENCY: -nan cycles
ITLB RQ	ACCESS:    8468847	FORWARD:          0	MERGED:    1501719	TO_CACHE:    6967128

DTLB TOTAL     ACCESS:   14173738  HIT:   12239957  MISS:    1933781  HIT %:    86.3566  MISS %:    13.6434   MPKI: 38.6756
DTLB LOAD TRANSLATION ACCESS:   14173738  HIT:   12239957  MISS:    1933781  HIT %:    86.3566  MISS %:    13.6434   MPKI: 38.6756
DTLB PREFETCH  REQUESTED:          0  ISSUED:          0  USEFUL:          0  USELESS:          0
DTLB USEFUL LOAD PREFETCHES:          0 PREFETCH ISSUED TO LOWER LEVEL:          0  ACCURACY: -nan
DTLB TIMELY PREFETCHES:          0 LATE PREFETCHES: 0 DROPPED PREFETCHES: 0
DTLB PREFETCHES SAME FILL-ORIGIN LEVEL: 0 DIFFERENT FILL-ORIGIN LEVEL: 0
DTLB AVERAGE MISS LATENCY: 9.93794 cycles
DTLB RQ	ACCESS:   19817166	FORWARD:          0	MERGED:    5432046	TO_CACHE:   14385120

STLB TOTAL     ACCESS:    1933781  HIT:    1931720  MISS:       2061  HIT %:    99.8934  MISS %:   0.106579   MPKI: 0.04122
STLB LOAD TRANSLATION ACCESS:    1933781  HIT:    1931720  MISS:       2061  HIT %:    99.8934  MISS %:   0.106579   MPKI: 0.04122
STLB PREFETCH  REQUESTED:          0  ISSUED:          0  USEFUL:          0  USELESS:          0
STLB USEFUL LOAD PREFETCHES:          0 PREFETCH ISSUED TO LOWER LEVEL:          0  ACCURACY: -nan
STLB TIMELY PREFETCHES:          0 LATE PREFETCHES: 0 DROPPED PREFETCHES: 0
STLB PREFETCHES SAME FILL-ORIGIN LEVEL: 0 DIFFERENT FILL-ORIGIN LEVEL: 0
STLB AVERAGE MISS LATENCY: 579.12 cycles
STLB RQ	ACCESS:    1933782	FORWARD:          0	MERGED:          0	TO_CACHE:    1933782

STLB Hit, L1D data hit: 0
STLB Hit, L2C data hit: 0
STLB Hit, LLC data hit: 0
STLB Hit, LLC data miss: 0
STLB STLB hints to L2: 0
L1D TOTAL     ACCESS:   19712099  HIT:   16039164  MISS:    3672935  HIT %:    81.3671  MISS %:    18.6329   MPKI: 73.4587
L1D LOAD      ACCESS:   15705188  HIT:   12335396  MISS:    3369792  HIT %:    78.5434  MISS %:    21.4566   MPKI: 67.3958
L1D RFO       ACCESS:    4006911  HIT:    3703768  MISS:     303143  HIT %:    92.4345  MISS %:     7.5655   MPKI: 6.06286
L1D PREFETCH  REQUESTED:          0  ISSUED:          0  USEFUL:          0  USELESS:          0
L1D USEFUL LOAD PREFETCHES:          0 PREFETCH ISSUED TO LOWER LEVEL:          0  ACCURACY: -nan
L1D TIMELY PREFETCHES:          0 LATE PREFETCHES: 0 DROPPED PREFETCHES: 0
L1D PREFETCHES SAME FILL-ORIGIN LEVEL: 0 DIFFERENT FILL-ORIGIN LEVEL: 0
L1D AVERAGE MISS LATENCY: 25.7255 cycles
L1D RQ	ACCESS:   19464200	FORWARD:          0	MERGED:    3660895	TO_CACHE:   15791418
L1D WQ	ACCESS:    4053011	FORWARD:      11887	MERGED:      27263	TO_CACHE:    4025748

L1D UNIQUE REGIONS ACCESSED: 0
L1D REGIONS CONFLICTS: 0
L1D Cross Page Prefetch Requests: 0
L1D Same Page Prefetch Requests: 0
L1D ROI Sum of L1D PQ occupancy: 0
L1D PREFETCHES PUSHED FROM L2C: 0
L1I TOTAL     ACCESS:    7806432  HIT:    6506431  MISS:    1300001  HIT %:    83.3471  MISS %:    16.6529   MPKI: 26
L1I LOAD      ACCESS:    7806432  HIT:    6506431  MISS:    1300001  HIT %:    83.3471  MISS %:    16.6529   MPKI: 26
L1I PREFETCH  REQUESTED:          0  ISSUED:          0  USEFUL:          0  USELESS:          0
L1I USEFUL LOAD PREFETCHES:          0 PREFETCH ISSUED TO LOWER LEVEL:          0  ACCURACY: -nan
L1I TIMELY PREFETCHES:          0 LATE PREFETCHES: 0 DROPPED PREFETCHES: 0
L1I PREFETCHES SAME FILL-ORIGIN LEVEL: 0 DIFFERENT FILL-ORIGIN LEVEL: 0
L1I AVERAGE MISS LATENCY: 14.0655 cycles
L1I RQ	ACCESS:   11867391	FORWARD:          0	MERGED:    3398544	TO_CACHE:    8468847

BTB TOTAL     ACCESS:     281774  HIT:     263574  MISS:      18200  HIT %:    93.5409  MISS %:    6.45908   MPKI: 0.364
BTB BRANCH_DIRECT_JUMP	ACCESS:      54526  HIT:      54521  MISS:          5
BTB BRANCH_INDIRECT	ACCESS:       9088  HIT:       9087  MISS:          1
BTB BRANCH_CONDITIONAL	ACCESS:     109108  HIT:     109097  MISS:         11
BTB BRANCH_DIRECT_CALL	ACCESS:      54526  HIT:      54521  MISS:          5
BTB BRANCH_INDIRECT_CALL	ACCESS:          0  HIT:          0  MISS:          0
BTB BRANCH_RETURN	ACCESS:      54526  HIT:      36348  MISS:      18178
BTB BRANCH_OTHER ACCESS:          0  HIT:          0  MISS:          0

L2C TOTAL     ACCESS:    8193811  HIT:    7926813  MISS:     266998  HIT %:    96.7415  MISS %:    3.25853   MPKI: 5.33996
L2C LOAD      ACCESS:    4669326  HIT:    4447493  MISS:     221833  HIT %:    95.2491  MISS %:    4.75086   MPKI: 4.43666
L2C DATA LOAD MPKI: 4.43054
L2C INSTRUCTION LOAD MPKI: 0.00612
L2C RFO       ACCESS:     302982  HIT:     273557  MISS:      29425  HIT %:    90.2882  MISS %:     9.7118   MPKI: 0.5885
L2C PREFETCH  ACCESS:    2894203  HIT:    2881516  MISS:      12687  HIT %:    99.5616  MISS %:   0.438359   MPKI: 0.25374
L2C DATA PREFETCH MPKI: 0.25374
L2C INSTRUCTION PREFETCH MPKI: 0
L2C WRITEBACK ACCESS:     324168  HIT:     324153  MISS:         15  HIT %:    99.9954  MISS %: 0.00462723   MPKI: 0.0003
L2C LOAD TRANSLATION ACCESS:       3132  HIT:         94  MISS:       3038  HIT %:    3.00128  MISS %:    96.9987   MPKI: 0.06076
L2C PREFETCH  REQUESTED:    4448169  ISSUED:    4120585  USEFUL:      12356  USELESS:        516
L2C USEFUL LOAD PREFETCHES:      12356 PREFETCH ISSUED TO LOWER LEVEL:     694372  ACCURACY: 1.77945
L2C TIMELY PREFETCHES:      12356 LATE PREFETCHES: 531 DROPPED PREFETCHES: 0
L2C PREFETCHES SAME FILL-ORIGIN LEVEL: 13218 DIFFERENT FILL-ORIGIN LEVEL: 681154
L2C AVERAGE MISS LATENCY: 147.094 cycles
L2C RQ	ACCESS:    4976072	FORWARD:          0	MERGED:          0	TO_CACHE:    4975444
L2C WQ	ACCESS:     324168	FORWARD:        655	MERGED:          0	TO_CACHE:     324168
L2C PQ	ACCESS:    4120585	FORWARD:          0	MERGED:     484608	TO_CACHE:    3635950

L2C Instructions Evicting Data 288
L2C Translations Evicting Data 3023
L2C Data Evicting Data 260392
L2C Instructions Evicting Instructions 17
L2C Translations Evicting Instructions 0
L2C Data Evicting Instructions 288
L2C Instructions Evicting Translations 1
L2C Translations Evicting Translations 15
L2C Data Evicting Translations 2959
L2C Dense regions hint from L2: 0
PSCL5 TOTAL     ACCESS:       2061  HIT:       2061  MISS:          0  HIT %:        100  MISS %:          0   MPKI: 0
PSCL5 LOAD TRANSLATION ACCESS:       2061  HIT:       2061  MISS:          0  HIT %:        100  MISS %:          0   MPKI: 0
PSCL5 PREFETCH  REQUESTED:          0  ISSUED:          0  USEFUL:          0  USELESS:          0
PSCL5 USEFUL LOAD PREFETCHES:          0 PREFETCH ISSUED TO LOWER LEVEL:          0  ACCURACY: -nan
PSCL5 TIMELY PREFETCHES:          0 LATE PREFETCHES: 0 DROPPED PREFETCHES: 0
PSCL5 PREFETCHES SAME FILL-ORIGIN LEVEL: 0 DIFFERENT FILL-ORIGIN LEVEL: 0

PSCL4 TOTAL     ACCESS:       2061  HIT:       2061  MISS:          0  HIT %:        100  MISS %:          0   MPKI: 0
PSCL4 LOAD TRANSLATION ACCESS:       2061  HIT:       2061  MISS:          0  HIT %:        100  MISS %:          0   MPKI: 0
PSCL4 PREFETCH  REQUESTED:          0  ISSUED:          0  USEFUL:          0  USELESS:          0
PSCL4 USEFUL LOAD PREFETCHES:          0 PREFETCH ISSUED TO LOWER LEVEL:          0  ACCURACY: -nan
PSCL4 TIMELY PREFETCHES:          0 LATE PREFETCHES: 0 DROPPED PREFETCHES: 0
PSCL4 PREFETCHES SAME FILL-ORIGIN LEVEL: 0 DIFFERENT FILL-ORIGIN LEVEL: 0

PSCL3 TOTAL     ACCESS:       2061  HIT:       2061  MISS:          0  HIT %:        100  MISS %:          0   MPKI: 0
PSCL3 LOAD TRANSLATION ACCESS:       2061  HIT:       2061  MISS:          0  HIT %:        100  MISS %:          0   MPKI: 0
PSCL3 PREFETCH  REQUESTED:          0  ISSUED:          0  USEFUL:          0  USELESS:          0
PSCL3 USEFUL LOAD PREFETCHES:          0 PREFETCH ISSUED TO LOWER LEVEL:          0  ACCURACY: -nan
PSCL3 TIMELY PREFETCHES:          0 LATE PREFETCHES: 0 DROPPED PREFETCHES: 0
PSCL3 PREFETCHES SAME FILL-ORIGIN LEVEL: 0 DIFFERENT FILL-ORIGIN LEVEL: 0

PSCL2 TOTAL     ACCESS:       2061  HIT:        989  MISS:       1072  HIT %:    47.9864  MISS %:    52.0136   MPKI: 0.02144
PSCL2 LOAD TRANSLATION ACCESS:       2061  HIT:        989  MISS:       1072  HIT %:    47.9864  MISS %:    52.0136   MPKI: 0.02144
PSCL2 PREFETCH  REQUESTED:          0  ISSUED:          0  USEFUL:          0  USELESS:          0
PSCL2 USEFUL LOAD PREFETCHES:          0 PREFETCH ISSUED TO LOWER LEVEL:          0  ACCURACY: -nan
PSCL2 TIMELY PREFETCHES:          0 LATE PREFETCHES: 0 DROPPED PREFETCHES: 0
PSCL2 PREFETCHES SAME FILL-ORIGIN LEVEL: 0 DIFFERENT FILL-ORIGIN LEVEL: 0

LLC TOTAL     ACCESS:     965177  HIT:     834289  MISS:     130888  HIT %:     86.439  MISS %:     13.561   MPKI: 2.61776
LLC LOAD      ACCESS:     221302  HIT:     199402  MISS:      21900  HIT %:     90.104  MISS %:    9.89598   MPKI: 0.438
LLC RFO       ACCESS:      29425  HIT:          0  MISS:      29425  HIT %:          0  MISS %:        100   MPKI: 0.5885
LLC PREFETCH  ACCESS:     682069  HIT:     602770  MISS:      79299  HIT %:    88.3738  MISS %:    11.6262   MPKI: 1.58598
LLC WRITEBACK ACCESS:      29343  HIT:      29342  MISS:          1  HIT %:    99.9966  MISS %: 0.00340797   MPKI: 2e-05
LLC LOAD TRANSLATION ACCESS:       3038  HIT:       2775  MISS:        263  HIT %:     91.343  MISS %:    8.65701   MPKI: 0.00526
LLC PREFETCH  REQUESTED:          0  ISSUED:          0  USEFUL:      73163  USELESS:       5460
LLC USEFUL LOAD PREFETCHES:      73163 PREFETCH ISSUED TO LOWER LEVEL:      81864  ACCURACY: 89.3714
LLC TIMELY PREFETCHES:      73163 LATE PREFETCHES: 2565 DROPPED PREFETCHES: 0
LLC PREFETCHES SAME FILL-ORIGIN LEVEL: 79592 DIFFERENT FILL-ORIGIN LEVEL: 0
LLC AVERAGE MISS LATENCY: 430.485 cycles
LLC RQ	ACCESS:     253765	FORWARD:          0	MERGED:          0	TO_CACHE:     253765
LLC WQ	ACCESS:      29343	FORWARD:          0	MERGED:          0	TO_CACHE:      29343
LLC PQ	ACCESS:     694372	FORWARD:          0	MERGED:       7086	TO_CACHE:     687286

LLC Dense regions hint to LLC: 0

RAW hits: 128611
Loads Generated: 19592783
Loads sent to L1D: 19464200
Stores Generated: 4053162
Stores sent to L1D: 4053156
Major fault: 0 Minor fault: 2746
Allocated PAGES: 2746
 All Calls: 4044085
 Critical Calls: 4044085
------------------
Depth Distribution
------------------
depth 0: 0
depth 1: 3178226
depth 2: 1288694
depth 3: 283092
depth 4: 63449
depth 5: 6492
depth 6: 390
depth 7: 9
depth 8: 2
depth 9: 0
depth 10: 0
depth 11: 0
depth 12: 0
depth 13: 0
depth 14: 0
depth 15: 0
depth 16: 0
depth 17: 0
depth 18: 0
depth 19: 0
depth 20: 0
depth 21: 0
depth 22: 0
depth 23: 0
depth 24: 0
depth 25: 0
depth 26: 0
depth 27: 0
depth 28: 0
depth 29: 0
Total: 4820354
-----------------------------
-----------------------------
	Captured at Filter
-----------------------------
depth 0: 0
depth 1: 708722
depth 2: 378148
depth 3: 165007
depth 4: 42718
depth 5: 10552
depth 6: 714
depth 7: 24
depth 8: 0
depth 9: 0
depth 10: 0
depth 11: 0
depth 12: 0
depth 13: 0
depth 14: 0
depth 15: 0
depth 16: 0
depth 17: 0
depth 18: 0
depth 19: 0
depth 20: 0
depth 21: 0
depth 22: 0
depth 23: 0
depth 24: 0
depth 25: 0
depth 26: 0
depth 27: 0
depth 28: 0
depth 29: 0
-----------------------------
-----------------------------
		Lost at Page
-----------------------------
depth 0: 0
depth 1: 845878
depth 2: 218055
depth 3: 15132
depth 4: 4192
depth 5: 1335
depth 6: 83
depth 7: 3
depth 8: 0
depth 9: 0
depth 10: 0
depth 11: 0
depth 12: 0
depth 13: 0
depth 14: 0
depth 15: 0
depth 16: 0
depth 17: 0
depth 18: 0
depth 19: 0
depth 20: 0
depth 21: 0
depth 22: 0
depth 23: 0
depth 24: 0
depth 25: 0
depth 26: 0
depth 27: 0
depth 28: 0
depth 29: 0
-----------------------------
-----------------------------
	Lost due to PQ Size
-----------------------------
401543
-----------------------------
ST read accesses: 3367734
ST write accesses: 1591
PT read accesses: 47450636
PT write accesses: 3978424
FILTER read accesses: 9130016
FILTER write accesses: 539145
GHR read accesses: 6858056
GHR write accesses: 983876
GHR counter read accesses: 42030074
GHR counter write accesses: 3654202
ST tag read accesses: 1297042266
ST tag write accesses: 269647884

DRAM Statistics
 CHANNEL 0
 RQ ROW_BUFFER_HIT:      73238  ROW_BUFFER_MISS:      57649
 DBUS_CONGESTED:     110832
 WQ ROW_BUFFER_HIT:      10275  ROW_BUFFER_MISS:      19047  FULL:          0

 AVG_CONGESTED_CYCLE: 33
 All warmup complete: 2
Channel 0 Bank busy for read cycles: 0
Channel 0 Bank busy for write cycles: 0
Channel 0
Rank 0
0banks busy for read cycles: 42676406
0banks busy for write cycles: 14288
1banks busy for read cycles: 5727614
1banks busy for write cycles: 1905352
2banks busy for read cycles: 1756212
2banks busy for write cycles: 541420
3banks busy for read cycles: 927594
3banks busy for write cycles: 285988
4banks busy for read cycles: 459491
4banks busy for write cycles: 197273
5banks busy for read cycles: 261995
5banks busy for write cycles: 144882
6banks busy for read cycles: 213019
6banks busy for write cycles: 102641
7banks busy for read cycles: 173128
7banks busy for write cycles: 67575
8banks busy for read cycles: 136942
8banks busy for write cycles: 27906

CPU 0 Branch Prediction Accuracy: 99.9877% MPKI: 0.0011 Average ROB Occupancy at Mispredict: 37.6909
Branch types
NOT_BRANCH: 49554298 99.1086%
BRANCH_DIRECT_JUMP: 54526 0.109052%
BRANCH_INDIRECT: 9088 0.018176%
BRANCH_CONDITIONAL: 272741 0.545482%
BRANCH_DIRECT_CALL: 54526 0.109052%
BRANCH_INDIRECT_CALL: 0 0%
BRANCH_RETURN: 54526 0.109052%
BRANCH_OTHER: 0 0%

@sumon_overall_L1D         0         0         0         0         0         0
@Sumon_Early_by_class_L1D         0         0         0         0
@Sumon_Late_by_class_L1D         0         0         0         0

@Sumon_Early_by_cycle_L1D         0         0         0         0         0         0         0         0         0         0         0         0
@Sumon_Late_by_cycle_L1D         0         0         0         0         0         0         0         0         0         0         0         0
@Sumon_Early_stream_L1D         0         0         0         0         0         0         0         0         0         0         0         0
@Sumon_Early_CS_L1D         0         0         0         0         0         0         0         0         0         0         0         0
@Sumon_Early_CPLX_L1D         0         0         0         0         0         0         0         0         0         0         0         0
@Sumon_Late_stream_L1D         0         0         0         0         0         0         0         0         0         0         0         0
@Sumon_Late_CS_L1D         0         0         0         0         0         0         0         0         0         0         0         0
@Sumon_Late_CPLX_L1D         0         0         0         0         0         0         0         0         0         0         0         0
@sumon_overall_L2C     12356       531       516     12687   4120585   4448169
@Sumon_Early_by_class_L2C         0         0         0         0
@Sumon_Late_by_class_L2C         0         0         0         0

@Sumon_Early_by_cycle_L2C      1000       125        13         0         0         0         0        88       816      8918       981       415
@Sumon_Late_by_cycle_L2C       526         3         1         1         0         0         0         0         0         0         0         0
@Sumon_Early_stream_L2C         0         0         0         0         0         0         0         0         0         0         0         0
@Sumon_Early_CS_L2C         0         0         0         0         0         0         0         0         0         0         0         0
@Sumon_Early_CPLX_L2C         0         0         0         0         0         0         0         0         0         0         0         0
@Sumon_Late_stream_L2C         0         0         0         0         0         0         0         0         0         0         0         0
@Sumon_Late_CS_L2C         0         0         0         0         0         0         0         0         0         0         0         0
@Sumon_Late_CPLX_L2C         0         0         0         0         0         0         0         0         0         0         0         0
DRAM PAGES: 1048576
Allocated PAGES: 2746
