Initialize SIGNATURE TABLE
ST_SET: 1
ST_WAY: 256
ST_TAG_BIT: 16
ST_TAG_MASK: ffff

Initialize PATTERN TABLE
PT_SET: 512
PT_WAY: 4
SIG_DELTA_BIT: 7
C_SIG_BIT: 4
C_DELTA_BIT: 4

Initialize PREFETCH FILTER
FILTER_SET: 1024

*** ChampSim Multicore Out-of-Order Simulator ***

Warmup Instructions: 10000000
Simulation Instructions: 50000000
Number of CPUs: 1
LLC sets: 2048
LLC ways: 16
Off-chip DRAM Size: 4096 MB Channels: 1 Width: 64-bit Data Rate: 533 MT/s
CPU 0 runs traces/SPEC2017/619.lbm_s-3766B.champsimtrace.xz
.xz
CPU 0 Bimodal branch predictor
BTB has LRU replacement policy
ITLB has LRU replacement policy
DTLB has LRU replacement policy
STLB has LRU replacement policy
L1I has LRU replacement policy
L1D has LRU replacement policy
ST_WAYS: 256
PT_SETS: 512
L2C has LRU replacement policy
LLC has LRU replacement policy
Heartbeat CPU 0 instructions: 10000000 cycles: 2734797 heartbeat IPC: 3.65658 cumulative IPC: 3.65658 (Simulation time: 0 hr 15 min 22 sec) 

Warmup complete CPU 0 instructions: 10000004 cycles: 2734798 (Simulation time: 0 hr 15 min 22 sec) 

Heartbeat CPU 0 instructions: 20000001 cycles: 27796202 heartbeat IPC: 0.39902 cumulative IPC: 0.39902 (Simulation time: 0 hr 51 min 40 sec) 
Heartbeat CPU 0 instructions: 30000001 cycles: 52415770 heartbeat IPC: 0.406181 cumulative IPC: 0.402569 (Simulation time: 1 hr 27 min 44 sec) 
Killed
*** Reached end of trace for Core: 0 Repeating trace: traces/SPEC2017/619.lbm_s-3766B.champsimtrace.xz
Killed
*** Reached end of trace for Core: 0 Repeating trace: traces/SPEC2017/619.lbm_s-3766B.champsimtrace.xz
Heartbeat CPU 0 instructions: 40000003 cycles: 75798282 heartbeat IPC: 0.42767 cumulative IPC: 0.410602 (Simulation time: 3 hr 32 min 13 sec) 
Killed
*** Reached end of trace for Core: 0 Repeating trace: traces/SPEC2017/619.lbm_s-3766B.champsimtrace.xz
Heartbeat CPU 0 instructions: 50000000 cycles: 98374259 heartbeat IPC: 0.442949 cumulative IPC: 0.418237 (Simulation time: 5 hr 54 min 9 sec) 
Heartbeat CPU 0 instructions: 60000002 cycles: 123446499 heartbeat IPC: 0.398848 cumulative IPC: 0.41421 (Simulation time: 6 hr 19 min 5 sec) 
Finished CPU 0 instructions: 50000002 cycles: 120711702 cumulative IPC: 0.41421 (Simulation time: 6 hr 19 min 5 sec) 

ChampSim completed all CPUs

Region of Interest Statistics

CPU 0 cumulative IPC: 0.41421 instructions: 50000002 cycles: 120711702
ITLB TOTAL     ACCESS:    6570986  HIT:    6570986  MISS:          0  HIT %:        100  MISS %:          0   MPKI: 0
ITLB LOAD TRANSLATION ACCESS:    6570986  HIT:    6570986  MISS:          0  HIT %:        100  MISS %:          0   MPKI: 0
ITLB PREFETCH  REQUESTED:          0  ISSUED:          0  USEFUL:          0  USELESS:          0
ITLB USEFUL LOAD PREFETCHES:          0 PREFETCH ISSUED TO LOWER LEVEL:          0  ACCURACY: -nan
ITLB TIMELY PREFETCHES:          0 LATE PREFETCHES: 0 DROPPED PREFETCHES: 0
ITLB PREFETCHES SAME FILL-ORIGIN LEVEL: 0 DIFFERENT FILL-ORIGIN LEVEL: 0
ITLB AVERAGE MISS LATENCY: -nan cycles
ITLB RQ	ACCESS:    8598524	FORWARD:          0	MERGED:    2027538	TO_CACHE:    6570986

DTLB TOTAL     ACCESS:    7586357  HIT:    7555170  MISS:      31187  HIT %:    99.5889  MISS %:   0.411093   MPKI: 0.62374
DTLB LOAD TRANSLATION ACCESS:    7586357  HIT:    7555170  MISS:      31187  HIT %:    99.5889  MISS %:   0.411093   MPKI: 0.62374
DTLB PREFETCH  REQUESTED:          0  ISSUED:          0  USEFUL:          0  USELESS:          0
DTLB USEFUL LOAD PREFETCHES:          0 PREFETCH ISSUED TO LOWER LEVEL:          0  ACCURACY: -nan
DTLB TIMELY PREFETCHES:          0 LATE PREFETCHES: 0 DROPPED PREFETCHES: 0
DTLB PREFETCHES SAME FILL-ORIGIN LEVEL: 0 DIFFERENT FILL-ORIGIN LEVEL: 0
DTLB AVERAGE MISS LATENCY: 225.911 cycles
DTLB RQ	ACCESS:   12107770	FORWARD:          0	MERGED:    4514144	TO_CACHE:    7593626

STLB TOTAL     ACCESS:      31187  HIT:      15075  MISS:      16112  HIT %:    48.3374  MISS %:    51.6626   MPKI: 0.32224
STLB LOAD TRANSLATION ACCESS:      31187  HIT:      15075  MISS:      16112  HIT %:    48.3374  MISS %:    51.6626   MPKI: 0.32224
STLB PREFETCH  REQUESTED:          0  ISSUED:          0  USEFUL:          0  USELESS:          0
STLB USEFUL LOAD PREFETCHES:          0 PREFETCH ISSUED TO LOWER LEVEL:          0  ACCURACY: -nan
STLB TIMELY PREFETCHES:          0 LATE PREFETCHES: 0 DROPPED PREFETCHES: 0
STLB PREFETCHES SAME FILL-ORIGIN LEVEL: 0 DIFFERENT FILL-ORIGIN LEVEL: 0
STLB AVERAGE MISS LATENCY: 419.471 cycles
STLB RQ	ACCESS:      31188	FORWARD:          0	MERGED:          0	TO_CACHE:      31188

STLB Hit, L1D data hit: 0
STLB Hit, L2C data hit: 0
STLB Hit, LLC data hit: 0
STLB Hit, LLC data miss: 0
STLB STLB hints to L2: 0
L1D TOTAL     ACCESS:   12023367  HIT:   10241630  MISS:    1781737  HIT %:     85.181  MISS %:     14.819   MPKI: 35.6347
L1D LOAD      ACCESS:    4634223  HIT:    4364251  MISS:     269972  HIT %:    94.1744  MISS %:    5.82562   MPKI: 5.39944
L1D RFO       ACCESS:    7389144  HIT:    5877379  MISS:    1511765  HIT %:    79.5407  MISS %:    20.4593   MPKI: 30.2353
L1D PREFETCH  REQUESTED:          0  ISSUED:          0  USEFUL:          0  USELESS:          0
L1D USEFUL LOAD PREFETCHES:          0 PREFETCH ISSUED TO LOWER LEVEL:          0  ACCURACY: -nan
L1D TIMELY PREFETCHES:          0 LATE PREFETCHES: 0 DROPPED PREFETCHES: 0
L1D PREFETCHES SAME FILL-ORIGIN LEVEL: 0 DIFFERENT FILL-ORIGIN LEVEL: 0
L1D AVERAGE MISS LATENCY: 898.08 cycles
L1D RQ	ACCESS:   10483146	FORWARD:          0	MERGED:    5461932	TO_CACHE:    4678604
L1D WQ	ACCESS:    7443183	FORWARD:     342610	MERGED:      14017	TO_CACHE:    7429166

L1D UNIQUE REGIONS ACCESSED: 0
L1D REGIONS CONFLICTS: 0
L1D Cross Page Prefetch Requests: 0
L1D Same Page Prefetch Requests: 0
L1D ROI Sum of L1D PQ occupancy: 0
L1D PREFETCHES PUSHED FROM L2C: 0
L1I TOTAL     ACCESS:    8598521  HIT:    8598521  MISS:          0  HIT %:        100  MISS %:          0   MPKI: 0
L1I LOAD      ACCESS:    8598521  HIT:    8598521  MISS:          0  HIT %:        100  MISS %:          0   MPKI: 0
L1I PREFETCH  REQUESTED:          0  ISSUED:          0  USEFUL:          0  USELESS:          0
L1I USEFUL LOAD PREFETCHES:          0 PREFETCH ISSUED TO LOWER LEVEL:          0  ACCURACY: -nan
L1I TIMELY PREFETCHES:          0 LATE PREFETCHES: 0 DROPPED PREFETCHES: 0
L1I PREFETCHES SAME FILL-ORIGIN LEVEL: 0 DIFFERENT FILL-ORIGIN LEVEL: 0
L1I AVERAGE MISS LATENCY: -nan cycles
L1I RQ	ACCESS:   12322016	FORWARD:          0	MERGED:    3723492	TO_CACHE:    8598524

BTB TOTAL     ACCESS:     535381  HIT:     535375  MISS:          6  HIT %:    99.9989  MISS %:  0.0011207   MPKI: 0.00012
BTB BRANCH_DIRECT_JUMP	ACCESS:       2266  HIT:       2265  MISS:          1
BTB BRANCH_INDIRECT	ACCESS:          0  HIT:          0  MISS:          0
BTB BRANCH_CONDITIONAL	ACCESS:     533115  HIT:     533110  MISS:          5
BTB BRANCH_DIRECT_CALL	ACCESS:          0  HIT:          0  MISS:          0
BTB BRANCH_INDIRECT_CALL	ACCESS:          0  HIT:          0  MISS:          0
BTB BRANCH_RETURN	ACCESS:          0  HIT:          0  MISS:          0
BTB BRANCH_OTHER ACCESS:          0  HIT:          0  MISS:          0

L2C TOTAL     ACCESS:    3381829  HIT:    2284070  MISS:    1097759  HIT %:    67.5395  MISS %:    32.4605   MPKI: 21.9552
L2C LOAD      ACCESS:     269972  HIT:      70489  MISS:     199483  HIT %:    26.1097  MISS %:    73.8903   MPKI: 3.98966
L2C DATA LOAD MPKI: 3.98966
L2C INSTRUCTION LOAD MPKI: 0
L2C RFO       ACCESS:    1511764  HIT:     686030  MISS:     825734  HIT %:    45.3794  MISS %:    54.6206   MPKI: 16.5147
L2C PREFETCH  ACCESS:      72213  HIT:       1724  MISS:      70489  HIT %:    2.38738  MISS %:    97.6126   MPKI: 1.40978
L2C DATA PREFETCH MPKI: 1.40978
L2C INSTRUCTION PREFETCH MPKI: 0
L2C WRITEBACK ACCESS:    1511768  HIT:    1511750  MISS:         18  HIT %:    99.9988  MISS %: 0.00119066   MPKI: 0.00036
L2C LOAD TRANSLATION ACCESS:      16112  HIT:      14077  MISS:       2035  HIT %:    87.3697  MISS %:    12.6303   MPKI: 0.0407
L2C PREFETCH  REQUESTED:    2093489  ISSUED:    2093485  USEFUL:      70489  USELESS:          1
L2C USEFUL LOAD PREFETCHES:      70489 PREFETCH ISSUED TO LOWER LEVEL:    1583651  ACCURACY: 4.45104
L2C TIMELY PREFETCHES:      70489 LATE PREFETCHES: 40277 DROPPED PREFETCHES: 0
L2C PREFETCHES SAME FILL-ORIGIN LEVEL: 110766 DIFFERENT FILL-ORIGIN LEVEL: 1472885
L2C AVERAGE MISS LATENCY: 1441.86 cycles
L2C RQ	ACCESS:    1797863	FORWARD:          0	MERGED:          0	TO_CACHE:    1797863
L2C WQ	ACCESS:    1511768	FORWARD:          0	MERGED:          0	TO_CACHE:    1511768
L2C PQ	ACCESS:    2093485	FORWARD:          0	MERGED:     463305	TO_CACHE:    1630180

L2C Instructions Evicting Data 0
L2C Translations Evicting Data 2034
L2C Data Evicting Data 1093672
L2C Instructions Evicting Instructions 0
L2C Translations Evicting Instructions 0
L2C Data Evicting Instructions 0
L2C Instructions Evicting Translations 0
L2C Translations Evicting Translations 1
L2C Data Evicting Translations 2034
L2C Dense regions hint from L2: 0
PSCL5 TOTAL     ACCESS:      16112  HIT:      16112  MISS:          0  HIT %:        100  MISS %:          0   MPKI: 0
PSCL5 LOAD TRANSLATION ACCESS:      16112  HIT:      16112  MISS:          0  HIT %:        100  MISS %:          0   MPKI: 0
PSCL5 PREFETCH  REQUESTED:          0  ISSUED:          0  USEFUL:          0  USELESS:          0
PSCL5 USEFUL LOAD PREFETCHES:          0 PREFETCH ISSUED TO LOWER LEVEL:          0  ACCURACY: -nan
PSCL5 TIMELY PREFETCHES:          0 LATE PREFETCHES: 0 DROPPED PREFETCHES: 0
PSCL5 PREFETCHES SAME FILL-ORIGIN LEVEL: 0 DIFFERENT FILL-ORIGIN LEVEL: 0

PSCL4 TOTAL     ACCESS:      16112  HIT:      16112  MISS:          0  HIT %:        100  MISS %:          0   MPKI: 0
PSCL4 LOAD TRANSLATION ACCESS:      16112  HIT:      16112  MISS:          0  HIT %:        100  MISS %:          0   MPKI: 0
PSCL4 PREFETCH  REQUESTED:          0  ISSUED:          0  USEFUL:          0  USELESS:          0
PSCL4 USEFUL LOAD PREFETCHES:          0 PREFETCH ISSUED TO LOWER LEVEL:          0  ACCURACY: -nan
PSCL4 TIMELY PREFETCHES:          0 LATE PREFETCHES: 0 DROPPED PREFETCHES: 0
PSCL4 PREFETCHES SAME FILL-ORIGIN LEVEL: 0 DIFFERENT FILL-ORIGIN LEVEL: 0

PSCL3 TOTAL     ACCESS:      16112  HIT:      16112  MISS:          0  HIT %:        100  MISS %:          0   MPKI: 0
PSCL3 LOAD TRANSLATION ACCESS:      16112  HIT:      16112  MISS:          0  HIT %:        100  MISS %:          0   MPKI: 0
PSCL3 PREFETCH  REQUESTED:          0  ISSUED:          0  USEFUL:          0  USELESS:          0
PSCL3 USEFUL LOAD PREFETCHES:          0 PREFETCH ISSUED TO LOWER LEVEL:          0  ACCURACY: -nan
PSCL3 TIMELY PREFETCHES:          0 LATE PREFETCHES: 0 DROPPED PREFETCHES: 0
PSCL3 PREFETCHES SAME FILL-ORIGIN LEVEL: 0 DIFFERENT FILL-ORIGIN LEVEL: 0

PSCL2 TOTAL     ACCESS:      16112  HIT:      16103  MISS:          9  HIT %:    99.9441  MISS %:   0.055859   MPKI: 0.00018
PSCL2 LOAD TRANSLATION ACCESS:      16112  HIT:      16103  MISS:          9  HIT %:    99.9441  MISS %:   0.055859   MPKI: 0.00018
PSCL2 PREFETCH  REQUESTED:          0  ISSUED:          0  USEFUL:          0  USELESS:          0
PSCL2 USEFUL LOAD PREFETCHES:          0 PREFETCH ISSUED TO LOWER LEVEL:          0  ACCURACY: -nan
PSCL2 TIMELY PREFETCHES:          0 LATE PREFETCHES: 0 DROPPED PREFETCHES: 0
PSCL2 PREFETCHES SAME FILL-ORIGIN LEVEL: 0 DIFFERENT FILL-ORIGIN LEVEL: 0

LLC TOTAL     ACCESS:    2704590  HIT:    1672211  MISS:    1032379  HIT %:    61.8286  MISS %:    38.1714   MPKI: 20.6476
LLC LOAD      ACCESS:     159206  HIT:     139960  MISS:      19246  HIT %:    87.9113  MISS %:    12.0887   MPKI: 0.38492
LLC RFO       ACCESS:     825734  HIT:      53887  MISS:     771847  HIT %:    6.52595  MISS %:     93.474   MPKI: 15.4369
LLC PREFETCH  ACCESS:     891707  HIT:     652470  MISS:     239237  HIT %:    73.1709  MISS %:    26.8291   MPKI: 4.78474
LLC WRITEBACK ACCESS:     825908  HIT:     825890  MISS:         18  HIT %:    99.9978  MISS %: 0.00217942   MPKI: 0.00036
LLC LOAD TRANSLATION ACCESS:       2035  HIT:          4  MISS:       2031  HIT %:    0.19656  MISS %:    99.8034   MPKI: 0.04062
LLC PREFETCH  REQUESTED:          0  ISSUED:          0  USEFUL:     133909  USELESS:     105170
LLC USEFUL LOAD PREFETCHES:     133909 PREFETCH ISSUED TO LOWER LEVEL:     251766  ACCURACY: 53.1879
LLC TIMELY PREFETCHES:     133909 LATE PREFETCHES: 12526 DROPPED PREFETCHES: 0
LLC PREFETCHES SAME FILL-ORIGIN LEVEL: 249562 DIFFERENT FILL-ORIGIN LEVEL: 0
LLC AVERAGE MISS LATENCY: 1900.17 cycles
LLC RQ	ACCESS:     986990	FORWARD:          0	MERGED:          0	TO_CACHE:     986990
LLC WQ	ACCESS:     825907	FORWARD:          0	MERGED:          0	TO_CACHE:     825907
LLC PQ	ACCESS:    1583651	FORWARD:          0	MERGED:     147986	TO_CACHE:    1435665

LLC Dense regions hint to LLC: 0

RAW hits: 1190935
Loads Generated: 11674083
Loads sent to L1D: 10483146
Stores Generated: 7443162
Stores sent to L1D: 7443183
Major fault: 0 Minor fault: 9591
Allocated PAGES: 9591
 All Calls: 323430
 Critical Calls: 323430
------------------
Depth Distribution
------------------
depth 0: 0
depth 1: 318795
depth 2: 314212
depth 3: 307582
depth 4: 300766
depth 5: 292990
depth 6: 280079
depth 7: 257797
depth 8: 215165
depth 9: 151457
depth 10: 83698
depth 11: 41380
depth 12: 13958
depth 13: 2942
depth 14: 126
depth 15: 1
depth 16: 0
depth 17: 0
depth 18: 0
depth 19: 0
depth 20: 0
depth 21: 0
depth 22: 0
depth 23: 0
depth 24: 0
depth 25: 0
depth 26: 0
depth 27: 0
depth 28: 0
depth 29: 0
Total: 2580948
-----------------------------
-----------------------------
	Captured at Filter
-----------------------------
depth 0: 0
depth 1: 2948
depth 2: 859
depth 3: 571
depth 4: 660
depth 5: 690
depth 6: 571
depth 7: 606
depth 8: 376
depth 9: 272
depth 10: 147
depth 11: 66
depth 12: 20
depth 13: 3
depth 14: 0
depth 15: 0
depth 16: 0
depth 17: 0
depth 18: 0
depth 19: 0
depth 20: 0
depth 21: 0
depth 22: 0
depth 23: 0
depth 24: 0
depth 25: 0
depth 26: 0
depth 27: 0
depth 28: 0
depth 29: 0
-----------------------------
-----------------------------
		Lost at Page
-----------------------------
depth 0: 0
depth 1: 7847
depth 2: 9500
depth 3: 14177
depth 4: 19145
depth 5: 23813
depth 6: 27953
depth 7: 30769
depth 8: 31186
depth 9: 27228
depth 10: 19353
depth 11: 11746
depth 12: 4842
depth 13: 1186
depth 14: 48
depth 15: 1
depth 16: 0
depth 17: 0
depth 18: 0
depth 19: 0
depth 20: 0
depth 21: 0
depth 22: 0
depth 23: 0
depth 24: 0
depth 25: 0
depth 26: 0
depth 27: 0
depth 28: 0
depth 29: 0
-----------------------------
-----------------------------
	Lost due to PQ Size
-----------------------------
20
-----------------------------
ST read accesses: 265933
ST write accesses: 4039
PT read accesses: 12785328
PT write accesses: 398462
FILTER read accesses: 3468022
FILTER write accesses: 1383493
GHR read accesses: 905857
GHR write accesses: 179948
GHR counter read accesses: 10691444
GHR counter write accesses: 554709
ST tag read accesses: 106787129
ST tag write accesses: 1316881

DRAM Statistics
 CHANNEL 0
 RQ ROW_BUFFER_HIT:     183556  ROW_BUFFER_MISS:     848806
 DBUS_CONGESTED:    1717837
 WQ ROW_BUFFER_HIT:      91405  ROW_BUFFER_MISS:     680728  FULL:          0

 AVG_CONGESTED_CYCLE: 54
 All warmup complete: 2
Channel 0 Bank busy for read cycles: 0
Channel 0 Bank busy for write cycles: 0
Channel 0
Rank 0
0banks busy for read cycles: 2058337
0banks busy for write cycles: 2
1banks busy for read cycles: 575810
1banks busy for write cycles: 88243
2banks busy for read cycles: 757699
2banks busy for write cycles: 88433
3banks busy for read cycles: 1145932
3banks busy for write cycles: 88569
4banks busy for read cycles: 1934952
4banks busy for write cycles: 88586
5banks busy for read cycles: 3131949
5banks busy for write cycles: 88257
6banks busy for read cycles: 7587279
6banks busy for write cycles: 88376
7banks busy for read cycles: 16969173
7banks busy for write cycles: 863864
8banks busy for read cycles: 35730564
8banks busy for write cycles: 49425678

CPU 0 Branch Prediction Accuracy: 99.7008% MPKI: 0.03204 Average ROB Occupancy at Mispredict: 101.19
Branch types
NOT_BRANCH: 49464301 98.9286%
BRANCH_DIRECT_JUMP: 2266 0.004532%
BRANCH_INDIRECT: 0 0%
BRANCH_CONDITIONAL: 533115 1.06623%
BRANCH_DIRECT_CALL: 0 0%
BRANCH_INDIRECT_CALL: 0 0%
BRANCH_RETURN: 0 0%
BRANCH_OTHER: 0 0%

@sumon_overall_L1D         0         0         0         0         0         0
@Sumon_Early_by_class_L1D         0         0         0         0
@Sumon_Late_by_class_L1D         0         0         0         0

@Sumon_Early_by_cycle_L1D         0         0         0         0         0         0         0         0         0         0         0         0
@Sumon_Late_by_cycle_L1D         0         0         0         0         0         0         0         0         0         0         0         0
@Sumon_Early_stream_L1D         0         0         0         0         0         0         0         0         0         0         0         0
@Sumon_Early_CS_L1D         0         0         0         0         0         0         0         0         0         0         0         0
@Sumon_Early_CPLX_L1D         0         0         0         0         0         0         0         0         0         0         0         0
@Sumon_Late_stream_L1D         0         0         0         0         0         0         0         0         0         0         0         0
@Sumon_Late_CS_L1D         0         0         0         0         0         0         0         0         0         0         0         0
@Sumon_Late_CPLX_L1D         0         0         0         0         0         0         0         0         0         0         0         0
@sumon_overall_L2C     70489     40277         1     70489   2093485   2093489
@Sumon_Early_by_class_L2C         0         0         0         0
@Sumon_Late_by_class_L2C         0         0         0         0

@Sumon_Early_by_cycle_L2C     33441      4760      9572      2646      3789     15439       842         0         0         0         0         0
@Sumon_Late_by_cycle_L2C     30791      1092      1299       463       818      5140       673         1         0         0         0         0
@Sumon_Early_stream_L2C         0         0         0         0         0         0         0         0         0         0         0         0
@Sumon_Early_CS_L2C         0         0         0         0         0         0         0         0         0         0         0         0
@Sumon_Early_CPLX_L2C         0         0         0         0         0         0         0         0         0         0         0         0
@Sumon_Late_stream_L2C         0         0         0         0         0         0         0         0         0         0         0         0
@Sumon_Late_CS_L2C         0         0         0         0         0         0         0         0         0         0         0         0
@Sumon_Late_CPLX_L2C         0         0         0         0         0         0         0         0         0         0         0         0
DRAM PAGES: 1048576
Allocated PAGES: 9591
