Initialize SIGNATURE TABLE
ST_SET: 1
ST_WAY: 256
ST_TAG_BIT: 16
ST_TAG_MASK: ffff

Initialize PATTERN TABLE
PT_SET: 512
PT_WAY: 4
SIG_DELTA_BIT: 7
C_SIG_BIT: 4
C_DELTA_BIT: 4

Initialize PREFETCH FILTER
FILTER_SET: 1024

*** ChampSim Multicore Out-of-Order Simulator ***

Warmup Instructions: 10000000
Simulation Instructions: 50000000
Number of CPUs: 1
LLC sets: 2048
LLC ways: 16
Off-chip DRAM Size: 4096 MB Channels: 1 Width: 64-bit Data Rate: 533 MT/s
CPU 0 runs traces/SPEC2017/619.lbm_s-4268B.champsimtrace.xz
.xz
CPU 0 Bimodal branch predictor
BTB has LRU replacement policy
ITLB has LRU replacement policy
DTLB has LRU replacement policy
STLB has LRU replacement policy
L1I has LRU replacement policy
L1D has LRU replacement policy
ST_WAYS: 256
PT_SETS: 512
L2C has LRU replacement policy
LLC has LRU replacement policy
Heartbeat CPU 0 instructions: 10000000 cycles: 2913708 heartbeat IPC: 3.43205 cumulative IPC: 3.43205 (Simulation time: 0 hr 17 min 33 sec) 

Warmup complete CPU 0 instructions: 10000004 cycles: 2913709 (Simulation time: 0 hr 17 min 33 sec) 

Heartbeat CPU 0 instructions: 20000002 cycles: 56818679 heartbeat IPC: 0.185512 cumulative IPC: 0.185512 (Simulation time: 1 hr 23 min 57 sec) 
Killed
*** Reached end of trace for Core: 0 Repeating trace: traces/SPEC2017/619.lbm_s-4268B.champsimtrace.xz
Heartbeat CPU 0 instructions: 30000001 cycles: 110281818 heartbeat IPC: 0.187045 cumulative IPC: 0.186275 (Simulation time: 4 hr 47 min 44 sec) 
Heartbeat CPU 0 instructions: 40000002 cycles: 163925716 heartbeat IPC: 0.186415 cumulative IPC: 0.186321 (Simulation time: 6 hr 20 min 23 sec) 
Heartbeat CPU 0 instructions: 50000000 cycles: 217538040 heartbeat IPC: 0.186524 cumulative IPC: 0.186372 (Simulation time: 6 hr 44 min 1 sec) 
Heartbeat CPU 0 instructions: 60000002 cycles: 272634753 heartbeat IPC: 0.181499 cumulative IPC: 0.185377 (Simulation time: 6 hr 57 min 26 sec) 
Finished CPU 0 instructions: 50000002 cycles: 269721049 cumulative IPC: 0.185377 (Simulation time: 6 hr 57 min 26 sec) 

ChampSim completed all CPUs

Region of Interest Statistics

CPU 0 cumulative IPC: 0.185377 instructions: 50000002 cycles: 269721049
ITLB TOTAL     ACCESS:    6790387  HIT:    6790387  MISS:          0  HIT %:        100  MISS %:          0   MPKI: 0
ITLB LOAD TRANSLATION ACCESS:    6790387  HIT:    6790387  MISS:          0  HIT %:        100  MISS %:          0   MPKI: 0
ITLB PREFETCH  REQUESTED:          0  ISSUED:          0  USEFUL:          0  USELESS:          0
ITLB USEFUL LOAD PREFETCHES:          0 PREFETCH ISSUED TO LOWER LEVEL:          0  ACCURACY: -nan
ITLB TIMELY PREFETCHES:          0 LATE PREFETCHES: 0 DROPPED PREFETCHES: 0
ITLB PREFETCHES SAME FILL-ORIGIN LEVEL: 0 DIFFERENT FILL-ORIGIN LEVEL: 0
ITLB AVERAGE MISS LATENCY: -nan cycles
ITLB RQ	ACCESS:    8764077	FORWARD:          0	MERGED:    1973690	TO_CACHE:    6790387

DTLB TOTAL     ACCESS:    8916576  HIT:    8849261  MISS:      67315  HIT %:    99.2451  MISS %:   0.754942   MPKI: 1.3463
DTLB LOAD TRANSLATION ACCESS:    8916576  HIT:    8849261  MISS:      67315  HIT %:    99.2451  MISS %:   0.754942   MPKI: 1.3463
DTLB PREFETCH  REQUESTED:          0  ISSUED:          0  USEFUL:          0  USELESS:          0
DTLB USEFUL LOAD PREFETCHES:          0 PREFETCH ISSUED TO LOWER LEVEL:          0  ACCURACY: -nan
DTLB TIMELY PREFETCHES:          0 LATE PREFETCHES: 0 DROPPED PREFETCHES: 0
DTLB PREFETCHES SAME FILL-ORIGIN LEVEL: 0 DIFFERENT FILL-ORIGIN LEVEL: 0
DTLB AVERAGE MISS LATENCY: 225.609 cycles
DTLB RQ	ACCESS:   13544612	FORWARD:          0	MERGED:    4599346	TO_CACHE:    8945266

STLB TOTAL     ACCESS:      67315  HIT:      30756  MISS:      36559  HIT %:    45.6897  MISS %:    54.3103   MPKI: 0.73118
STLB LOAD TRANSLATION ACCESS:      67315  HIT:      30756  MISS:      36559  HIT %:    45.6897  MISS %:    54.3103   MPKI: 0.73118
STLB PREFETCH  REQUESTED:          0  ISSUED:          0  USEFUL:          0  USELESS:          0
STLB USEFUL LOAD PREFETCHES:          0 PREFETCH ISSUED TO LOWER LEVEL:          0  ACCURACY: -nan
STLB TIMELY PREFETCHES:          0 LATE PREFETCHES: 0 DROPPED PREFETCHES: 0
STLB PREFETCHES SAME FILL-ORIGIN LEVEL: 0 DIFFERENT FILL-ORIGIN LEVEL: 0
STLB AVERAGE MISS LATENCY: 398.44 cycles
STLB RQ	ACCESS:      67315	FORWARD:          0	MERGED:          0	TO_CACHE:      67315

STLB Hit, L1D data hit: 0
STLB Hit, L2C data hit: 0
STLB Hit, LLC data hit: 0
STLB Hit, LLC data miss: 0
STLB STLB hints to L2: 0
L1D TOTAL     ACCESS:   13383851  HIT:    9529368  MISS:    3854483  HIT %:    71.2005  MISS %:    28.7995   MPKI: 77.0897
L1D LOAD      ACCESS:    4363494  HIT:    3779388  MISS:     584106  HIT %:    86.6138  MISS %:    13.3862   MPKI: 11.6821
L1D RFO       ACCESS:    9020357  HIT:    5749980  MISS:    3270377  HIT %:    63.7445  MISS %:    36.2555   MPKI: 65.4075
L1D PREFETCH  REQUESTED:          0  ISSUED:          0  USEFUL:          0  USELESS:          0
L1D USEFUL LOAD PREFETCHES:          0 PREFETCH ISSUED TO LOWER LEVEL:          0  ACCURACY: -nan
L1D TIMELY PREFETCHES:          0 LATE PREFETCHES: 0 DROPPED PREFETCHES: 0
L1D PREFETCHES SAME FILL-ORIGIN LEVEL: 0 DIFFERENT FILL-ORIGIN LEVEL: 0
L1D AVERAGE MISS LATENCY: 969.376 cycles
L1D RQ	ACCESS:   11936398	FORWARD:          0	MERGED:    7106670	TO_CACHE:    4431220
L1D WQ	ACCESS:    9154603	FORWARD:     398508	MERGED:      41211	TO_CACHE:    9113392

L1D UNIQUE REGIONS ACCESSED: 0
L1D REGIONS CONFLICTS: 0
L1D Cross Page Prefetch Requests: 0
L1D Same Page Prefetch Requests: 0
L1D ROI Sum of L1D PQ occupancy: 0
L1D PREFETCHES PUSHED FROM L2C: 0
L1I TOTAL     ACCESS:    8764078  HIT:    8764078  MISS:          0  HIT %:        100  MISS %:          0   MPKI: 0
L1I LOAD      ACCESS:    8764078  HIT:    8764078  MISS:          0  HIT %:        100  MISS %:          0   MPKI: 0
L1I PREFETCH  REQUESTED:          0  ISSUED:          0  USEFUL:          0  USELESS:          0
L1I USEFUL LOAD PREFETCHES:          0 PREFETCH ISSUED TO LOWER LEVEL:          0  ACCURACY: -nan
L1I TIMELY PREFETCHES:          0 LATE PREFETCHES: 0 DROPPED PREFETCHES: 0
L1I PREFETCHES SAME FILL-ORIGIN LEVEL: 0 DIFFERENT FILL-ORIGIN LEVEL: 0
L1I AVERAGE MISS LATENCY: -nan cycles
L1I RQ	ACCESS:   12741459	FORWARD:          0	MERGED:    3977382	TO_CACHE:    8764077

BTB TOTAL     ACCESS:     885721  HIT:     885715  MISS:          6  HIT %:    99.9993  MISS %: 0.000677414   MPKI: 0.00012
BTB BRANCH_DIRECT_JUMP	ACCESS:     141109  HIT:     141108  MISS:          1
BTB BRANCH_INDIRECT	ACCESS:          0  HIT:          0  MISS:          0
BTB BRANCH_CONDITIONAL	ACCESS:     744612  HIT:     744607  MISS:          5
BTB BRANCH_DIRECT_CALL	ACCESS:          0  HIT:          0  MISS:          0
BTB BRANCH_INDIRECT_CALL	ACCESS:          0  HIT:          0  MISS:          0
BTB BRANCH_RETURN	ACCESS:          0  HIT:          0  MISS:          0
BTB BRANCH_OTHER ACCESS:          0  HIT:          0  MISS:          0

L2C TOTAL     ACCESS:    7286506  HIT:    4922768  MISS:    2363738  HIT %:    67.5601  MISS %:    32.4399   MPKI: 47.2748
L2C LOAD      ACCESS:     584106  HIT:     123905  MISS:     460201  HIT %:    21.2128  MISS %:    78.7872   MPKI: 9.20402
L2C DATA LOAD MPKI: 9.20402
L2C INSTRUCTION LOAD MPKI: 0
L2C RFO       ACCESS:    3270376  HIT:    1495418  MISS:    1774958  HIT %:    45.7262  MISS %:    54.2738   MPKI: 35.4992
L2C PREFETCH  ACCESS:     125082  HIT:       1216  MISS:     123866  HIT %:   0.972162  MISS %:    99.0278   MPKI: 2.47732
L2C DATA PREFETCH MPKI: 2.47732
L2C INSTRUCTION PREFETCH MPKI: 0
L2C WRITEBACK ACCESS:    3270383  HIT:    3270271  MISS:        112  HIT %:    99.9966  MISS %: 0.00342468   MPKI: 0.00224
L2C LOAD TRANSLATION ACCESS:      36559  HIT:      31958  MISS:       4601  HIT %:    87.4149  MISS %:    12.5851   MPKI: 0.09202
L2C PREFETCH  REQUESTED:    3603378  ISSUED:    3603378  USEFUL:     123863  USELESS:          2
L2C USEFUL LOAD PREFETCHES:     123863 PREFETCH ISSUED TO LOWER LEVEL:    2658306  ACCURACY: 4.65947
L2C TIMELY PREFETCHES:     123863 LATE PREFETCHES: 129091 DROPPED PREFETCHES: 0
L2C PREFETCHES SAME FILL-ORIGIN LEVEL: 252957 DIFFERENT FILL-ORIGIN LEVEL: 2405349
L2C AVERAGE MISS LATENCY: 1568.41 cycles
L2C RQ	ACCESS:    3891057	FORWARD:          0	MERGED:          0	TO_CACHE:    3891056
L2C WQ	ACCESS:    3270384	FORWARD:          1	MERGED:          0	TO_CACHE:    3270384
L2C PQ	ACCESS:    3603378	FORWARD:          0	MERGED:     866180	TO_CACHE:    2737198

L2C Instructions Evicting Data 0
L2C Translations Evicting Data 4591
L2C Data Evicting Data 2354437
L2C Instructions Evicting Instructions 0
L2C Translations Evicting Instructions 0
L2C Data Evicting Instructions 0
L2C Instructions Evicting Translations 0
L2C Translations Evicting Translations 10
L2C Data Evicting Translations 4588
L2C Dense regions hint from L2: 0
PSCL5 TOTAL     ACCESS:      36559  HIT:      36559  MISS:          0  HIT %:        100  MISS %:          0   MPKI: 0
PSCL5 LOAD TRANSLATION ACCESS:      36559  HIT:      36559  MISS:          0  HIT %:        100  MISS %:          0   MPKI: 0
PSCL5 PREFETCH  REQUESTED:          0  ISSUED:          0  USEFUL:          0  USELESS:          0
PSCL5 USEFUL LOAD PREFETCHES:          0 PREFETCH ISSUED TO LOWER LEVEL:          0  ACCURACY: -nan
PSCL5 TIMELY PREFETCHES:          0 LATE PREFETCHES: 0 DROPPED PREFETCHES: 0
PSCL5 PREFETCHES SAME FILL-ORIGIN LEVEL: 0 DIFFERENT FILL-ORIGIN LEVEL: 0

PSCL4 TOTAL     ACCESS:      36559  HIT:      36559  MISS:          0  HIT %:        100  MISS %:          0   MPKI: 0
PSCL4 LOAD TRANSLATION ACCESS:      36559  HIT:      36559  MISS:          0  HIT %:        100  MISS %:          0   MPKI: 0
PSCL4 PREFETCH  REQUESTED:          0  ISSUED:          0  USEFUL:          0  USELESS:          0
PSCL4 USEFUL LOAD PREFETCHES:          0 PREFETCH ISSUED TO LOWER LEVEL:          0  ACCURACY: -nan
PSCL4 TIMELY PREFETCHES:          0 LATE PREFETCHES: 0 DROPPED PREFETCHES: 0
PSCL4 PREFETCHES SAME FILL-ORIGIN LEVEL: 0 DIFFERENT FILL-ORIGIN LEVEL: 0

PSCL3 TOTAL     ACCESS:      36559  HIT:      36559  MISS:          0  HIT %:        100  MISS %:          0   MPKI: 0
PSCL3 LOAD TRANSLATION ACCESS:      36559  HIT:      36559  MISS:          0  HIT %:        100  MISS %:          0   MPKI: 0
PSCL3 PREFETCH  REQUESTED:          0  ISSUED:          0  USEFUL:          0  USELESS:          0
PSCL3 USEFUL LOAD PREFETCHES:          0 PREFETCH ISSUED TO LOWER LEVEL:          0  ACCURACY: -nan
PSCL3 TIMELY PREFETCHES:          0 LATE PREFETCHES: 0 DROPPED PREFETCHES: 0
PSCL3 PREFETCHES SAME FILL-ORIGIN LEVEL: 0 DIFFERENT FILL-ORIGIN LEVEL: 0

PSCL2 TOTAL     ACCESS:      36559  HIT:      36542  MISS:         17  HIT %:    99.9535  MISS %:  0.0465002   MPKI: 0.00034
PSCL2 LOAD TRANSLATION ACCESS:      36559  HIT:      36542  MISS:         17  HIT %:    99.9535  MISS %:  0.0465002   MPKI: 0.00034
PSCL2 PREFETCH  REQUESTED:          0  ISSUED:          0  USEFUL:          0  USELESS:          0
PSCL2 USEFUL LOAD PREFETCHES:          0 PREFETCH ISSUED TO LOWER LEVEL:          0  ACCURACY: -nan
PSCL2 TIMELY PREFETCHES:          0 LATE PREFETCHES: 0 DROPPED PREFETCHES: 0
PSCL2 PREFETCHES SAME FILL-ORIGIN LEVEL: 0 DIFFERENT FILL-ORIGIN LEVEL: 0

LLC TOTAL     ACCESS:    5086076  HIT:    2743897  MISS:    2342179  HIT %:    53.9492  MISS %:    46.0508   MPKI: 46.8436
LLC LOAD      ACCESS:     331110  HIT:     225091  MISS:     106019  HIT %:    67.9807  MISS %:    32.0193   MPKI: 2.12038
LLC RFO       ACCESS:    1774935  HIT:      21536  MISS:    1753399  HIT %:    1.21334  MISS %:    98.7867   MPKI: 35.068
LLC PREFETCH  ACCESS:    1200099  HIT:     722023  MISS:     478076  HIT %:    60.1636  MISS %:    39.8364   MPKI: 9.56152
LLC WRITEBACK ACCESS:    1775331  HIT:    1775247  MISS:         84  HIT %:    99.9953  MISS %: 0.00473151   MPKI: 0.00168
LLC LOAD TRANSLATION ACCESS:       4601  HIT:          0  MISS:       4601  HIT %:          0  MISS %:        100   MPKI: 0.09202
LLC PREFETCH  REQUESTED:          0  ISSUED:          0  USEFUL:     225060  USELESS:     250215
LLC USEFUL LOAD PREFETCHES:     225060 PREFETCH ISSUED TO LOWER LEVEL:     566596  ACCURACY: 39.7214
LLC TIMELY PREFETCHES:     225060 LATE PREFETCHES: 88514 DROPPED PREFETCHES: 0
LLC PREFETCHES SAME FILL-ORIGIN LEVEL: 561797 DIFFERENT FILL-ORIGIN LEVEL: 0
LLC AVERAGE MISS LATENCY: 1860.43 cycles
LLC RQ	ACCESS:    2110683	FORWARD:          0	MERGED:          0	TO_CACHE:    2110660
LLC WQ	ACCESS:    1775332	FORWARD:         23	MERGED:          0	TO_CACHE:    1775332
LLC PQ	ACCESS:    2658306	FORWARD:          0	MERGED:     328281	TO_CACHE:    2330025

LLC Dense regions hint to LLC: 0

RAW hits: 1058479
Loads Generated: 12994880
Loads sent to L1D: 11936398
Stores Generated: 9154585
Stores sent to L1D: 9154603
Major fault: 0 Minor fault: 15372
Allocated PAGES: 15372
 All Calls: 701723
 Critical Calls: 701723
------------------
Depth Distribution
------------------
depth 0: 0
depth 1: 770928
depth 2: 746795
depth 3: 713011
depth 4: 675671
depth 5: 625698
depth 6: 449718
depth 7: 271978
depth 8: 149408
depth 9: 66104
depth 10: 14684
depth 11: 1724
depth 12: 177
depth 13: 13
depth 14: 0
depth 15: 0
depth 16: 0
depth 17: 0
depth 18: 0
depth 19: 0
depth 20: 0
depth 21: 0
depth 22: 0
depth 23: 0
depth 24: 0
depth 25: 0
depth 26: 0
depth 27: 0
depth 28: 0
depth 29: 0
Total: 4485909
-----------------------------
-----------------------------
	Captured at Filter
-----------------------------
depth 0: 0
depth 1: 4340
depth 2: 2448
depth 3: 1608
depth 4: 1258
depth 5: 1148
depth 6: 815
depth 7: 504
depth 8: 289
depth 9: 130
depth 10: 40
depth 11: 6
depth 12: 1
depth 13: 0
depth 14: 0
depth 15: 0
depth 16: 0
depth 17: 0
depth 18: 0
depth 19: 0
depth 20: 0
depth 21: 0
depth 22: 0
depth 23: 0
depth 24: 0
depth 25: 0
depth 26: 0
depth 27: 0
depth 28: 0
depth 29: 0
-----------------------------
-----------------------------
		Lost at Page
-----------------------------
depth 0: 0
depth 1: 23555
depth 2: 23655
depth 3: 34158
depth 4: 43256
depth 5: 51094
depth 6: 45943
depth 7: 34626
depth 8: 24341
depth 9: 13998
depth 10: 3891
depth 11: 531
depth 12: 51
depth 13: 7
depth 14: 0
depth 15: 0
depth 16: 0
depth 17: 0
depth 18: 0
depth 19: 0
depth 20: 0
depth 21: 0
depth 22: 0
depth 23: 0
depth 24: 0
depth 25: 0
depth 26: 0
depth 27: 0
depth 28: 0
depth 29: 0
-----------------------------
-----------------------------
	Lost due to PQ Size
-----------------------------
29612
-----------------------------
ST read accesses: 574995
ST write accesses: 9111
PT read accesses: 20736419
PT write accesses: 861273
FILTER read accesses: 6560904
FILTER write accesses: 2960179
GHR read accesses: 1383316
GHR write accesses: 227954
GHR counter read accesses: 17669712
GHR counter write accesses: 1178575
ST tag read accesses: 229478435
ST tag write accesses: 2916828

DRAM Statistics
 CHANNEL 0
 RQ ROW_BUFFER_HIT:     251519  ROW_BUFFER_MISS:    2090576
 DBUS_CONGESTED:    3894816
 WQ ROW_BUFFER_HIT:     174257  ROW_BUFFER_MISS:    1580625  FULL:          0

 AVG_CONGESTED_CYCLE: 54
 All warmup complete: 2
Channel 0 Bank busy for read cycles: 0
Channel 0 Bank busy for write cycles: 0
Channel 0
Rank 0
0banks busy for read cycles: 11520
0banks busy for write cycles: 0
1banks busy for read cycles: 1113713
1banks busy for write cycles: 199093
2banks busy for read cycles: 1632116
2banks busy for write cycles: 199093
3banks busy for read cycles: 2529357
3banks busy for write cycles: 199093
4banks busy for read cycles: 3987482
4banks busy for write cycles: 199093
5banks busy for read cycles: 6773796
5banks busy for write cycles: 199093
6banks busy for read cycles: 16144078
6banks busy for write cycles: 199312
7banks busy for read cycles: 40375821
7banks busy for write cycles: 1966085
8banks busy for read cycles: 81362651
8banks busy for write cycles: 112629654

CPU 0 Branch Prediction Accuracy: 95.042% MPKI: 0.87828 Average ROB Occupancy at Mispredict: 204.912
Branch types
NOT_BRANCH: 49114100 98.2282%
BRANCH_DIRECT_JUMP: 141109 0.282218%
BRANCH_INDIRECT: 0 0%
BRANCH_CONDITIONAL: 744613 1.48923%
BRANCH_DIRECT_CALL: 0 0%
BRANCH_INDIRECT_CALL: 0 0%
BRANCH_RETURN: 0 0%
BRANCH_OTHER: 0 0%

@sumon_overall_L1D         0         0         0         0         0         0
@Sumon_Early_by_class_L1D         0         0         0         0
@Sumon_Late_by_class_L1D         0         0         0         0

@Sumon_Early_by_cycle_L1D         0         0         0         0         0         0         0         0         0         0         0         0
@Sumon_Late_by_cycle_L1D         0         0         0         0         0         0         0         0         0         0         0         0
@Sumon_Early_stream_L1D         0         0         0         0         0         0         0         0         0         0         0         0
@Sumon_Early_CS_L1D         0         0         0         0         0         0         0         0         0         0         0         0
@Sumon_Early_CPLX_L1D         0         0         0         0         0         0         0         0         0         0         0         0
@Sumon_Late_stream_L1D         0         0         0         0         0         0         0         0         0         0         0         0
@Sumon_Late_CS_L1D         0         0         0         0         0         0         0         0         0         0         0         0
@Sumon_Late_CPLX_L1D         0         0         0         0         0         0         0         0         0         0         0         0
@sumon_overall_L2C    123863    129091         2    123866   3603378   3603378
@Sumon_Early_by_class_L2C         0         0         0         0
@Sumon_Late_by_class_L2C         0         0         0         0

@Sumon_Early_by_cycle_L2C     52667      7789     13479      4814      6516     34670      3925         2         0         0         0         1
@Sumon_Late_by_cycle_L2C     71687      6862      7934      2166      4369     27658      8293       122         0         0         0         0
@Sumon_Early_stream_L2C         0         0         0         0         0         0         0         0         0         0         0         0
@Sumon_Early_CS_L2C         0         0         0         0         0         0         0         0         0         0         0         0
@Sumon_Early_CPLX_L2C         0         0         0         0         0         0         0         0         0         0         0         0
@Sumon_Late_stream_L2C         0         0         0         0         0         0         0         0         0         0         0         0
@Sumon_Late_CS_L2C         0         0         0         0         0         0         0         0         0         0         0         0
@Sumon_Late_CPLX_L2C         0         0         0         0         0         0         0         0         0         0         0         0
DRAM PAGES: 1048576
Allocated PAGES: 15372
