Initialize SIGNATURE TABLE
ST_SET: 1
ST_WAY: 256
ST_TAG_BIT: 16
ST_TAG_MASK: ffff

Initialize PATTERN TABLE
PT_SET: 512
PT_WAY: 4
SIG_DELTA_BIT: 7
C_SIG_BIT: 4
C_DELTA_BIT: 4

Initialize PREFETCH FILTER
FILTER_SET: 1024

*** ChampSim Multicore Out-of-Order Simulator ***

Warmup Instructions: 10000000
Simulation Instructions: 50000000
Number of CPUs: 1
LLC sets: 2048
LLC ways: 16
Off-chip DRAM Size: 4096 MB Channels: 1 Width: 64-bit Data Rate: 533 MT/s
CPU 0 runs traces/SPEC2017/621.wrf_s-6673B.champsimtrace.xz
.xz
CPU 0 Bimodal branch predictor
BTB has LRU replacement policy
ITLB has LRU replacement policy
DTLB has LRU replacement policy
STLB has LRU replacement policy
L1I has LRU replacement policy
L1D has LRU replacement policy
ST_WAYS: 256
PT_SETS: 512
L2C has LRU replacement policy
LLC has LRU replacement policy
Heartbeat CPU 0 instructions: 10000002 cycles: 3561874 heartbeat IPC: 2.80751 cumulative IPC: 2.80751 (Simulation time: 0 hr 19 min 58 sec) 

Warmup complete CPU 0 instructions: 10000002 cycles: 3561874 (Simulation time: 0 hr 19 min 58 sec) 

Heartbeat CPU 0 instructions: 20000003 cycles: 17612321 heartbeat IPC: 0.711721 cumulative IPC: 0.711721 (Simulation time: 0 hr 39 min 55 sec) 
Heartbeat CPU 0 instructions: 30000000 cycles: 28066708 heartbeat IPC: 0.956536 cumulative IPC: 0.816165 (Simulation time: 1 hr 0 min 11 sec) 
Heartbeat CPU 0 instructions: 40000003 cycles: 60317936 heartbeat IPC: 0.310066 cumulative IPC: 0.528578 (Simulation time: 1 hr 32 min 41 sec) 
Heartbeat CPU 0 instructions: 50000000 cycles: 79721400 heartbeat IPC: 0.515372 cumulative IPC: 0.525213 (Simulation time: 5 hr 10 min 37 sec) 
Heartbeat CPU 0 instructions: 60000001 cycles: 97855888 heartbeat IPC: 0.551436 cumulative IPC: 0.530256 (Simulation time: 5 hr 58 min 0 sec) 
Finished CPU 0 instructions: 50000003 cycles: 94294015 cumulative IPC: 0.530256 (Simulation time: 5 hr 58 min 0 sec) 

ChampSim completed all CPUs

Region of Interest Statistics

CPU 0 cumulative IPC: 0.530256 instructions: 50000003 cycles: 94294015
ITLB TOTAL     ACCESS:    7318816  HIT:    7318746  MISS:         70  HIT %:     99.999  MISS %: 0.000956439   MPKI: 0.0014
ITLB LOAD TRANSLATION ACCESS:    7318816  HIT:    7318746  MISS:         70  HIT %:     99.999  MISS %: 0.000956439   MPKI: 0.0014
ITLB PREFETCH  REQUESTED:          0  ISSUED:          0  USEFUL:          0  USELESS:          0
ITLB USEFUL LOAD PREFETCHES:          0 PREFETCH ISSUED TO LOWER LEVEL:          0  ACCURACY: -nan
ITLB TIMELY PREFETCHES:          0 LATE PREFETCHES: 0 DROPPED PREFETCHES: 0
ITLB PREFETCHES SAME FILL-ORIGIN LEVEL: 0 DIFFERENT FILL-ORIGIN LEVEL: 0
ITLB AVERAGE MISS LATENCY: 269.071 cycles
ITLB RQ	ACCESS:    8923396	FORWARD:          0	MERGED:    1604565	TO_CACHE:    7318831

DTLB TOTAL     ACCESS:   11460057  HIT:   11397313  MISS:      62744  HIT %:    99.4525  MISS %:   0.547502   MPKI: 1.25488
DTLB LOAD TRANSLATION ACCESS:   11460057  HIT:   11397313  MISS:      62744  HIT %:    99.4525  MISS %:   0.547502   MPKI: 1.25488
DTLB PREFETCH  REQUESTED:          0  ISSUED:          0  USEFUL:          0  USELESS:          0
DTLB USEFUL LOAD PREFETCHES:          0 PREFETCH ISSUED TO LOWER LEVEL:          0  ACCURACY: -nan
DTLB TIMELY PREFETCHES:          0 LATE PREFETCHES: 0 DROPPED PREFETCHES: 0
DTLB PREFETCHES SAME FILL-ORIGIN LEVEL: 0 DIFFERENT FILL-ORIGIN LEVEL: 0
DTLB AVERAGE MISS LATENCY: 50.2798 cycles
DTLB RQ	ACCESS:   12819033	FORWARD:          0	MERGED:    1343921	TO_CACHE:   11475112

STLB TOTAL     ACCESS:      62814  HIT:      51963  MISS:      10851  HIT %:    82.7252  MISS %:    17.2748   MPKI: 0.21702
STLB LOAD TRANSLATION ACCESS:      62814  HIT:      51963  MISS:      10851  HIT %:    82.7252  MISS %:    17.2748   MPKI: 0.21702
STLB PREFETCH  REQUESTED:          0  ISSUED:          0  USEFUL:          0  USELESS:          0
STLB USEFUL LOAD PREFETCHES:          0 PREFETCH ISSUED TO LOWER LEVEL:          0  ACCURACY: -nan
STLB TIMELY PREFETCHES:          0 LATE PREFETCHES: 0 DROPPED PREFETCHES: 0
STLB PREFETCHES SAME FILL-ORIGIN LEVEL: 0 DIFFERENT FILL-ORIGIN LEVEL: 0
STLB AVERAGE MISS LATENCY: 239.677 cycles
STLB RQ	ACCESS:      62814	FORWARD:          0	MERGED:          0	TO_CACHE:      62814

STLB Hit, L1D data hit: 0
STLB Hit, L2C data hit: 0
STLB Hit, LLC data hit: 0
STLB Hit, LLC data miss: 0
STLB STLB hints to L2: 0
L1D TOTAL     ACCESS:   11814927  HIT:   10528157  MISS:    1286770  HIT %:    89.1089  MISS %:    10.8911   MPKI: 25.7354
L1D LOAD      ACCESS:    9576501  HIT:    8495937  MISS:    1080564  HIT %:    88.7165  MISS %:    11.2835   MPKI: 21.6113
L1D RFO       ACCESS:    2238426  HIT:    2032220  MISS:     206206  HIT %:    90.7879  MISS %:     9.2121   MPKI: 4.12412
L1D PREFETCH  REQUESTED:          0  ISSUED:          0  USEFUL:          0  USELESS:          0
L1D USEFUL LOAD PREFETCHES:          0 PREFETCH ISSUED TO LOWER LEVEL:          0  ACCURACY: -nan
L1D TIMELY PREFETCHES:          0 LATE PREFETCHES: 0 DROPPED PREFETCHES: 0
L1D PREFETCHES SAME FILL-ORIGIN LEVEL: 0 DIFFERENT FILL-ORIGIN LEVEL: 0
L1D AVERAGE MISS LATENCY: 257.197 cycles
L1D RQ	ACCESS:   14361747	FORWARD:          0	MERGED:    4409089	TO_CACHE:    9947627
L1D WQ	ACCESS:    2871685	FORWARD:       5031	MERGED:        279	TO_CACHE:    2871406

L1D UNIQUE REGIONS ACCESSED: 0
L1D REGIONS CONFLICTS: 0
L1D Cross Page Prefetch Requests: 0
L1D Same Page Prefetch Requests: 0
L1D ROI Sum of L1D PQ occupancy: 0
L1D PREFETCHES PUSHED FROM L2C: 0
L1I TOTAL     ACCESS:    8922169  HIT:    8920118  MISS:       2051  HIT %:     99.977  MISS %:  0.0229877   MPKI: 0.04102
L1I LOAD      ACCESS:    8922169  HIT:    8920118  MISS:       2051  HIT %:     99.977  MISS %:  0.0229877   MPKI: 0.04102
L1I PREFETCH  REQUESTED:          0  ISSUED:          0  USEFUL:          0  USELESS:          0
L1I USEFUL LOAD PREFETCHES:          0 PREFETCH ISSUED TO LOWER LEVEL:          0  ACCURACY: -nan
L1I TIMELY PREFETCHES:          0 LATE PREFETCHES: 0 DROPPED PREFETCHES: 0
L1I PREFETCHES SAME FILL-ORIGIN LEVEL: 0 DIFFERENT FILL-ORIGIN LEVEL: 0
L1I AVERAGE MISS LATENCY: 294.382 cycles
L1I RQ	ACCESS:   12781278	FORWARD:          0	MERGED:    3857882	TO_CACHE:    8923396

BTB TOTAL     ACCESS:    2470005  HIT:    2468789  MISS:       1216  HIT %:    99.9508  MISS %:  0.0492307   MPKI: 0.02432
BTB BRANCH_DIRECT_JUMP	ACCESS:        923  HIT:        881  MISS:         42
BTB BRANCH_INDIRECT	ACCESS:          0  HIT:          0  MISS:          0
BTB BRANCH_CONDITIONAL	ACCESS:    2461259  HIT:    2460628  MISS:        631
BTB BRANCH_DIRECT_CALL	ACCESS:       3911  HIT:       3644  MISS:        267
BTB BRANCH_INDIRECT_CALL	ACCESS:          0  HIT:          0  MISS:          0
BTB BRANCH_RETURN	ACCESS:       3912  HIT:       3636  MISS:        276
BTB BRANCH_OTHER ACCESS:          0  HIT:          0  MISS:          0

L2C TOTAL     ACCESS:    2947350  HIT:    1934007  MISS:    1013343  HIT %:    65.6185  MISS %:    34.3815   MPKI: 20.2669
L2C LOAD      ACCESS:    1082606  HIT:     648991  MISS:     433615  HIT %:    59.9471  MISS %:    40.0529   MPKI: 8.6723
L2C DATA LOAD MPKI: 8.63128
L2C INSTRUCTION LOAD MPKI: 0.04102
L2C RFO       ACCESS:     206202  HIT:      46262  MISS:     159940  HIT %:    22.4353  MISS %:    77.5647   MPKI: 3.1988
L2C PREFETCH  ACCESS:    1191270  HIT:     773380  MISS:     417890  HIT %:    64.9206  MISS %:    35.0794   MPKI: 8.3578
L2C DATA PREFETCH MPKI: 8.3578
L2C INSTRUCTION PREFETCH MPKI: 0
L2C WRITEBACK ACCESS:     456367  HIT:     456284  MISS:         83  HIT %:    99.9818  MISS %:  0.0181871   MPKI: 0.00166
L2C LOAD TRANSLATION ACCESS:      10905  HIT:       9090  MISS:       1815  HIT %:    83.3563  MISS %:    16.6437   MPKI: 0.0363
L2C PREFETCH  REQUESTED:    6075954  ISSUED:    5411750  USEFUL:     414174  USELESS:       3717
L2C USEFUL LOAD PREFETCHES:     414174 PREFETCH ISSUED TO LOWER LEVEL:    4442389  ACCURACY: 9.32323
L2C TIMELY PREFETCHES:     414174 LATE PREFETCHES: 77013 DROPPED PREFETCHES: 0
L2C PREFETCHES SAME FILL-ORIGIN LEVEL: 496954 DIFFERENT FILL-ORIGIN LEVEL: 3945435
L2C AVERAGE MISS LATENCY: 343.68 cycles
L2C RQ	ACCESS:    1299726	FORWARD:          0	MERGED:          0	TO_CACHE:    1299713
L2C WQ	ACCESS:     456367	FORWARD:         39	MERGED:          0	TO_CACHE:     456367
L2C PQ	ACCESS:    5411750	FORWARD:          0	MERGED:     160643	TO_CACHE:    5251081

L2C Instructions Evicting Data 2048
L2C Translations Evicting Data 1805
L2C Data Evicting Data 1005488
L2C Instructions Evicting Instructions 2
L2C Translations Evicting Instructions 6
L2C Data Evicting Instructions 2084
L2C Instructions Evicting Translations 1
L2C Translations Evicting Translations 4
L2C Data Evicting Translations 1822
L2C Dense regions hint from L2: 0
PSCL5 TOTAL     ACCESS:      10851  HIT:      10851  MISS:          0  HIT %:        100  MISS %:          0   MPKI: 0
PSCL5 LOAD TRANSLATION ACCESS:      10851  HIT:      10851  MISS:          0  HIT %:        100  MISS %:          0   MPKI: 0
PSCL5 PREFETCH  REQUESTED:          0  ISSUED:          0  USEFUL:          0  USELESS:          0
PSCL5 USEFUL LOAD PREFETCHES:          0 PREFETCH ISSUED TO LOWER LEVEL:          0  ACCURACY: -nan
PSCL5 TIMELY PREFETCHES:          0 LATE PREFETCHES: 0 DROPPED PREFETCHES: 0
PSCL5 PREFETCHES SAME FILL-ORIGIN LEVEL: 0 DIFFERENT FILL-ORIGIN LEVEL: 0

PSCL4 TOTAL     ACCESS:      10851  HIT:      10851  MISS:          0  HIT %:        100  MISS %:          0   MPKI: 0
PSCL4 LOAD TRANSLATION ACCESS:      10851  HIT:      10851  MISS:          0  HIT %:        100  MISS %:          0   MPKI: 0
PSCL4 PREFETCH  REQUESTED:          0  ISSUED:          0  USEFUL:          0  USELESS:          0
PSCL4 USEFUL LOAD PREFETCHES:          0 PREFETCH ISSUED TO LOWER LEVEL:          0  ACCURACY: -nan
PSCL4 TIMELY PREFETCHES:          0 LATE PREFETCHES: 0 DROPPED PREFETCHES: 0
PSCL4 PREFETCHES SAME FILL-ORIGIN LEVEL: 0 DIFFERENT FILL-ORIGIN LEVEL: 0

PSCL3 TOTAL     ACCESS:      10851  HIT:      10851  MISS:          0  HIT %:        100  MISS %:          0   MPKI: 0
PSCL3 LOAD TRANSLATION ACCESS:      10851  HIT:      10851  MISS:          0  HIT %:        100  MISS %:          0   MPKI: 0
PSCL3 PREFETCH  REQUESTED:          0  ISSUED:          0  USEFUL:          0  USELESS:          0
PSCL3 USEFUL LOAD PREFETCHES:          0 PREFETCH ISSUED TO LOWER LEVEL:          0  ACCURACY: -nan
PSCL3 TIMELY PREFETCHES:          0 LATE PREFETCHES: 0 DROPPED PREFETCHES: 0
PSCL3 PREFETCHES SAME FILL-ORIGIN LEVEL: 0 DIFFERENT FILL-ORIGIN LEVEL: 0

PSCL2 TOTAL     ACCESS:      10851  HIT:      10779  MISS:         72  HIT %:    99.3365  MISS %:   0.663533   MPKI: 0.00144
PSCL2 LOAD TRANSLATION ACCESS:      10851  HIT:      10779  MISS:         72  HIT %:    99.3365  MISS %:   0.663533   MPKI: 0.00144
PSCL2 PREFETCH  REQUESTED:          0  ISSUED:          0  USEFUL:          0  USELESS:          0
PSCL2 USEFUL LOAD PREFETCHES:          0 PREFETCH ISSUED TO LOWER LEVEL:          0  ACCURACY: -nan
PSCL2 TIMELY PREFETCHES:          0 LATE PREFETCHES: 0 DROPPED PREFETCHES: 0
PSCL2 PREFETCHES SAME FILL-ORIGIN LEVEL: 0 DIFFERENT FILL-ORIGIN LEVEL: 0

LLC TOTAL     ACCESS:    4023188  HIT:    3028115  MISS:     995073  HIT %:    75.2666  MISS %:    24.7334   MPKI: 19.9015
LLC LOAD      ACCESS:     356603  HIT:     256389  MISS:     100214  HIT %:    71.8976  MISS %:    28.1024   MPKI: 2.00428
LLC RFO       ACCESS:     159939  HIT:       3605  MISS:     156334  HIT %:    2.25398  MISS %:     97.746   MPKI: 3.12668
LLC PREFETCH  ACCESS:    3140257  HIT:    2404033  MISS:     736224  HIT %:    76.5553  MISS %:    23.4447   MPKI: 14.7245
LLC WRITEBACK ACCESS:     364574  HIT:     363995  MISS:        579  HIT %:    99.8412  MISS %:   0.158815   MPKI: 0.01158
LLC LOAD TRANSLATION ACCESS:       1815  HIT:         93  MISS:       1722  HIT %:    5.12397  MISS %:     94.876   MPKI: 0.03444
LLC PREFETCH  REQUESTED:          0  ISSUED:          0  USEFUL:     248287  USELESS:     491321
LLC USEFUL LOAD PREFETCHES:     248287 PREFETCH ISSUED TO LOWER LEVEL:     787303  ACCURACY: 31.5364
LLC TIMELY PREFETCHES:     248287 LATE PREFETCHES: 51073 DROPPED PREFETCHES: 0
LLC PREFETCHES SAME FILL-ORIGIN LEVEL: 771524 DIFFERENT FILL-ORIGIN LEVEL: 0
LLC AVERAGE MISS LATENCY: 962.54 cycles
LLC RQ	ACCESS:     518357	FORWARD:          0	MERGED:          0	TO_CACHE:     518357
LLC WQ	ACCESS:     364574	FORWARD:          0	MERGED:          0	TO_CACHE:     364574
LLC PQ	ACCESS:    4436118	FORWARD:          0	MERGED:      65807	TO_CACHE:    4370311

LLC Dense regions hint to LLC: 0

RAW hits: 69421
Loads Generated: 14431154
Loads sent to L1D: 14361747
Stores Generated: 2871705
Stores sent to L1D: 2871696
Major fault: 0 Minor fault: 6925
Allocated PAGES: 6925
 All Calls: 1166714
 Critical Calls: 1166714
------------------
Depth Distribution
------------------
depth 0: 0
depth 1: 1033473
depth 2: 963008
depth 3: 896922
depth 4: 830899
depth 5: 729114
depth 6: 540620
depth 7: 331661
depth 8: 209776
depth 9: 113596
depth 10: 73855
depth 11: 50334
depth 12: 28706
depth 13: 13243
depth 14: 632
depth 15: 606
depth 16: 0
depth 17: 0
depth 18: 0
depth 19: 0
depth 20: 0
depth 21: 0
depth 22: 0
depth 23: 0
depth 24: 0
depth 25: 0
depth 26: 0
depth 27: 0
depth 28: 0
depth 29: 0
Total: 5816445
-----------------------------
-----------------------------
	Captured at Filter
-----------------------------
depth 0: 0
depth 1: 38454
depth 2: 35836
depth 3: 34487
depth 4: 32523
depth 5: 27096
depth 6: 17583
depth 7: 7413
depth 8: 3608
depth 9: 1034
depth 10: 545
depth 11: 354
depth 12: 200
depth 13: 91
depth 14: 3
depth 15: 4
depth 16: 0
depth 17: 0
depth 18: 0
depth 19: 0
depth 20: 0
depth 21: 0
depth 22: 0
depth 23: 0
depth 24: 0
depth 25: 0
depth 26: 0
depth 27: 0
depth 28: 0
depth 29: 0
-----------------------------
-----------------------------
		Lost at Page
-----------------------------
depth 0: 0
depth 1: 23201
depth 2: 39714
depth 3: 53538
depth 4: 66885
depth 5: 76143
depth 6: 68025
depth 7: 48099
depth 8: 35733
depth 9: 22463
depth 10: 15511
depth 11: 11813
depth 12: 7491
depth 13: 3691
depth 14: 217
depth 15: 237
depth 16: 0
depth 17: 0
depth 18: 0
depth 19: 0
depth 20: 0
depth 21: 0
depth 22: 0
depth 23: 0
depth 24: 0
depth 25: 0
depth 26: 0
depth 27: 0
depth 28: 0
depth 29: 0
-----------------------------
-----------------------------
	Lost due to PQ Size
-----------------------------
757933
-----------------------------
ST read accesses: 1063859
ST write accesses: 16696
PT read accesses: 39017685
PT write accesses: 1589397
FILTER read accesses: 8361552
FILTER write accesses: 2242591
GHR read accesses: 2484019
GHR write accesses: 439939
GHR counter read accesses: 33238062
GHR counter write accesses: 2362496
ST tag read accesses: 423874594
ST tag write accesses: 11526857

DRAM Statistics
 CHANNEL 0
 RQ ROW_BUFFER_HIT:     265554  ROW_BUFFER_MISS:     728736
 DBUS_CONGESTED:    1230548
 WQ ROW_BUFFER_HIT:      67194  ROW_BUFFER_MISS:     283865  FULL:          0

 AVG_CONGESTED_CYCLE: 53
 All warmup complete: 2
Channel 0 Bank busy for read cycles: 0
Channel 0 Bank busy for write cycles: 0
Channel 0
Rank 0
0banks busy for read cycles: 5681062
0banks busy for write cycles: 4487
1banks busy for read cycles: 5801250
1banks busy for write cycles: 706302
2banks busy for read cycles: 5801451
2banks busy for write cycles: 403060
3banks busy for read cycles: 4891678
3banks busy for write cycles: 279189
4banks busy for read cycles: 5222448
4banks busy for write cycles: 206161
5banks busy for read cycles: 5827236
5banks busy for write cycles: 196743
6banks busy for read cycles: 6939141
6banks busy for write cycles: 238789
7banks busy for read cycles: 8095895
7banks busy for write cycles: 778773
8banks busy for read cycles: 21185790
8banks busy for write cycles: 22034561

CPU 0 Branch Prediction Accuracy: 96.5596% MPKI: 1.81656 Average ROB Occupancy at Mispredict: 116.513
Branch types
NOT_BRANCH: 47359907 94.7198%
BRANCH_DIRECT_JUMP: 923 0.001846%
BRANCH_INDIRECT: 0 0%
BRANCH_CONDITIONAL: 2631332 5.26266%
BRANCH_DIRECT_CALL: 3911 0.007822%
BRANCH_INDIRECT_CALL: 0 0%
BRANCH_RETURN: 3912 0.007824%
BRANCH_OTHER: 0 0%

@sumon_overall_L1D         0         0         0         0         0         0
@Sumon_Early_by_class_L1D         0         0         0         0
@Sumon_Late_by_class_L1D         0         0         0         0

@Sumon_Early_by_cycle_L1D         0         0         0         0         0         0         0         0         0         0         0         0
@Sumon_Late_by_cycle_L1D         0         0         0         0         0         0         0         0         0         0         0         0
@Sumon_Early_stream_L1D         0         0         0         0         0         0         0         0         0         0         0         0
@Sumon_Early_CS_L1D         0         0         0         0         0         0         0         0         0         0         0         0
@Sumon_Early_CPLX_L1D         0         0         0         0         0         0         0         0         0         0         0         0
@Sumon_Late_stream_L1D         0         0         0         0         0         0         0         0         0         0         0         0
@Sumon_Late_CS_L1D         0         0         0         0         0         0         0         0         0         0         0         0
@Sumon_Late_CPLX_L1D         0         0         0         0         0         0         0         0         0         0         0         0
@sumon_overall_L2C    414174     77013      3717    417890   5411750   6075954
@Sumon_Early_by_class_L2C         0         0         0         0
@Sumon_Late_by_class_L2C         0         0         0         0

@Sumon_Early_by_cycle_L2C    108860    154788     96426     13935      9191     22527      4522      2054       145       832       547       347
@Sumon_Late_by_cycle_L2C     34885     10988      8033      5345      4615     10724      2402        21         0         0         0         0
@Sumon_Early_stream_L2C         0         0         0         0         0         0         0         0         0         0         0         0
@Sumon_Early_CS_L2C         0         0         0         0         0         0         0         0         0         0         0         0
@Sumon_Early_CPLX_L2C         0         0         0         0         0         0         0         0         0         0         0         0
@Sumon_Late_stream_L2C         0         0         0         0         0         0         0         0         0         0         0         0
@Sumon_Late_CS_L2C         0         0         0         0         0         0         0         0         0         0         0         0
@Sumon_Late_CPLX_L2C         0         0         0         0         0         0         0         0         0         0         0         0
DRAM PAGES: 1048576
Allocated PAGES: 6925
