Initialize SIGNATURE TABLE
ST_SET: 1
ST_WAY: 256
ST_TAG_BIT: 16
ST_TAG_MASK: ffff

Initialize PATTERN TABLE
PT_SET: 512
PT_WAY: 4
SIG_DELTA_BIT: 7
C_SIG_BIT: 4
C_DELTA_BIT: 4

Initialize PREFETCH FILTER
FILTER_SET: 1024

*** ChampSim Multicore Out-of-Order Simulator ***

Warmup Instructions: 10000000
Simulation Instructions: 50000000
Number of CPUs: 1
LLC sets: 2048
LLC ways: 16
Off-chip DRAM Size: 4096 MB Channels: 1 Width: 64-bit Data Rate: 533 MT/s
CPU 0 runs traces/SPEC2017/641.leela_s-1083B.champsimtrace.xz
.xz
CPU 0 Bimodal branch predictor
BTB has LRU replacement policy
ITLB has LRU replacement policy
DTLB has LRU replacement policy
STLB has LRU replacement policy
L1I has LRU replacement policy
L1D has LRU replacement policy
ST_WAYS: 256
PT_SETS: 512
L2C has LRU replacement policy
LLC has LRU replacement policy
Heartbeat CPU 0 instructions: 10000000 cycles: 3152852 heartbeat IPC: 3.17173 cumulative IPC: 3.17173 (Simulation time: 0 hr 16 min 10 sec) 

Warmup complete CPU 0 instructions: 10000001 cycles: 3152858 (Simulation time: 0 hr 16 min 11 sec) 

Heartbeat CPU 0 instructions: 20000002 cycles: 33144126 heartbeat IPC: 0.33343 cumulative IPC: 0.33343 (Simulation time: 0 hr 34 min 50 sec) 
Heartbeat CPU 0 instructions: 30000000 cycles: 63572447 heartbeat IPC: 0.328641 cumulative IPC: 0.331018 (Simulation time: 0 hr 53 min 42 sec) 
Heartbeat CPU 0 instructions: 40000003 cycles: 93655470 heartbeat IPC: 0.332413 cumulative IPC: 0.331482 (Simulation time: 1 hr 12 min 31 sec) 
Heartbeat CPU 0 instructions: 50000002 cycles: 123644672 heartbeat IPC: 0.333453 cumulative IPC: 0.331973 (Simulation time: 1 hr 31 min 3 sec) 
Heartbeat CPU 0 instructions: 60000002 cycles: 153534207 heartbeat IPC: 0.334565 cumulative IPC: 0.332488 (Simulation time: 2 hr 58 min 0 sec) 
Finished CPU 0 instructions: 50000001 cycles: 150381349 cumulative IPC: 0.332488 (Simulation time: 2 hr 58 min 0 sec) 

ChampSim completed all CPUs

Region of Interest Statistics

CPU 0 cumulative IPC: 0.332488 instructions: 50000001 cycles: 150381349
ITLB TOTAL     ACCESS:    8696599  HIT:    8696599  MISS:          0  HIT %:        100  MISS %:          0   MPKI: 0
ITLB LOAD TRANSLATION ACCESS:    8696599  HIT:    8696599  MISS:          0  HIT %:        100  MISS %:          0   MPKI: 0
ITLB PREFETCH  REQUESTED:          0  ISSUED:          0  USEFUL:          0  USELESS:          0
ITLB USEFUL LOAD PREFETCHES:          0 PREFETCH ISSUED TO LOWER LEVEL:          0  ACCURACY: -nan
ITLB TIMELY PREFETCHES:          0 LATE PREFETCHES: 0 DROPPED PREFETCHES: 0
ITLB PREFETCHES SAME FILL-ORIGIN LEVEL: 0 DIFFERENT FILL-ORIGIN LEVEL: 0
ITLB AVERAGE MISS LATENCY: -nan cycles
ITLB RQ	ACCESS:    9946005	FORWARD:          0	MERGED:    1249406	TO_CACHE:    8696599

DTLB TOTAL     ACCESS:   14309463  HIT:   14288248  MISS:      21215  HIT %:    99.8517  MISS %:   0.148259   MPKI: 0.4243
DTLB LOAD TRANSLATION ACCESS:   14309463  HIT:   14288248  MISS:      21215  HIT %:    99.8517  MISS %:   0.148259   MPKI: 0.4243
DTLB PREFETCH  REQUESTED:          0  ISSUED:          0  USEFUL:          0  USELESS:          0
DTLB USEFUL LOAD PREFETCHES:          0 PREFETCH ISSUED TO LOWER LEVEL:          0  ACCURACY: -nan
DTLB TIMELY PREFETCHES:          0 LATE PREFETCHES: 0 DROPPED PREFETCHES: 0
DTLB PREFETCHES SAME FILL-ORIGIN LEVEL: 0 DIFFERENT FILL-ORIGIN LEVEL: 0
DTLB AVERAGE MISS LATENCY: 10.6288 cycles
DTLB RQ	ACCESS:   16204178	FORWARD:          0	MERGED:    1893937	TO_CACHE:   14310241

STLB TOTAL     ACCESS:      21215  HIT:      21022  MISS:        193  HIT %:    99.0903  MISS %:   0.909734   MPKI: 0.00386
STLB LOAD TRANSLATION ACCESS:      21215  HIT:      21022  MISS:        193  HIT %:    99.0903  MISS %:   0.909734   MPKI: 0.00386
STLB PREFETCH  REQUESTED:          0  ISSUED:          0  USEFUL:          0  USELESS:          0
STLB USEFUL LOAD PREFETCHES:          0 PREFETCH ISSUED TO LOWER LEVEL:          0  ACCURACY: -nan
STLB TIMELY PREFETCHES:          0 LATE PREFETCHES: 0 DROPPED PREFETCHES: 0
STLB PREFETCHES SAME FILL-ORIGIN LEVEL: 0 DIFFERENT FILL-ORIGIN LEVEL: 0
STLB AVERAGE MISS LATENCY: 178.938 cycles
STLB RQ	ACCESS:      21215	FORWARD:          0	MERGED:          0	TO_CACHE:      21215

STLB Hit, L1D data hit: 0
STLB Hit, L2C data hit: 0
STLB Hit, LLC data hit: 0
STLB Hit, LLC data miss: 0
STLB STLB hints to L2: 0
L1D TOTAL     ACCESS:   16180515  HIT:   16061618  MISS:     118897  HIT %:    99.2652  MISS %:   0.734816   MPKI: 2.37794
L1D LOAD      ACCESS:   10465869  HIT:   10362084  MISS:     103785  HIT %:    99.0083  MISS %:   0.991652   MPKI: 2.0757
L1D RFO       ACCESS:    5714646  HIT:    5699534  MISS:      15112  HIT %:    99.7356  MISS %:   0.264443   MPKI: 0.30224
L1D PREFETCH  REQUESTED:          0  ISSUED:          0  USEFUL:          0  USELESS:          0
L1D USEFUL LOAD PREFETCHES:          0 PREFETCH ISSUED TO LOWER LEVEL:          0  ACCURACY: -nan
L1D TIMELY PREFETCHES:          0 LATE PREFETCHES: 0 DROPPED PREFETCHES: 0
L1D PREFETCHES SAME FILL-ORIGIN LEVEL: 0 DIFFERENT FILL-ORIGIN LEVEL: 0
L1D AVERAGE MISS LATENCY: 17.7393 cycles
L1D RQ	ACCESS:   13162526	FORWARD:          0	MERGED:    2138763	TO_CACHE:   10467689
L1D WQ	ACCESS:    5839795	FORWARD:     556074	MERGED:     103306	TO_CACHE:    5736489

L1D UNIQUE REGIONS ACCESSED: 0
L1D REGIONS CONFLICTS: 0
L1D Cross Page Prefetch Requests: 0
L1D Same Page Prefetch Requests: 0
L1D ROI Sum of L1D PQ occupancy: 0
L1D PREFETCHES PUSHED FROM L2C: 0
L1I TOTAL     ACCESS:    9944922  HIT:    9941620  MISS:       3302  HIT %:    99.9668  MISS %:  0.0332029   MPKI: 0.06604
L1I LOAD      ACCESS:    9944922  HIT:    9941620  MISS:       3302  HIT %:    99.9668  MISS %:  0.0332029   MPKI: 0.06604
L1I PREFETCH  REQUESTED:          0  ISSUED:          0  USEFUL:          0  USELESS:          0
L1I USEFUL LOAD PREFETCHES:          0 PREFETCH ISSUED TO LOWER LEVEL:          0  ACCURACY: -nan
L1I TIMELY PREFETCHES:          0 LATE PREFETCHES: 0 DROPPED PREFETCHES: 0
L1I PREFETCHES SAME FILL-ORIGIN LEVEL: 0 DIFFERENT FILL-ORIGIN LEVEL: 0
L1I AVERAGE MISS LATENCY: 16.9007 cycles
L1I RQ	ACCESS:   13912894	FORWARD:          0	MERGED:    3966889	TO_CACHE:    9946005

BTB TOTAL     ACCESS:    7975109  HIT:    7388937  MISS:     586172  HIT %:      92.65  MISS %:    7.35002   MPKI: 11.7234
BTB BRANCH_DIRECT_JUMP	ACCESS:     266110  HIT:     266027  MISS:         83
BTB BRANCH_INDIRECT	ACCESS:        390  HIT:        347  MISS:         43
BTB BRANCH_CONDITIONAL	ACCESS:    4732433  HIT:    4731753  MISS:        680
BTB BRANCH_DIRECT_CALL	ACCESS:    1488087  HIT:    1487821  MISS:        266
BTB BRANCH_INDIRECT_CALL	ACCESS:          0  HIT:          0  MISS:          0
BTB BRANCH_RETURN	ACCESS:    1488089  HIT:     902989  MISS:     585100
BTB BRANCH_OTHER ACCESS:          0  HIT:          0  MISS:          0

L2C TOTAL     ACCESS:     207974  HIT:     203858  MISS:       4116  HIT %:    98.0209  MISS %:    1.97909   MPKI: 0.08232
L2C LOAD      ACCESS:     107085  HIT:     104254  MISS:       2831  HIT %:    97.3563  MISS %:    2.64369   MPKI: 0.05662
L2C DATA LOAD MPKI: 0.05568
L2C INSTRUCTION LOAD MPKI: 0.00094
L2C RFO       ACCESS:      15110  HIT:      14747  MISS:        363  HIT %:    97.5976  MISS %:    2.40238   MPKI: 0.00726
L2C PREFETCH  ACCESS:      58292  HIT:      57434  MISS:        858  HIT %:    98.5281  MISS %:     1.4719   MPKI: 0.01716
L2C DATA PREFETCH MPKI: 0.01716
L2C INSTRUCTION PREFETCH MPKI: 0
L2C WRITEBACK ACCESS:      27294  HIT:      27293  MISS:          1  HIT %:    99.9963  MISS %: 0.00366381   MPKI: 2e-05
L2C LOAD TRANSLATION ACCESS:        193  HIT:        130  MISS:         63  HIT %:    67.3575  MISS %:    32.6425   MPKI: 0.00126
L2C PREFETCH  REQUESTED:      88584  ISSUED:      88584  USEFUL:        796  USELESS:         13
L2C USEFUL LOAD PREFETCHES:        796 PREFETCH ISSUED TO LOWER LEVEL:      27115  ACCURACY: 2.93564
L2C TIMELY PREFETCHES:        796 LATE PREFETCHES: 595 DROPPED PREFETCHES: 0
L2C PREFETCHES SAME FILL-ORIGIN LEVEL: 1453 DIFFERENT FILL-ORIGIN LEVEL: 25662
L2C AVERAGE MISS LATENCY: 93.8506 cycles
L2C RQ	ACCESS:     122392	FORWARD:          0	MERGED:          0	TO_CACHE:     122388
L2C WQ	ACCESS:      27294	FORWARD:          4	MERGED:          0	TO_CACHE:      27294
L2C PQ	ACCESS:      88584	FORWARD:          0	MERGED:       3944	TO_CACHE:      84640

L2C Instructions Evicting Data 0
L2C Translations Evicting Data 9
L2C Data Evicting Data 662
L2C Instructions Evicting Instructions 1
L2C Translations Evicting Instructions 4
L2C Data Evicting Instructions 90
L2C Instructions Evicting Translations 1
L2C Translations Evicting Translations 0
L2C Data Evicting Translations 30
L2C Dense regions hint from L2: 0
PSCL5 TOTAL     ACCESS:        193  HIT:        193  MISS:          0  HIT %:        100  MISS %:          0   MPKI: 0
PSCL5 LOAD TRANSLATION ACCESS:        193  HIT:        193  MISS:          0  HIT %:        100  MISS %:          0   MPKI: 0
PSCL5 PREFETCH  REQUESTED:          0  ISSUED:          0  USEFUL:          0  USELESS:          0
PSCL5 USEFUL LOAD PREFETCHES:          0 PREFETCH ISSUED TO LOWER LEVEL:          0  ACCURACY: -nan
PSCL5 TIMELY PREFETCHES:          0 LATE PREFETCHES: 0 DROPPED PREFETCHES: 0
PSCL5 PREFETCHES SAME FILL-ORIGIN LEVEL: 0 DIFFERENT FILL-ORIGIN LEVEL: 0

PSCL4 TOTAL     ACCESS:        193  HIT:        193  MISS:          0  HIT %:        100  MISS %:          0   MPKI: 0
PSCL4 LOAD TRANSLATION ACCESS:        193  HIT:        193  MISS:          0  HIT %:        100  MISS %:          0   MPKI: 0
PSCL4 PREFETCH  REQUESTED:          0  ISSUED:          0  USEFUL:          0  USELESS:          0
PSCL4 USEFUL LOAD PREFETCHES:          0 PREFETCH ISSUED TO LOWER LEVEL:          0  ACCURACY: -nan
PSCL4 TIMELY PREFETCHES:          0 LATE PREFETCHES: 0 DROPPED PREFETCHES: 0
PSCL4 PREFETCHES SAME FILL-ORIGIN LEVEL: 0 DIFFERENT FILL-ORIGIN LEVEL: 0

PSCL3 TOTAL     ACCESS:        193  HIT:        193  MISS:          0  HIT %:        100  MISS %:          0   MPKI: 0
PSCL3 LOAD TRANSLATION ACCESS:        193  HIT:        193  MISS:          0  HIT %:        100  MISS %:          0   MPKI: 0
PSCL3 PREFETCH  REQUESTED:          0  ISSUED:          0  USEFUL:          0  USELESS:          0
PSCL3 USEFUL LOAD PREFETCHES:          0 PREFETCH ISSUED TO LOWER LEVEL:          0  ACCURACY: -nan
PSCL3 TIMELY PREFETCHES:          0 LATE PREFETCHES: 0 DROPPED PREFETCHES: 0
PSCL3 PREFETCHES SAME FILL-ORIGIN LEVEL: 0 DIFFERENT FILL-ORIGIN LEVEL: 0

PSCL2 TOTAL     ACCESS:        193  HIT:        193  MISS:          0  HIT %:        100  MISS %:          0   MPKI: 0
PSCL2 LOAD TRANSLATION ACCESS:        193  HIT:        193  MISS:          0  HIT %:        100  MISS %:          0   MPKI: 0
PSCL2 PREFETCH  REQUESTED:          0  ISSUED:          0  USEFUL:          0  USELESS:          0
PSCL2 USEFUL LOAD PREFETCHES:          0 PREFETCH ISSUED TO LOWER LEVEL:          0  ACCURACY: -nan
PSCL2 TIMELY PREFETCHES:          0 LATE PREFETCHES: 0 DROPPED PREFETCHES: 0
PSCL2 PREFETCHES SAME FILL-ORIGIN LEVEL: 0 DIFFERENT FILL-ORIGIN LEVEL: 0

LLC TOTAL     ACCESS:      21733  HIT:      16065  MISS:       5668  HIT %:    73.9198  MISS %:    26.0802   MPKI: 0.11336
LLC LOAD      ACCESS:       2236  HIT:       1174  MISS:       1062  HIT %:    52.5045  MISS %:    47.4955   MPKI: 0.02124
LLC RFO       ACCESS:        363  HIT:         32  MISS:        331  HIT %:    8.81543  MISS %:    91.1846   MPKI: 0.00662
LLC PREFETCH  ACCESS:      18973  HIT:      14759  MISS:       4214  HIT %:    77.7895  MISS %:    22.2105   MPKI: 0.08428
LLC WRITEBACK ACCESS:         98  HIT:         98  MISS:          0  HIT %:        100  MISS %:          0   MPKI: 0
LLC LOAD TRANSLATION ACCESS:         63  HIT:          2  MISS:         61  HIT %:     3.1746  MISS %:    96.8254   MPKI: 0.00122
LLC PREFETCH  REQUESTED:          0  ISSUED:          0  USEFUL:        984  USELESS:          0
LLC USEFUL LOAD PREFETCHES:        984 PREFETCH ISSUED TO LOWER LEVEL:       4252  ACCURACY: 23.1421
LLC TIMELY PREFETCHES:        984 LATE PREFETCHES: 38 DROPPED PREFETCHES: 0
LLC PREFETCHES SAME FILL-ORIGIN LEVEL: 4187 DIFFERENT FILL-ORIGIN LEVEL: 0
LLC AVERAGE MISS LATENCY: 234.741 cycles
LLC RQ	ACCESS:       2662	FORWARD:          0	MERGED:          0	TO_CACHE:       2662
LLC WQ	ACCESS:         98	FORWARD:          0	MERGED:          0	TO_CACHE:         98
LLC PQ	ACCESS:      27115	FORWARD:          0	MERGED:        216	TO_CACHE:      26899

LLC Dense regions hint to LLC: 0

RAW hits: 382576
Loads Generated: 13545102
Loads sent to L1D: 13162526
Stores Generated: 5839795
Stores sent to L1D: 5839795
Major fault: 0 Minor fault: 541
Allocated PAGES: 541
 All Calls: 130101
 Critical Calls: 130101
------------------
Depth Distribution
------------------
depth 0: 0
depth 1: 53300
depth 2: 14200
depth 3: 9952
depth 4: 8077
depth 5: 6460
depth 6: 5870
depth 7: 5217
depth 8: 3935
depth 9: 2607
depth 10: 531
depth 11: 187
depth 12: 14
depth 13: 0
depth 14: 0
depth 15: 0
depth 16: 0
depth 17: 0
depth 18: 0
depth 19: 0
depth 20: 0
depth 21: 0
depth 22: 0
depth 23: 0
depth 24: 0
depth 25: 0
depth 26: 0
depth 27: 0
depth 28: 0
depth 29: 0
Total: 110350
-----------------------------
-----------------------------
	Captured at Filter
-----------------------------
depth 0: 0
depth 1: 18551
depth 2: 14475
depth 3: 13017
depth 4: 12066
depth 5: 10580
depth 6: 9337
depth 7: 7723
depth 8: 5310
depth 9: 3148
depth 10: 473
depth 11: 144
depth 12: 0
depth 13: 0
depth 14: 0
depth 15: 0
depth 16: 0
depth 17: 0
depth 18: 0
depth 19: 0
depth 20: 0
depth 21: 0
depth 22: 0
depth 23: 0
depth 24: 0
depth 25: 0
depth 26: 0
depth 27: 0
depth 28: 0
depth 29: 0
-----------------------------
-----------------------------
		Lost at Page
-----------------------------
depth 0: 0
depth 1: 2410
depth 2: 982
depth 3: 1356
depth 4: 1702
depth 5: 1860
depth 6: 2008
depth 7: 1990
depth 8: 1621
depth 9: 1155
depth 10: 287
depth 11: 113
depth 12: 1
depth 13: 0
depth 14: 0
depth 15: 0
depth 16: 0
depth 17: 0
depth 18: 0
depth 19: 0
depth 20: 0
depth 21: 0
depth 22: 0
depth 23: 0
depth 24: 0
depth 25: 0
depth 26: 0
depth 27: 0
depth 28: 0
depth 29: 0
-----------------------------
-----------------------------
	Lost due to PQ Size
-----------------------------
49
-----------------------------
ST read accesses: 102901
ST write accesses: 882
PT read accesses: 1752962
PT write accesses: 149371
FILTER read accesses: 269379
FILTER write accesses: 9924
GHR read accesses: 79179
GHR write accesses: 12916
GHR counter read accesses: 1311070
GHR counter write accesses: 109581
ST tag read accesses: 37186231
ST tag write accesses: 2892460

DRAM Statistics
 CHANNEL 0
 RQ ROW_BUFFER_HIT:       2683  ROW_BUFFER_MISS:       2985
 DBUS_CONGESTED:       3000
 WQ ROW_BUFFER_HIT:          0  ROW_BUFFER_MISS:          0  FULL:          0

 AVG_CONGESTED_CYCLE: 52
 All warmup complete: 2
Channel 0 Bank busy for read cycles: 0
Channel 0 Bank busy for write cycles: 0
Channel 0
Rank 0
0banks busy for read cycles: 149879643
0banks busy for write cycles: 0
1banks busy for read cycles: 307107
1banks busy for write cycles: 0
2banks busy for read cycles: 63711
2banks busy for write cycles: 0
3banks busy for read cycles: 27168
3banks busy for write cycles: 0
4banks busy for read cycles: 19207
4banks busy for write cycles: 0
5banks busy for read cycles: 16547
5banks busy for write cycles: 0
6banks busy for read cycles: 16805
6banks busy for write cycles: 0
7banks busy for read cycles: 19786
7banks busy for write cycles: 0
8banks busy for read cycles: 31376
8banks busy for write cycles: 0

CPU 0 Branch Prediction Accuracy: 87.2784% MPKI: 21.4218 Average ROB Occupancy at Mispredict: 13.5256
Branch types
NOT_BRANCH: 41580273 83.1605%
BRANCH_DIRECT_JUMP: 266110 0.53222%
BRANCH_INDIRECT: 390 0.00078%
BRANCH_CONDITIONAL: 5176805 10.3536%
BRANCH_DIRECT_CALL: 1488087 2.97617%
BRANCH_INDIRECT_CALL: 0 0%
BRANCH_RETURN: 1488089 2.97618%
BRANCH_OTHER: 0 0%

@sumon_overall_L1D         0         0         0         0         0         0
@Sumon_Early_by_class_L1D         0         0         0         0
@Sumon_Late_by_class_L1D         0         0         0         0

@Sumon_Early_by_cycle_L1D         0         0         0         0         0         0         0         0         0         0         0         0
@Sumon_Late_by_cycle_L1D         0         0         0         0         0         0         0         0         0         0         0         0
@Sumon_Early_stream_L1D         0         0         0         0         0         0         0         0         0         0         0         0
@Sumon_Early_CS_L1D         0         0         0         0         0         0         0         0         0         0         0         0
@Sumon_Early_CPLX_L1D         0         0         0         0         0         0         0         0         0         0         0         0
@Sumon_Late_stream_L1D         0         0         0         0         0         0         0         0         0         0         0         0
@Sumon_Late_CS_L1D         0         0         0         0         0         0         0         0         0         0         0         0
@Sumon_Late_CPLX_L1D         0         0         0         0         0         0         0         0         0         0         0         0
@sumon_overall_L2C       796       595        13       858     88584     88584
@Sumon_Early_by_class_L2C         0         0         0         0
@Sumon_Late_by_class_L2C         0         0         0         0

@Sumon_Early_by_cycle_L2C       767         8         9         3         0         1         0         0         0         0         0         8
@Sumon_Late_by_cycle_L2C       583         6         6         0         0         0         0         0         0         0         0         0
@Sumon_Early_stream_L2C         0         0         0         0         0         0         0         0         0         0         0         0
@Sumon_Early_CS_L2C         0         0         0         0         0         0         0         0         0         0         0         0
@Sumon_Early_CPLX_L2C         0         0         0         0         0         0         0         0         0         0         0         0
@Sumon_Late_stream_L2C         0         0         0         0         0         0         0         0         0         0         0         0
@Sumon_Late_CS_L2C         0         0         0         0         0         0         0         0         0         0         0         0
@Sumon_Late_CPLX_L2C         0         0         0         0         0         0         0         0         0         0         0         0
DRAM PAGES: 1048576
Allocated PAGES: 541
