Initialize SIGNATURE TABLE
ST_SET: 1
ST_WAY: 256
ST_TAG_BIT: 16
ST_TAG_MASK: ffff

Initialize PATTERN TABLE
PT_SET: 512
PT_WAY: 4
SIG_DELTA_BIT: 7
C_SIG_BIT: 4
C_DELTA_BIT: 4

Initialize PREFETCH FILTER
FILTER_SET: 1024

*** ChampSim Multicore Out-of-Order Simulator ***

Warmup Instructions: 10000000
Simulation Instructions: 50000000
Number of CPUs: 1
LLC sets: 2048
LLC ways: 16
Off-chip DRAM Size: 4096 MB Channels: 1 Width: 64-bit Data Rate: 533 MT/s
CPU 0 runs traces/SPEC2017/654.roms_s-293B.champsimtrace.xz
.xz
CPU 0 Bimodal branch predictor
BTB has LRU replacement policy
ITLB has LRU replacement policy
DTLB has LRU replacement policy
STLB has LRU replacement policy
L1I has LRU replacement policy
L1D has LRU replacement policy
ST_WAYS: 256
PT_SETS: 512
L2C has LRU replacement policy
LLC has LRU replacement policy
Heartbeat CPU 0 instructions: 10000001 cycles: 3119654 heartbeat IPC: 3.20548 cumulative IPC: 3.20548 (Simulation time: 0 hr 16 min 54 sec) 

Warmup complete CPU 0 instructions: 10000001 cycles: 3119654 (Simulation time: 0 hr 16 min 54 sec) 

Heartbeat CPU 0 instructions: 20000003 cycles: 14258981 heartbeat IPC: 0.89772 cumulative IPC: 0.89772 (Simulation time: 0 hr 38 min 20 sec) 
Heartbeat CPU 0 instructions: 30000000 cycles: 24447535 heartbeat IPC: 0.981493 cumulative IPC: 0.93774 (Simulation time: 0 hr 58 min 35 sec) 
Heartbeat CPU 0 instructions: 40000003 cycles: 35607197 heartbeat IPC: 0.896085 cumulative IPC: 0.923431 (Simulation time: 1 hr 19 min 54 sec) 
Heartbeat CPU 0 instructions: 50000000 cycles: 45786515 heartbeat IPC: 0.982384 cumulative IPC: 0.937496 (Simulation time: 1 hr 39 min 53 sec) 
Killed
*** Reached end of trace for Core: 0 Repeating trace: traces/SPEC2017/654.roms_s-293B.champsimtrace.xz
Heartbeat CPU 0 instructions: 60000000 cycles: 56871548 heartbeat IPC: 0.902117 cumulative IPC: 0.9302 (Simulation time: 5 hr 46 min 9 sec) 
Finished CPU 0 instructions: 50000003 cycles: 53751895 cumulative IPC: 0.9302 (Simulation time: 5 hr 46 min 11 sec) 

ChampSim completed all CPUs

Region of Interest Statistics

CPU 0 cumulative IPC: 0.9302 instructions: 50000003 cycles: 53751895
ITLB TOTAL     ACCESS:    7051404  HIT:    7051404  MISS:          0  HIT %:        100  MISS %:          0   MPKI: 0
ITLB LOAD TRANSLATION ACCESS:    7051404  HIT:    7051404  MISS:          0  HIT %:        100  MISS %:          0   MPKI: 0
ITLB PREFETCH  REQUESTED:          0  ISSUED:          0  USEFUL:          0  USELESS:          0
ITLB USEFUL LOAD PREFETCHES:          0 PREFETCH ISSUED TO LOWER LEVEL:          0  ACCURACY: -nan
ITLB TIMELY PREFETCHES:          0 LATE PREFETCHES: 0 DROPPED PREFETCHES: 0
ITLB PREFETCHES SAME FILL-ORIGIN LEVEL: 0 DIFFERENT FILL-ORIGIN LEVEL: 0
ITLB AVERAGE MISS LATENCY: -nan cycles
ITLB RQ	ACCESS:    8971485	FORWARD:          0	MERGED:    1920081	TO_CACHE:    7051404

DTLB TOTAL     ACCESS:   12921932  HIT:   12907686  MISS:      14246  HIT %:    99.8898  MISS %:   0.110247   MPKI: 0.28492
DTLB LOAD TRANSLATION ACCESS:   12921932  HIT:   12907686  MISS:      14246  HIT %:    99.8898  MISS %:   0.110247   MPKI: 0.28492
DTLB PREFETCH  REQUESTED:          0  ISSUED:          0  USEFUL:          0  USELESS:          0
DTLB USEFUL LOAD PREFETCHES:          0 PREFETCH ISSUED TO LOWER LEVEL:          0  ACCURACY: -nan
DTLB TIMELY PREFETCHES:          0 LATE PREFETCHES: 0 DROPPED PREFETCHES: 0
DTLB PREFETCHES SAME FILL-ORIGIN LEVEL: 0 DIFFERENT FILL-ORIGIN LEVEL: 0
DTLB AVERAGE MISS LATENCY: 271.702 cycles
DTLB RQ	ACCESS:   14914467	FORWARD:          0	MERGED:    1951390	TO_CACHE:   12963077

STLB TOTAL     ACCESS:      14246  HIT:       9191  MISS:       5055  HIT %:    64.5164  MISS %:    35.4836   MPKI: 0.1011
STLB LOAD TRANSLATION ACCESS:      14246  HIT:       9191  MISS:       5055  HIT %:    64.5164  MISS %:    35.4836   MPKI: 0.1011
STLB PREFETCH  REQUESTED:          0  ISSUED:          0  USEFUL:          0  USELESS:          0
STLB USEFUL LOAD PREFETCHES:          0 PREFETCH ISSUED TO LOWER LEVEL:          0  ACCURACY: -nan
STLB TIMELY PREFETCHES:          0 LATE PREFETCHES: 0 DROPPED PREFETCHES: 0
STLB PREFETCHES SAME FILL-ORIGIN LEVEL: 0 DIFFERENT FILL-ORIGIN LEVEL: 0
STLB AVERAGE MISS LATENCY: 739.375 cycles
STLB RQ	ACCESS:      14246	FORWARD:          0	MERGED:          0	TO_CACHE:      14246

STLB Hit, L1D data hit: 0
STLB Hit, L2C data hit: 0
STLB Hit, LLC data hit: 0
STLB Hit, LLC data miss: 0
STLB STLB hints to L2: 0
L1D TOTAL     ACCESS:   14346484  HIT:   13731026  MISS:     615458  HIT %:      95.71  MISS %:    4.28996   MPKI: 12.3092
L1D LOAD      ACCESS:   10214310  HIT:    9848680  MISS:     365630  HIT %:    96.4204  MISS %:    3.57959   MPKI: 7.3126
L1D RFO       ACCESS:    4132174  HIT:    3882346  MISS:     249828  HIT %:    93.9541  MISS %:    6.04592   MPKI: 4.99656
L1D PREFETCH  REQUESTED:          0  ISSUED:          0  USEFUL:          0  USELESS:          0
L1D USEFUL LOAD PREFETCHES:          0 PREFETCH ISSUED TO LOWER LEVEL:          0  ACCURACY: -nan
L1D TIMELY PREFETCHES:          0 LATE PREFETCHES: 0 DROPPED PREFETCHES: 0
L1D PREFETCHES SAME FILL-ORIGIN LEVEL: 0 DIFFERENT FILL-ORIGIN LEVEL: 0
L1D AVERAGE MISS LATENCY: 216.852 cycles
L1D RQ	ACCESS:   16771366	FORWARD:          0	MERGED:    6339967	TO_CACHE:   10292102
L1D WQ	ACCESS:    4622365	FORWARD:     139297	MERGED:          0	TO_CACHE:    4622365

L1D UNIQUE REGIONS ACCESSED: 0
L1D REGIONS CONFLICTS: 0
L1D Cross Page Prefetch Requests: 0
L1D Same Page Prefetch Requests: 0
L1D ROI Sum of L1D PQ occupancy: 0
L1D PREFETCHES PUSHED FROM L2C: 0
L1I TOTAL     ACCESS:    8971484  HIT:    8971484  MISS:          0  HIT %:        100  MISS %:          0   MPKI: 0
L1I LOAD      ACCESS:    8971484  HIT:    8971484  MISS:          0  HIT %:        100  MISS %:          0   MPKI: 0
L1I PREFETCH  REQUESTED:          0  ISSUED:          0  USEFUL:          0  USELESS:          0
L1I USEFUL LOAD PREFETCHES:          0 PREFETCH ISSUED TO LOWER LEVEL:          0  ACCURACY: -nan
L1I TIMELY PREFETCHES:          0 LATE PREFETCHES: 0 DROPPED PREFETCHES: 0
L1I PREFETCHES SAME FILL-ORIGIN LEVEL: 0 DIFFERENT FILL-ORIGIN LEVEL: 0
L1I AVERAGE MISS LATENCY: -nan cycles
L1I RQ	ACCESS:   11509507	FORWARD:          0	MERGED:    2538022	TO_CACHE:    8971485

BTB TOTAL     ACCESS:     646463  HIT:     646448  MISS:         15  HIT %:    99.9977  MISS %: 0.00232032   MPKI: 0.0003
BTB BRANCH_DIRECT_JUMP	ACCESS:          8  HIT:          7  MISS:          1
BTB BRANCH_INDIRECT	ACCESS:          0  HIT:          0  MISS:          0
BTB BRANCH_CONDITIONAL	ACCESS:     646455  HIT:     646441  MISS:         14
BTB BRANCH_DIRECT_CALL	ACCESS:          0  HIT:          0  MISS:          0
BTB BRANCH_INDIRECT_CALL	ACCESS:          0  HIT:          0  MISS:          0
BTB BRANCH_RETURN	ACCESS:          0  HIT:          0  MISS:          0
BTB BRANCH_OTHER ACCESS:          0  HIT:          0  MISS:          0

L2C TOTAL     ACCESS:    1573830  HIT:    1058744  MISS:     515086  HIT %:    67.2718  MISS %:    32.7282   MPKI: 10.3017
L2C LOAD      ACCESS:     365630  HIT:     274883  MISS:      90747  HIT %:    75.1806  MISS %:    24.8194   MPKI: 1.81494
L2C DATA LOAD MPKI: 1.81494
L2C INSTRUCTION LOAD MPKI: 0
L2C RFO       ACCESS:     249828  HIT:       1711  MISS:     248117  HIT %:   0.684871  MISS %:    99.3151   MPKI: 4.96234
L2C PREFETCH  ACCESS:     699792  HIT:     528036  MISS:     171756  HIT %:    75.4561  MISS %:    24.5439   MPKI: 3.43512
L2C DATA PREFETCH MPKI: 3.43512
L2C INSTRUCTION PREFETCH MPKI: 0
L2C WRITEBACK ACCESS:     250942  HIT:     250601  MISS:        341  HIT %:    99.8641  MISS %:   0.135888   MPKI: 0.00682
L2C LOAD TRANSLATION ACCESS:       7638  HIT:       3513  MISS:       4125  HIT %:    45.9937  MISS %:    54.0063   MPKI: 0.0825
L2C PREFETCH  REQUESTED:    2527053  ISSUED:    2365373  USEFUL:     170405  USELESS:       1371
L2C USEFUL LOAD PREFETCHES:     170405 PREFETCH ISSUED TO LOWER LEVEL:    1830626  ACCURACY: 9.30856
L2C TIMELY PREFETCHES:     170405 LATE PREFETCHES: 6413 DROPPED PREFETCHES: 0
L2C PREFETCHES SAME FILL-ORIGIN LEVEL: 178393 DIFFERENT FILL-ORIGIN LEVEL: 1652233
L2C AVERAGE MISS LATENCY: 259.582 cycles
L2C RQ	ACCESS:     623111	FORWARD:          0	MERGED:          0	TO_CACHE:     623111
L2C WQ	ACCESS:     250942	FORWARD:          0	MERGED:          0	TO_CACHE:     250942
L2C PQ	ACCESS:    2365373	FORWARD:          0	MERGED:      10013	TO_CACHE:    2355360

L2C Instructions Evicting Data 0
L2C Translations Evicting Data 4099
L2C Data Evicting Data 506568
L2C Instructions Evicting Instructions 0
L2C Translations Evicting Instructions 0
L2C Data Evicting Instructions 0
L2C Instructions Evicting Translations 0
L2C Translations Evicting Translations 26
L2C Data Evicting Translations 4052
L2C Dense regions hint from L2: 0
PSCL5 TOTAL     ACCESS:       5055  HIT:       5055  MISS:          0  HIT %:        100  MISS %:          0   MPKI: 0
PSCL5 LOAD TRANSLATION ACCESS:       5055  HIT:       5055  MISS:          0  HIT %:        100  MISS %:          0   MPKI: 0
PSCL5 PREFETCH  REQUESTED:          0  ISSUED:          0  USEFUL:          0  USELESS:          0
PSCL5 USEFUL LOAD PREFETCHES:          0 PREFETCH ISSUED TO LOWER LEVEL:          0  ACCURACY: -nan
PSCL5 TIMELY PREFETCHES:          0 LATE PREFETCHES: 0 DROPPED PREFETCHES: 0
PSCL5 PREFETCHES SAME FILL-ORIGIN LEVEL: 0 DIFFERENT FILL-ORIGIN LEVEL: 0

PSCL4 TOTAL     ACCESS:       5055  HIT:       5055  MISS:          0  HIT %:        100  MISS %:          0   MPKI: 0
PSCL4 LOAD TRANSLATION ACCESS:       5055  HIT:       5055  MISS:          0  HIT %:        100  MISS %:          0   MPKI: 0
PSCL4 PREFETCH  REQUESTED:          0  ISSUED:          0  USEFUL:          0  USELESS:          0
PSCL4 USEFUL LOAD PREFETCHES:          0 PREFETCH ISSUED TO LOWER LEVEL:          0  ACCURACY: -nan
PSCL4 TIMELY PREFETCHES:          0 LATE PREFETCHES: 0 DROPPED PREFETCHES: 0
PSCL4 PREFETCHES SAME FILL-ORIGIN LEVEL: 0 DIFFERENT FILL-ORIGIN LEVEL: 0

PSCL3 TOTAL     ACCESS:       5045  HIT:       4970  MISS:         75  HIT %:    98.5134  MISS %:    1.48662   MPKI: 0.0015
PSCL3 LOAD TRANSLATION ACCESS:       5045  HIT:       4970  MISS:         75  HIT %:    98.5134  MISS %:    1.48662   MPKI: 0.0015
PSCL3 PREFETCH  REQUESTED:          0  ISSUED:          0  USEFUL:          0  USELESS:          0
PSCL3 USEFUL LOAD PREFETCHES:          0 PREFETCH ISSUED TO LOWER LEVEL:          0  ACCURACY: -nan
PSCL3 TIMELY PREFETCHES:          0 LATE PREFETCHES: 0 DROPPED PREFETCHES: 0
PSCL3 PREFETCHES SAME FILL-ORIGIN LEVEL: 0 DIFFERENT FILL-ORIGIN LEVEL: 0

PSCL2 TOTAL     ACCESS:       5055  HIT:       2526  MISS:       2529  HIT %:    49.9703  MISS %:    50.0297   MPKI: 0.05058
PSCL2 LOAD TRANSLATION ACCESS:       5055  HIT:       2526  MISS:       2529  HIT %:    49.9703  MISS %:    50.0297   MPKI: 0.05058
PSCL2 PREFETCH  REQUESTED:          0  ISSUED:          0  USEFUL:          0  USELESS:          0
PSCL2 USEFUL LOAD PREFETCHES:          0 PREFETCH ISSUED TO LOWER LEVEL:          0  ACCURACY: -nan
PSCL2 TIMELY PREFETCHES:          0 LATE PREFETCHES: 0 DROPPED PREFETCHES: 0
PSCL2 PREFETCHES SAME FILL-ORIGIN LEVEL: 0 DIFFERENT FILL-ORIGIN LEVEL: 0

LLC TOTAL     ACCESS:    2257021  HIT:    1897998  MISS:     359023  HIT %:    84.0931  MISS %:    15.9069   MPKI: 7.18046
LLC LOAD      ACCESS:      84334  HIT:      76950  MISS:       7384  HIT %:    91.2443  MISS %:    8.75566   MPKI: 0.14768
LLC RFO       ACCESS:     248118  HIT:      52681  MISS:     195437  HIT %:    21.2322  MISS %:    78.7678   MPKI: 3.90874
LLC PREFETCH  ACCESS:    1669534  HIT:    1517420  MISS:     152114  HIT %:    90.8888  MISS %:    9.11117   MPKI: 3.04228
LLC WRITEBACK ACCESS:     250910  HIT:     250877  MISS:         33  HIT %:    99.9868  MISS %:  0.0131521   MPKI: 0.00066
LLC LOAD TRANSLATION ACCESS:       4125  HIT:         70  MISS:       4055  HIT %:    1.69697  MISS %:     98.303   MPKI: 0.0811
LLC PREFETCH  REQUESTED:          0  ISSUED:          0  USEFUL:      56815  USELESS:      92020
LLC USEFUL LOAD PREFETCHES:      56815 PREFETCH ISSUED TO LOWER LEVEL:     152963  ACCURACY: 37.143
LLC TIMELY PREFETCHES:      56815 LATE PREFETCHES: 849 DROPPED PREFETCHES: 0
LLC PREFETCHES SAME FILL-ORIGIN LEVEL: 150067 DIFFERENT FILL-ORIGIN LEVEL: 0
LLC AVERAGE MISS LATENCY: 666.455 cycles
LLC RQ	ACCESS:     336591	FORWARD:          0	MERGED:          0	TO_CACHE:     336591
LLC WQ	ACCESS:     250910	FORWARD:          0	MERGED:          0	TO_CACHE:     250910
LLC PQ	ACCESS:    1826616	FORWARD:          0	MERGED:       4014	TO_CACHE:    1822602

LLC Dense regions hint to LLC: 0

RAW hits: 611721
Loads Generated: 17383090
Loads sent to L1D: 16771366
Stores Generated: 4622367
Stores sent to L1D: 4622365
Major fault: 0 Minor fault: 6045
Allocated PAGES: 6045
 All Calls: 417189
 Critical Calls: 417189
------------------
Depth Distribution
------------------
depth 0: 0
depth 1: 371190
depth 2: 357862
depth 3: 345858
depth 4: 334703
depth 5: 322157
depth 6: 308031
depth 7: 272055
depth 8: 196720
depth 9: 125056
depth 10: 48247
depth 11: 19003
depth 12: 7612
depth 13: 2088
depth 14: 98
depth 15: 90
depth 16: 0
depth 17: 0
depth 18: 0
depth 19: 0
depth 20: 0
depth 21: 0
depth 22: 0
depth 23: 0
depth 24: 0
depth 25: 0
depth 26: 0
depth 27: 0
depth 28: 0
depth 29: 0
Total: 2710770
-----------------------------
-----------------------------
	Captured at Filter
-----------------------------
depth 0: 0
depth 1: 32591
depth 2: 32192
depth 3: 32289
depth 4: 32142
depth 5: 31882
depth 6: 31114
depth 7: 28858
depth 8: 21280
depth 9: 14795
depth 10: 3806
depth 11: 674
depth 12: 89
depth 13: 15
depth 14: 0
depth 15: 1
depth 16: 0
depth 17: 0
depth 18: 0
depth 19: 0
depth 20: 0
depth 21: 0
depth 22: 0
depth 23: 0
depth 24: 0
depth 25: 0
depth 26: 0
depth 27: 0
depth 28: 0
depth 29: 0
-----------------------------
-----------------------------
		Lost at Page
-----------------------------
depth 0: 0
depth 1: 6617
depth 2: 12789
depth 3: 19079
depth 4: 25392
depth 5: 31602
depth 6: 37461
depth 7: 40181
depth 8: 34972
depth 9: 26924
depth 10: 11814
depth 11: 5503
depth 12: 2731
depth 13: 913
depth 14: 54
depth 15: 57
depth 16: 0
depth 17: 0
depth 18: 0
depth 19: 0
depth 20: 0
depth 21: 0
depth 22: 0
depth 23: 0
depth 24: 0
depth 25: 0
depth 26: 0
depth 27: 0
depth 28: 0
depth 29: 0
-----------------------------
-----------------------------
	Lost due to PQ Size
-----------------------------
186953
-----------------------------
ST read accesses: 359796
ST write accesses: 5834
PT read accesses: 16733077
PT write accesses: 535449
FILTER read accesses: 3639434
FILTER write accesses: 968094
GHR read accesses: 1168561
GHR write accesses: 222625
GHR counter read accesses: 14102088
GHR counter write accesses: 825119
ST tag read accesses: 143535793
ST tag write accesses: 4230220

DRAM Statistics
 CHANNEL 0
 RQ ROW_BUFFER_HIT:      63296  ROW_BUFFER_MISS:     295425
 DBUS_CONGESTED:     450424
 WQ ROW_BUFFER_HIT:      87541  ROW_BUFFER_MISS:     133036  FULL:          0

 AVG_CONGESTED_CYCLE: 50
 All warmup complete: 2
Channel 0 Bank busy for read cycles: 0
Channel 0 Bank busy for write cycles: 0
Channel 0
Rank 0
0banks busy for read cycles: 5433139
0banks busy for write cycles: 23080
1banks busy for read cycles: 10277733
1banks busy for write cycles: 3218806
2banks busy for read cycles: 7183124
2banks busy for write cycles: 1935933
3banks busy for read cycles: 2561391
3banks busy for write cycles: 1217313
4banks busy for read cycles: 1575217
4banks busy for write cycles: 912530
5banks busy for read cycles: 996109
5banks busy for write cycles: 698146
6banks busy for read cycles: 1002064
6banks busy for write cycles: 648218
7banks busy for read cycles: 1414581
7banks busy for write cycles: 927900
8banks busy for read cycles: 4836283
8banks busy for write cycles: 8890329

CPU 0 Branch Prediction Accuracy: 99.7995% MPKI: 0.02594 Average ROB Occupancy at Mispredict: 126.026
Branch types
NOT_BRANCH: 49352807 98.7056%
BRANCH_DIRECT_JUMP: 8 1.6e-05%
BRANCH_INDIRECT: 0 0%
BRANCH_CONDITIONAL: 646882 1.29376%
BRANCH_DIRECT_CALL: 0 0%
BRANCH_INDIRECT_CALL: 0 0%
BRANCH_RETURN: 0 0%
BRANCH_OTHER: 0 0%

@sumon_overall_L1D         0         0         0         0         0         0
@Sumon_Early_by_class_L1D         0         0         0         0
@Sumon_Late_by_class_L1D         0         0         0         0

@Sumon_Early_by_cycle_L1D         0         0         0         0         0         0         0         0         0         0         0         0
@Sumon_Late_by_cycle_L1D         0         0         0         0         0         0         0         0         0         0         0         0
@Sumon_Early_stream_L1D         0         0         0         0         0         0         0         0         0         0         0         0
@Sumon_Early_CS_L1D         0         0         0         0         0         0         0         0         0         0         0         0
@Sumon_Early_CPLX_L1D         0         0         0         0         0         0         0         0         0         0         0         0
@Sumon_Late_stream_L1D         0         0         0         0         0         0         0         0         0         0         0         0
@Sumon_Late_CS_L1D         0         0         0         0         0         0         0         0         0         0         0         0
@Sumon_Late_CPLX_L1D         0         0         0         0         0         0         0         0         0         0         0         0
@sumon_overall_L2C    170405      6413      1371    171756   2365373   2527053
@Sumon_Early_by_class_L2C         0         0         0         0
@Sumon_Late_by_class_L2C         0         0         0         0

@Sumon_Early_by_cycle_L2C     25722     26582     66812      2615      3617     42953      1927       159         8         0         2         8
@Sumon_Late_by_cycle_L2C      4762       271       284       215       213       528       131         9         0         0         0         0
@Sumon_Early_stream_L2C         0         0         0         0         0         0         0         0         0         0         0         0
@Sumon_Early_CS_L2C         0         0         0         0         0         0         0         0         0         0         0         0
@Sumon_Early_CPLX_L2C         0         0         0         0         0         0         0         0         0         0         0         0
@Sumon_Late_stream_L2C         0         0         0         0         0         0         0         0         0         0         0         0
@Sumon_Late_CS_L2C         0         0         0         0         0         0         0         0         0         0         0         0
@Sumon_Late_CPLX_L2C         0         0         0         0         0         0         0         0         0         0         0         0
DRAM PAGES: 1048576
Allocated PAGES: 6045
