
*** ChampSim Multicore Out-of-Order Simulator ***

Warmup Instructions: 10000000
Simulation Instructions: 50000000
Number of CPUs: 1
LLC sets: 2048
LLC ways: 16
Off-chip DRAM Size: 4096 MB Channels: 1 Width: 64-bit Data Rate: 400 MT/s
CPU 0 runs traces/SPEC2017/605.mcf_s-665B.champsimtrace.xz
.xz
CPU 0 Bimodal branch predictor
BTB has LRU replacement policy
ITLB has LRU replacement policy
DTLB has LRU replacement policy
STLB has LRU replacement policy
L1I has LRU replacement policy
L1D has LRU replacement policy
L2C has LRU replacement policy
LLC has LRU replacement policy
Heartbeat CPU 0 instructions: 10000000 cycles: 3309294 heartbeat IPC: 3.02179 cumulative IPC: 3.02179 (Simulation time: 0 hr 9 min 33 sec) 

Warmup complete CPU 0 instructions: 10000004 cycles: 3309295 (Simulation time: 0 hr 9 min 33 sec) 

Heartbeat CPU 0 instructions: 20000002 cycles: 47948550 heartbeat IPC: 0.224018 cumulative IPC: 0.224018 (Simulation time: 0 hr 21 min 39 sec) 
Heartbeat CPU 0 instructions: 30000000 cycles: 92098229 heartbeat IPC: 0.226502 cumulative IPC: 0.225253 (Simulation time: 0 hr 33 min 28 sec) 
Heartbeat CPU 0 instructions: 40000000 cycles: 136795660 heartbeat IPC: 0.223727 cumulative IPC: 0.224742 (Simulation time: 0 hr 46 min 11 sec) 
Heartbeat CPU 0 instructions: 50000000 cycles: 181014197 heartbeat IPC: 0.226149 cumulative IPC: 0.225092 (Simulation time: 0 hr 57 min 53 sec) 
Heartbeat CPU 0 instructions: 60000003 cycles: 225821020 heartbeat IPC: 0.22318 cumulative IPC: 0.224707 (Simulation time: 1 hr 7 min 47 sec) 
Finished CPU 0 instructions: 50000002 cycles: 222511726 cumulative IPC: 0.224707 (Simulation time: 1 hr 7 min 47 sec) 

ChampSim completed all CPUs

Region of Interest Statistics

CPU 0 cumulative IPC: 0.224707 instructions: 50000002 cycles: 222511726
ITLB TOTAL     ACCESS:    9255036  HIT:    9255036  MISS:          0  HIT %:        100  MISS %:          0   MPKI: 0
ITLB LOAD TRANSLATION ACCESS:    9255036  HIT:    9255036  MISS:          0  HIT %:        100  MISS %:          0   MPKI: 0
ITLB PREFETCH  REQUESTED:          0  ISSUED:          0  USEFUL:          0  USELESS:          0
ITLB USEFUL LOAD PREFETCHES:          0 PREFETCH ISSUED TO LOWER LEVEL:          0  ACCURACY: -nan
ITLB TIMELY PREFETCHES:          0 LATE PREFETCHES: 0 DROPPED PREFETCHES: 0
ITLB PREFETCHES SAME FILL-ORIGIN LEVEL: 0 DIFFERENT FILL-ORIGIN LEVEL: 0
ITLB AVERAGE MISS LATENCY: -nan cycles
ITLB RQ	ACCESS:    9681587	FORWARD:          0	MERGED:     426552	TO_CACHE:    9255035

DTLB TOTAL     ACCESS:   15483815  HIT:   14589206  MISS:     894609  HIT %:    94.2223  MISS %:     5.7777   MPKI: 17.8922
DTLB LOAD TRANSLATION ACCESS:   15483815  HIT:   14589206  MISS:     894609  HIT %:    94.2223  MISS %:     5.7777   MPKI: 17.8922
DTLB PREFETCH  REQUESTED:          0  ISSUED:          0  USEFUL:          0  USELESS:          0
DTLB USEFUL LOAD PREFETCHES:          0 PREFETCH ISSUED TO LOWER LEVEL:          0  ACCURACY: -nan
DTLB TIMELY PREFETCHES:          0 LATE PREFETCHES: 0 DROPPED PREFETCHES: 0
DTLB PREFETCHES SAME FILL-ORIGIN LEVEL: 0 DIFFERENT FILL-ORIGIN LEVEL: 0
DTLB AVERAGE MISS LATENCY: 10.7259 cycles
DTLB RQ	ACCESS:   18896152	FORWARD:          0	MERGED:    3311989	TO_CACHE:   15584163

STLB TOTAL     ACCESS:     894609  HIT:     881061  MISS:      13548  HIT %:    98.4856  MISS %:     1.5144   MPKI: 0.27096
STLB LOAD TRANSLATION ACCESS:     894609  HIT:     881061  MISS:      13548  HIT %:    98.4856  MISS %:     1.5144   MPKI: 0.27096
STLB PREFETCH  REQUESTED:          0  ISSUED:          0  USEFUL:          0  USELESS:          0
STLB USEFUL LOAD PREFETCHES:          0 PREFETCH ISSUED TO LOWER LEVEL:          0  ACCURACY: -nan
STLB TIMELY PREFETCHES:          0 LATE PREFETCHES: 0 DROPPED PREFETCHES: 0
STLB PREFETCHES SAME FILL-ORIGIN LEVEL: 0 DIFFERENT FILL-ORIGIN LEVEL: 0
STLB AVERAGE MISS LATENCY: 109.989 cycles
STLB RQ	ACCESS:     894609	FORWARD:          0	MERGED:          0	TO_CACHE:     894609

STLB Hit, L1D data hit: 0
STLB Hit, L2C data hit: 0
STLB Hit, LLC data hit: 0
STLB Hit, LLC data miss: 0
STLB STLB hints to L2: 0
L1D TOTAL     ACCESS:   18509096  HIT:   16558963  MISS:    1950133  HIT %:    89.4639  MISS %:    10.5361   MPKI: 39.0027
L1D LOAD      ACCESS:   13097579  HIT:   11334877  MISS:    1762702  HIT %:    86.5418  MISS %:    13.4582   MPKI: 35.254
L1D RFO       ACCESS:    5411517  HIT:    5224086  MISS:     187431  HIT %:    96.5364  MISS %:    3.46356   MPKI: 3.74862
L1D PREFETCH  REQUESTED:          0  ISSUED:          0  USEFUL:          0  USELESS:          0
L1D USEFUL LOAD PREFETCHES:          0 PREFETCH ISSUED TO LOWER LEVEL:          0  ACCURACY: -nan
L1D TIMELY PREFETCHES:          0 LATE PREFETCHES: 0 DROPPED PREFETCHES: 0
L1D PREFETCHES SAME FILL-ORIGIN LEVEL: 0 DIFFERENT FILL-ORIGIN LEVEL: 0
L1D AVERAGE MISS LATENCY: 110.59 cycles
L1D RQ	ACCESS:   16801624	FORWARD:          0	MERGED:    3106814	TO_CACHE:   13165907
L1D WQ	ACCESS:    5753549	FORWARD:     528903	MERGED:      23304	TO_CACHE:    5730245

L1D UNIQUE REGIONS ACCESSED: 0
L1D REGIONS CONFLICTS: 0
L1D Cross Page Prefetch Requests: 0
L1D Same Page Prefetch Requests: 0
L1D ROI Sum of L1D PQ occupancy: 0
L1D PREFETCHES PUSHED FROM L2C: 0
L1I TOTAL     ACCESS:    9681588  HIT:    9681588  MISS:          0  HIT %:        100  MISS %:          0   MPKI: 0
L1I LOAD      ACCESS:    9681588  HIT:    9681588  MISS:          0  HIT %:        100  MISS %:          0   MPKI: 0
L1I PREFETCH  REQUESTED:          0  ISSUED:          0  USEFUL:          0  USELESS:          0
L1I USEFUL LOAD PREFETCHES:          0 PREFETCH ISSUED TO LOWER LEVEL:          0  ACCURACY: -nan
L1I TIMELY PREFETCHES:          0 LATE PREFETCHES: 0 DROPPED PREFETCHES: 0
L1I PREFETCHES SAME FILL-ORIGIN LEVEL: 0 DIFFERENT FILL-ORIGIN LEVEL: 0
L1I AVERAGE MISS LATENCY: -nan cycles
L1I RQ	ACCESS:   15082021	FORWARD:          0	MERGED:    5400434	TO_CACHE:    9681587

BTB TOTAL     ACCESS:   11942322  HIT:   11365508  MISS:     576814  HIT %:      95.17  MISS %:       4.83   MPKI: 11.5363
BTB BRANCH_DIRECT_JUMP	ACCESS:    1326301  HIT:    1326265  MISS:         36
BTB BRANCH_INDIRECT	ACCESS:          0  HIT:          0  MISS:          0
BTB BRANCH_CONDITIONAL	ACCESS:    7942778  HIT:    7942703  MISS:         75
BTB BRANCH_DIRECT_CALL	ACCESS:    1261742  HIT:    1261724  MISS:         18
BTB BRANCH_INDIRECT_CALL	ACCESS:      74878  HIT:      74870  MISS:          8
BTB BRANCH_RETURN	ACCESS:    1336623  HIT:     759946  MISS:     576677
BTB BRANCH_OTHER ACCESS:          0  HIT:          0  MISS:          0

L2C TOTAL     ACCESS:    2223221  HIT:     896041  MISS:    1327180  HIT %:    40.3037  MISS %:    59.6963   MPKI: 26.5436
L2C LOAD      ACCESS:    1762696  HIT:     527595  MISS:    1235101  HIT %:    29.9311  MISS %:    70.0689   MPKI: 24.702
L2C DATA LOAD MPKI: 24.702
L2C INSTRUCTION LOAD MPKI: 0
L2C RFO       ACCESS:     187426  HIT:     101434  MISS:      85992  HIT %:    54.1195  MISS %:    45.8805   MPKI: 1.71984
L2C WRITEBACK ACCESS:     259452  HIT:     259271  MISS:        181  HIT %:    99.9302  MISS %:  0.0697624   MPKI: 0.00362
L2C LOAD TRANSLATION ACCESS:      13647  HIT:       7741  MISS:       5906  HIT %:    56.7231  MISS %:    43.2769   MPKI: 0.11812
L2C PREFETCH  REQUESTED:          0  ISSUED:          0  USEFUL:          0  USELESS:          0
L2C USEFUL LOAD PREFETCHES:          0 PREFETCH ISSUED TO LOWER LEVEL:          0  ACCURACY: -nan
L2C TIMELY PREFETCHES:          0 LATE PREFETCHES: 0 DROPPED PREFETCHES: 0
L2C PREFETCHES SAME FILL-ORIGIN LEVEL: 0 DIFFERENT FILL-ORIGIN LEVEL: 0
L2C AVERAGE MISS LATENCY: 140.778 cycles
L2C RQ	ACCESS:    1963781	FORWARD:          0	MERGED:          0	TO_CACHE:    1963770
L2C WQ	ACCESS:     259452	FORWARD:         11	MERGED:          0	TO_CACHE:     259452

L2C Instructions Evicting Data 0
L2C Translations Evicting Data 5834
L2C Data Evicting Data 1315277
L2C Instructions Evicting Instructions 0
L2C Translations Evicting Instructions 0
L2C Data Evicting Instructions 0
L2C Instructions Evicting Translations 0
L2C Translations Evicting Translations 72
L2C Data Evicting Translations 5816
L2C Dense regions hint from L2: 0
PSCL5 TOTAL     ACCESS:      13548  HIT:      13548  MISS:          0  HIT %:        100  MISS %:          0   MPKI: 0
PSCL5 LOAD TRANSLATION ACCESS:      13548  HIT:      13548  MISS:          0  HIT %:        100  MISS %:          0   MPKI: 0
PSCL5 PREFETCH  REQUESTED:          0  ISSUED:          0  USEFUL:          0  USELESS:          0
PSCL5 USEFUL LOAD PREFETCHES:          0 PREFETCH ISSUED TO LOWER LEVEL:          0  ACCURACY: -nan
PSCL5 TIMELY PREFETCHES:          0 LATE PREFETCHES: 0 DROPPED PREFETCHES: 0
PSCL5 PREFETCHES SAME FILL-ORIGIN LEVEL: 0 DIFFERENT FILL-ORIGIN LEVEL: 0

PSCL4 TOTAL     ACCESS:      13548  HIT:      13548  MISS:          0  HIT %:        100  MISS %:          0   MPKI: 0
PSCL4 LOAD TRANSLATION ACCESS:      13548  HIT:      13548  MISS:          0  HIT %:        100  MISS %:          0   MPKI: 0
PSCL4 PREFETCH  REQUESTED:          0  ISSUED:          0  USEFUL:          0  USELESS:          0
PSCL4 USEFUL LOAD PREFETCHES:          0 PREFETCH ISSUED TO LOWER LEVEL:          0  ACCURACY: -nan
PSCL4 TIMELY PREFETCHES:          0 LATE PREFETCHES: 0 DROPPED PREFETCHES: 0
PSCL4 PREFETCHES SAME FILL-ORIGIN LEVEL: 0 DIFFERENT FILL-ORIGIN LEVEL: 0

PSCL3 TOTAL     ACCESS:      13548  HIT:      13548  MISS:          0  HIT %:        100  MISS %:          0   MPKI: 0
PSCL3 LOAD TRANSLATION ACCESS:      13548  HIT:      13548  MISS:          0  HIT %:        100  MISS %:          0   MPKI: 0
PSCL3 PREFETCH  REQUESTED:          0  ISSUED:          0  USEFUL:          0  USELESS:          0
PSCL3 USEFUL LOAD PREFETCHES:          0 PREFETCH ISSUED TO LOWER LEVEL:          0  ACCURACY: -nan
PSCL3 TIMELY PREFETCHES:          0 LATE PREFETCHES: 0 DROPPED PREFETCHES: 0
PSCL3 PREFETCHES SAME FILL-ORIGIN LEVEL: 0 DIFFERENT FILL-ORIGIN LEVEL: 0

PSCL2 TOTAL     ACCESS:      13548  HIT:      13382  MISS:        166  HIT %:    98.7747  MISS %:    1.22527   MPKI: 0.00332
PSCL2 LOAD TRANSLATION ACCESS:      13548  HIT:      13382  MISS:        166  HIT %:    98.7747  MISS %:    1.22527   MPKI: 0.00332
PSCL2 PREFETCH  REQUESTED:          0  ISSUED:          0  USEFUL:          0  USELESS:          0
PSCL2 USEFUL LOAD PREFETCHES:          0 PREFETCH ISSUED TO LOWER LEVEL:          0  ACCURACY: -nan
PSCL2 TIMELY PREFETCHES:          0 LATE PREFETCHES: 0 DROPPED PREFETCHES: 0
PSCL2 PREFETCHES SAME FILL-ORIGIN LEVEL: 0 DIFFERENT FILL-ORIGIN LEVEL: 0

LLC TOTAL     ACCESS:    1463480  HIT:     830225  MISS:     633255  HIT %:    56.7295  MISS %:    43.2705   MPKI: 12.6651
LLC LOAD      ACCESS:    1235101  HIT:     606789  MISS:     628312  HIT %:    49.1287  MISS %:    50.8713   MPKI: 12.5662
LLC RFO       ACCESS:      85992  HIT:      85158  MISS:        834  HIT %:    99.0301  MISS %:   0.969858   MPKI: 0.01668
LLC WRITEBACK ACCESS:     136481  HIT:     133987  MISS:       2494  HIT %:    98.1726  MISS %:    1.82736   MPKI: 0.04988
LLC LOAD TRANSLATION ACCESS:       5906  HIT:       4291  MISS:       1615  HIT %:    72.6549  MISS %:    27.3451   MPKI: 0.0323
LLC PREFETCH  REQUESTED:          0  ISSUED:          0  USEFUL:          0  USELESS:          0
LLC USEFUL LOAD PREFETCHES:          0 PREFETCH ISSUED TO LOWER LEVEL:          0  ACCURACY: -nan
LLC TIMELY PREFETCHES:          0 LATE PREFETCHES: 0 DROPPED PREFETCHES: 0
LLC PREFETCHES SAME FILL-ORIGIN LEVEL: 0 DIFFERENT FILL-ORIGIN LEVEL: 0
LLC AVERAGE MISS LATENCY: 231.835 cycles
LLC RQ	ACCESS:    1326999	FORWARD:          0	MERGED:          0	TO_CACHE:    1326999
LLC WQ	ACCESS:     136481	FORWARD:          0	MERGED:          0	TO_CACHE:     136481

LLC Dense regions hint to LLC: 0

RAW hits: 724260
Loads Generated: 17525886
Loads sent to L1D: 16801624
Stores Generated: 5753549
Stores sent to L1D: 5753549
Major fault: 0 Minor fault: 9976
Allocated PAGES: 9976

DRAM Statistics
 CHANNEL 0
 RQ ROW_BUFFER_HIT:     288347  ROW_BUFFER_MISS:     342414
 DBUS_CONGESTED:     389311
 WQ ROW_BUFFER_HIT:       1230  ROW_BUFFER_MISS:       5726  FULL:          0

 AVG_CONGESTED_CYCLE: 65
 All warmup complete: 2
Channel 0 Bank busy for read cycles: 0
Channel 0 Bank busy for write cycles: 0
Channel 0
Rank 0
0banks busy for read cycles: 164963308
0banks busy for write cycles: 6327
1banks busy for read cycles: 26345164
1banks busy for write cycles: 1296964
2banks busy for read cycles: 12008662
2banks busy for write cycles: 110114
3banks busy for read cycles: 7110268
3banks busy for write cycles: 18836
4banks busy for read cycles: 4491486
4banks busy for write cycles: 7186
5banks busy for read cycles: 2933319
5banks busy for write cycles: 1309
6banks busy for read cycles: 2027794
6banks busy for write cycles: 945
7banks busy for read cycles: 963148
7banks busy for write cycles: 0
8banks busy for read cycles: 226897
8banks busy for write cycles: 0

CPU 0 Branch Prediction Accuracy: 89.0487% MPKI: 27.313 Average ROB Occupancy at Mispredict: 13.192
Branch types
NOT_BRANCH: 37529454 75.0589%
BRANCH_DIRECT_JUMP: 1326301 2.6526%
BRANCH_INDIRECT: 0 0%
BRANCH_CONDITIONAL: 8470661 16.9413%
BRANCH_DIRECT_CALL: 1261742 2.52348%
BRANCH_INDIRECT_CALL: 74878 0.149756%
BRANCH_RETURN: 1336623 2.67325%
BRANCH_OTHER: 0 0%

@sumon_overall_L1D         0         0         0         0         0         0
@Sumon_Early_by_class_L1D         0         0         0         0
@Sumon_Late_by_class_L1D         0         0         0         0

@Sumon_Early_by_cycle_L1D         0         0         0         0         0         0         0         0         0         0         0         0
@Sumon_Late_by_cycle_L1D         0         0         0         0         0         0
@Sumon_Early_stream_L1D         0         0         0         0         0         0         0         0         0         0         0         0
@Sumon_Early_CS_L1D         0         0         0         0         0         0         0         0         0         0         0         0
@Sumon_Early_CPLX_L1D         0         0         0         0         0         0         0         0         0         0         0         0
@Sumon_Late_stream_L1D         0         0         0         0         0         0
@Sumon_Late_CS_L1D         0         0         0         0         0         0
@Sumon_Late_CPLX_L1D         0         0         0         0         0         0
@sumon_overall_L2C         0         0         0         0         0         0
@Sumon_Early_by_class_L2C         0         0         0         0
@Sumon_Late_by_class_L2C         0         0         0         0

@Sumon_Early_by_cycle_L2C         0         0         0         0         0         0         0         0         0         0         0         0
@Sumon_Late_by_cycle_L2C         0         0         0         0         0         0
@Sumon_Early_stream_L2C         0         0         0         0         0         0         0         0         0         0         0         0
@Sumon_Early_CS_L2C         0         0         0         0         0         0         0         0         0         0         0         0
@Sumon_Early_CPLX_L2C         0         0         0         0         0         0         0         0         0         0         0         0
@Sumon_Late_stream_L2C         0         0         0         0         0         0
@Sumon_Late_CS_L2C         0         0         0         0         0         0
@Sumon_Late_CPLX_L2C         0         0         0         0         0         0
DRAM PAGES: 1048576
Allocated PAGES: 9976
