
*** ChampSim Multicore Out-of-Order Simulator ***

Warmup Instructions: 10000000
Simulation Instructions: 50000000
Number of CPUs: 1
LLC sets: 2048
LLC ways: 16
Off-chip DRAM Size: 4096 MB Channels: 1 Width: 64-bit Data Rate: 400 MT/s
CPU 0 runs traces/SPEC2017/619.lbm_s-2676B.champsimtrace.xz
.xz
CPU 0 Bimodal branch predictor
BTB has LRU replacement policy
ITLB has LRU replacement policy
DTLB has LRU replacement policy
STLB has LRU replacement policy
L1I has LRU replacement policy
L1D has LRU replacement policy
L2C has LRU replacement policy
LLC has LRU replacement policy
Heartbeat CPU 0 instructions: 10000003 cycles: 2905426 heartbeat IPC: 3.44184 cumulative IPC: 3.44184 (Simulation time: 0 hr 8 min 21 sec) 

Warmup complete CPU 0 instructions: 10000003 cycles: 2905426 (Simulation time: 0 hr 8 min 21 sec) 

Heartbeat CPU 0 instructions: 20000002 cycles: 70218262 heartbeat IPC: 0.14856 cumulative IPC: 0.14856 (Simulation time: 0 hr 42 min 40 sec) 
Heartbeat CPU 0 instructions: 30000000 cycles: 136093519 heartbeat IPC: 0.151802 cumulative IPC: 0.150164 (Simulation time: 1 hr 11 min 9 sec) 
Heartbeat CPU 0 instructions: 40000003 cycles: 198684684 heartbeat IPC: 0.159767 cumulative IPC: 0.153234 (Simulation time: 1 hr 22 min 56 sec) 
Heartbeat CPU 0 instructions: 50000000 cycles: 258222314 heartbeat IPC: 0.167961 cumulative IPC: 0.156668 (Simulation time: 1 hr 28 min 34 sec) 
Heartbeat CPU 0 instructions: 60000002 cycles: 315003834 heartbeat IPC: 0.176114 cumulative IPC: 0.160206 (Simulation time: 1 hr 31 min 35 sec) 
Finished CPU 0 instructions: 50000003 cycles: 312098409 cumulative IPC: 0.160206 (Simulation time: 1 hr 31 min 35 sec) 

ChampSim completed all CPUs

Region of Interest Statistics

CPU 0 cumulative IPC: 0.160206 instructions: 50000003 cycles: 312098409
ITLB TOTAL     ACCESS:    6757783  HIT:    6757783  MISS:          0  HIT %:        100  MISS %:          0   MPKI: 0
ITLB LOAD TRANSLATION ACCESS:    6757783  HIT:    6757783  MISS:          0  HIT %:        100  MISS %:          0   MPKI: 0
ITLB PREFETCH  REQUESTED:          0  ISSUED:          0  USEFUL:          0  USELESS:          0
ITLB USEFUL LOAD PREFETCHES:          0 PREFETCH ISSUED TO LOWER LEVEL:          0  ACCURACY: -nan
ITLB TIMELY PREFETCHES:          0 LATE PREFETCHES: 0 DROPPED PREFETCHES: 0
ITLB PREFETCHES SAME FILL-ORIGIN LEVEL: 0 DIFFERENT FILL-ORIGIN LEVEL: 0
ITLB AVERAGE MISS LATENCY: -nan cycles
ITLB RQ	ACCESS:    8749310	FORWARD:          0	MERGED:    1991527	TO_CACHE:    6757783

DTLB TOTAL     ACCESS:    8191404  HIT:    8132886  MISS:      58518  HIT %:    99.2856  MISS %:   0.714383   MPKI: 1.17036
DTLB LOAD TRANSLATION ACCESS:    8191404  HIT:    8132886  MISS:      58518  HIT %:    99.2856  MISS %:   0.714383   MPKI: 1.17036
DTLB PREFETCH  REQUESTED:          0  ISSUED:          0  USEFUL:          0  USELESS:          0
DTLB USEFUL LOAD PREFETCHES:          0 PREFETCH ISSUED TO LOWER LEVEL:          0  ACCURACY: -nan
DTLB TIMELY PREFETCHES:          0 LATE PREFETCHES: 0 DROPPED PREFETCHES: 0
DTLB PREFETCHES SAME FILL-ORIGIN LEVEL: 0 DIFFERENT FILL-ORIGIN LEVEL: 0
DTLB AVERAGE MISS LATENCY: 199.39 cycles
DTLB RQ	ACCESS:   12736894	FORWARD:          0	MERGED:    4528670	TO_CACHE:    8208224

STLB TOTAL     ACCESS:      58518  HIT:      26765  MISS:      31753  HIT %:    45.7381  MISS %:    54.2619   MPKI: 0.63506
STLB LOAD TRANSLATION ACCESS:      58518  HIT:      26765  MISS:      31753  HIT %:    45.7381  MISS %:    54.2619   MPKI: 0.63506
STLB PREFETCH  REQUESTED:          0  ISSUED:          0  USEFUL:          0  USELESS:          0
STLB USEFUL LOAD PREFETCHES:          0 PREFETCH ISSUED TO LOWER LEVEL:          0  ACCURACY: -nan
STLB TIMELY PREFETCHES:          0 LATE PREFETCHES: 0 DROPPED PREFETCHES: 0
STLB PREFETCHES SAME FILL-ORIGIN LEVEL: 0 DIFFERENT FILL-ORIGIN LEVEL: 0
STLB AVERAGE MISS LATENCY: 350.586 cycles
STLB RQ	ACCESS:      58518	FORWARD:          0	MERGED:          0	TO_CACHE:      58518

STLB Hit, L1D data hit: 0
STLB Hit, L2C data hit: 0
STLB Hit, LLC data hit: 0
STLB Hit, LLC data miss: 0
STLB STLB hints to L2: 0
L1D TOTAL     ACCESS:   12505479  HIT:    9153228  MISS:    3352251  HIT %:    73.1937  MISS %:    26.8063   MPKI: 67.045
L1D LOAD      ACCESS:    3831126  HIT:    3323183  MISS:     507943  HIT %:    86.7417  MISS %:    13.2583   MPKI: 10.1589
L1D RFO       ACCESS:    8674353  HIT:    5830045  MISS:    2844308  HIT %:    67.2101  MISS %:    32.7899   MPKI: 56.8862
L1D PREFETCH  REQUESTED:          0  ISSUED:          0  USEFUL:          0  USELESS:          0
L1D USEFUL LOAD PREFETCHES:          0 PREFETCH ISSUED TO LOWER LEVEL:          0  ACCURACY: -nan
L1D TIMELY PREFETCHES:          0 LATE PREFETCHES: 0 DROPPED PREFETCHES: 0
L1D PREFETCHES SAME FILL-ORIGIN LEVEL: 0 DIFFERENT FILL-ORIGIN LEVEL: 0
L1D AVERAGE MISS LATENCY: 986.966 cycles
L1D RQ	ACCESS:   11392165	FORWARD:          0	MERGED:    7067698	TO_CACHE:    4016877
L1D WQ	ACCESS:    8740015	FORWARD:     307590	MERGED:      19998	TO_CACHE:    8720017

L1D UNIQUE REGIONS ACCESSED: 0
L1D REGIONS CONFLICTS: 0
L1D Cross Page Prefetch Requests: 0
L1D Same Page Prefetch Requests: 0
L1D ROI Sum of L1D PQ occupancy: 0
L1D PREFETCHES PUSHED FROM L2C: 0
L1I TOTAL     ACCESS:    8749310  HIT:    8749310  MISS:          0  HIT %:        100  MISS %:          0   MPKI: 0
L1I LOAD      ACCESS:    8749310  HIT:    8749310  MISS:          0  HIT %:        100  MISS %:          0   MPKI: 0
L1I PREFETCH  REQUESTED:          0  ISSUED:          0  USEFUL:          0  USELESS:          0
L1I USEFUL LOAD PREFETCHES:          0 PREFETCH ISSUED TO LOWER LEVEL:          0  ACCURACY: -nan
L1I TIMELY PREFETCHES:          0 LATE PREFETCHES: 0 DROPPED PREFETCHES: 0
L1I PREFETCHES SAME FILL-ORIGIN LEVEL: 0 DIFFERENT FILL-ORIGIN LEVEL: 0
L1I AVERAGE MISS LATENCY: -nan cycles
L1I RQ	ACCESS:   12722818	FORWARD:          0	MERGED:    3973508	TO_CACHE:    8749310

BTB TOTAL     ACCESS:     800658  HIT:     800652  MISS:          6  HIT %:    99.9993  MISS %: 0.000749384   MPKI: 0.00012
BTB BRANCH_DIRECT_JUMP	ACCESS:     107474  HIT:     107473  MISS:          1
BTB BRANCH_INDIRECT	ACCESS:          0  HIT:          0  MISS:          0
BTB BRANCH_CONDITIONAL	ACCESS:     693184  HIT:     693179  MISS:          5
BTB BRANCH_DIRECT_CALL	ACCESS:          0  HIT:          0  MISS:          0
BTB BRANCH_INDIRECT_CALL	ACCESS:          0  HIT:          0  MISS:          0
BTB BRANCH_RETURN	ACCESS:          0  HIT:          0  MISS:          0
BTB BRANCH_OTHER ACCESS:          0  HIT:          0  MISS:          0

L2C TOTAL     ACCESS:    6228312  HIT:    4166343  MISS:    2061969  HIT %:    66.8936  MISS %:    33.1064   MPKI: 41.2394
L2C LOAD      ACCESS:     507942  HIT:         14  MISS:     507928  HIT %: 0.00275622  MISS %:    99.9972   MPKI: 10.1586
L2C DATA LOAD MPKI: 10.1586
L2C INSTRUCTION LOAD MPKI: 0
L2C RFO       ACCESS:    2844308  HIT:    1294329  MISS:    1549979  HIT %:    45.5059  MISS %:    54.4941   MPKI: 30.9996
L2C WRITEBACK ACCESS:    2844307  HIT:    2844257  MISS:         50  HIT %:    99.9982  MISS %:  0.0017579   MPKI: 0.001
L2C LOAD TRANSLATION ACCESS:      31755  HIT:      27743  MISS:       4012  HIT %:    87.3658  MISS %:    12.6342   MPKI: 0.08024
L2C PREFETCH  REQUESTED:          0  ISSUED:          0  USEFUL:          0  USELESS:          0
L2C USEFUL LOAD PREFETCHES:          0 PREFETCH ISSUED TO LOWER LEVEL:          0  ACCURACY: -nan
L2C TIMELY PREFETCHES:          0 LATE PREFETCHES: 0 DROPPED PREFETCHES: 0
L2C PREFETCHES SAME FILL-ORIGIN LEVEL: 0 DIFFERENT FILL-ORIGIN LEVEL: 0
L2C AVERAGE MISS LATENCY: 1582.17 cycles
L2C RQ	ACCESS:    3384007	FORWARD:          0	MERGED:          0	TO_CACHE:    3384007
L2C WQ	ACCESS:    2844307	FORWARD:          0	MERGED:          0	TO_CACHE:    2844307

L2C Instructions Evicting Data 0
L2C Translations Evicting Data 3984
L2C Data Evicting Data 2053926
L2C Instructions Evicting Instructions 0
L2C Translations Evicting Instructions 0
L2C Data Evicting Instructions 0
L2C Instructions Evicting Translations 0
L2C Translations Evicting Translations 28
L2C Data Evicting Translations 3981
L2C Dense regions hint from L2: 0
PSCL5 TOTAL     ACCESS:      31753  HIT:      31753  MISS:          0  HIT %:        100  MISS %:          0   MPKI: 0
PSCL5 LOAD TRANSLATION ACCESS:      31753  HIT:      31753  MISS:          0  HIT %:        100  MISS %:          0   MPKI: 0
PSCL5 PREFETCH  REQUESTED:          0  ISSUED:          0  USEFUL:          0  USELESS:          0
PSCL5 USEFUL LOAD PREFETCHES:          0 PREFETCH ISSUED TO LOWER LEVEL:          0  ACCURACY: -nan
PSCL5 TIMELY PREFETCHES:          0 LATE PREFETCHES: 0 DROPPED PREFETCHES: 0
PSCL5 PREFETCHES SAME FILL-ORIGIN LEVEL: 0 DIFFERENT FILL-ORIGIN LEVEL: 0

PSCL4 TOTAL     ACCESS:      31753  HIT:      31753  MISS:          0  HIT %:        100  MISS %:          0   MPKI: 0
PSCL4 LOAD TRANSLATION ACCESS:      31753  HIT:      31753  MISS:          0  HIT %:        100  MISS %:          0   MPKI: 0
PSCL4 PREFETCH  REQUESTED:          0  ISSUED:          0  USEFUL:          0  USELESS:          0
PSCL4 USEFUL LOAD PREFETCHES:          0 PREFETCH ISSUED TO LOWER LEVEL:          0  ACCURACY: -nan
PSCL4 TIMELY PREFETCHES:          0 LATE PREFETCHES: 0 DROPPED PREFETCHES: 0
PSCL4 PREFETCHES SAME FILL-ORIGIN LEVEL: 0 DIFFERENT FILL-ORIGIN LEVEL: 0

PSCL3 TOTAL     ACCESS:      31753  HIT:      31753  MISS:          0  HIT %:        100  MISS %:          0   MPKI: 0
PSCL3 LOAD TRANSLATION ACCESS:      31753  HIT:      31753  MISS:          0  HIT %:        100  MISS %:          0   MPKI: 0
PSCL3 PREFETCH  REQUESTED:          0  ISSUED:          0  USEFUL:          0  USELESS:          0
PSCL3 USEFUL LOAD PREFETCHES:          0 PREFETCH ISSUED TO LOWER LEVEL:          0  ACCURACY: -nan
PSCL3 TIMELY PREFETCHES:          0 LATE PREFETCHES: 0 DROPPED PREFETCHES: 0
PSCL3 PREFETCHES SAME FILL-ORIGIN LEVEL: 0 DIFFERENT FILL-ORIGIN LEVEL: 0

PSCL2 TOTAL     ACCESS:      31753  HIT:      31719  MISS:         34  HIT %:    99.8929  MISS %:   0.107076   MPKI: 0.00068
PSCL2 LOAD TRANSLATION ACCESS:      31753  HIT:      31719  MISS:         34  HIT %:    99.8929  MISS %:   0.107076   MPKI: 0.00068
PSCL2 PREFETCH  REQUESTED:          0  ISSUED:          0  USEFUL:          0  USELESS:          0
PSCL2 USEFUL LOAD PREFETCHES:          0 PREFETCH ISSUED TO LOWER LEVEL:          0  ACCURACY: -nan
PSCL2 TIMELY PREFETCHES:          0 LATE PREFETCHES: 0 DROPPED PREFETCHES: 0
PSCL2 PREFETCHES SAME FILL-ORIGIN LEVEL: 0 DIFFERENT FILL-ORIGIN LEVEL: 0

LLC TOTAL     ACCESS:    3612307  HIT:    1576626  MISS:    2035681  HIT %:     43.646  MISS %:     56.354   MPKI: 40.7136
LLC LOAD      ACCESS:     507928  HIT:          3  MISS:     507925  HIT %: 0.000590635  MISS %:    99.9994   MPKI: 10.1585
LLC RFO       ACCESS:    1549974  HIT:      26280  MISS:    1523694  HIT %:    1.69551  MISS %:    98.3045   MPKI: 30.4739
LLC WRITEBACK ACCESS:    1550393  HIT:    1550343  MISS:         50  HIT %:    99.9968  MISS %: 0.00322499   MPKI: 0.001
LLC LOAD TRANSLATION ACCESS:       4012  HIT:          0  MISS:       4012  HIT %:          0  MISS %:        100   MPKI: 0.08024
LLC PREFETCH  REQUESTED:          0  ISSUED:          0  USEFUL:          0  USELESS:          0
LLC USEFUL LOAD PREFETCHES:          0 PREFETCH ISSUED TO LOWER LEVEL:          0  ACCURACY: -nan
LLC TIMELY PREFETCHES:          0 LATE PREFETCHES: 0 DROPPED PREFETCHES: 0
LLC PREFETCHES SAME FILL-ORIGIN LEVEL: 0 DIFFERENT FILL-ORIGIN LEVEL: 0
LLC AVERAGE MISS LATENCY: 1571.87 cycles
LLC RQ	ACCESS:    2061921	FORWARD:          0	MERGED:          0	TO_CACHE:    2061916
LLC WQ	ACCESS:    1550393	FORWARD:          5	MERGED:          0	TO_CACHE:    1550393

LLC Dense regions hint to LLC: 0

RAW hits: 1282732
Loads Generated: 12674904
Loads sent to L1D: 11392165
Stores Generated: 8740012
Stores sent to L1D: 8740015
Major fault: 0 Minor fault: 22569
Allocated PAGES: 22569

DRAM Statistics
 CHANNEL 0
 RQ ROW_BUFFER_HIT:      96055  ROW_BUFFER_MISS:    1939576
 DBUS_CONGESTED:    3364975
 WQ ROW_BUFFER_HIT:     266593  ROW_BUFFER_MISS:    1256701  FULL:          0

 AVG_CONGESTED_CYCLE: 76
 All warmup complete: 2
Channel 0 Bank busy for read cycles: 0
Channel 0 Bank busy for write cycles: 0
Channel 0
Rank 0
0banks busy for read cycles: 65158
0banks busy for write cycles: 0
1banks busy for read cycles: 7771525
1banks busy for write cycles: 189834
2banks busy for read cycles: 12431180
2banks busy for write cycles: 189812
3banks busy for read cycles: 12787194
3banks busy for write cycles: 189794
4banks busy for read cycles: 23982366
4banks busy for write cycles: 189793
5banks busy for read cycles: 31540638
5banks busy for write cycles: 189793
6banks busy for read cycles: 28085082
6banks busy for write cycles: 189973
7banks busy for read cycles: 33621954
7banks busy for write cycles: 1726260
8banks busy for read cycles: 30272736
8banks busy for write cycles: 128675318

CPU 0 Branch Prediction Accuracy: 95.9387% MPKI: 0.6505 Average ROB Occupancy at Mispredict: 222.192
Branch types
NOT_BRANCH: 49199041 98.3981%
BRANCH_DIRECT_JUMP: 107474 0.214948%
BRANCH_INDIRECT: 0 0%
BRANCH_CONDITIONAL: 693377 1.38675%
BRANCH_DIRECT_CALL: 0 0%
BRANCH_INDIRECT_CALL: 0 0%
BRANCH_RETURN: 0 0%
BRANCH_OTHER: 0 0%

@sumon_overall_L1D         0         0         0         0         0         0
@Sumon_Early_by_class_L1D         0         0         0         0
@Sumon_Late_by_class_L1D         0         0         0         0

@Sumon_Early_by_cycle_L1D         0         0         0         0         0         0         0         0         0         0         0         0
@Sumon_Late_by_cycle_L1D         0         0         0         0         0         0
@Sumon_Early_stream_L1D         0         0         0         0         0         0         0         0         0         0         0         0
@Sumon_Early_CS_L1D         0         0         0         0         0         0         0         0         0         0         0         0
@Sumon_Early_CPLX_L1D         0         0         0         0         0         0         0         0         0         0         0         0
@Sumon_Late_stream_L1D         0         0         0         0         0         0
@Sumon_Late_CS_L1D         0         0         0         0         0         0
@Sumon_Late_CPLX_L1D         0         0         0         0         0         0
@sumon_overall_L2C         0         0         0         0         0         0
@Sumon_Early_by_class_L2C         0         0         0         0
@Sumon_Late_by_class_L2C         0         0         0         0

@Sumon_Early_by_cycle_L2C         0         0         0         0         0         0         0         0         0         0         0         0
@Sumon_Late_by_cycle_L2C         0         0         0         0         0         0
@Sumon_Early_stream_L2C         0         0         0         0         0         0         0         0         0         0         0         0
@Sumon_Early_CS_L2C         0         0         0         0         0         0         0         0         0         0         0         0
@Sumon_Early_CPLX_L2C         0         0         0         0         0         0         0         0         0         0         0         0
@Sumon_Late_stream_L2C         0         0         0         0         0         0
@Sumon_Late_CS_L2C         0         0         0         0         0         0
@Sumon_Late_CPLX_L2C         0         0         0         0         0         0
DRAM PAGES: 1048576
Allocated PAGES: 22569
