
*** ChampSim Multicore Out-of-Order Simulator ***

Warmup Instructions: 10000000
Simulation Instructions: 50000000
Number of CPUs: 1
LLC sets: 2048
LLC ways: 16
Off-chip DRAM Size: 4096 MB Channels: 1 Width: 64-bit Data Rate: 400 MT/s
CPU 0 runs traces/SPEC2017/619.lbm_s-2677B.champsimtrace.xz
.xz
CPU 0 Bimodal branch predictor
BTB has LRU replacement policy
ITLB has LRU replacement policy
DTLB has LRU replacement policy
STLB has LRU replacement policy
L1I has LRU replacement policy
L1D has LRU replacement policy
L2C has LRU replacement policy
LLC has LRU replacement policy
Heartbeat CPU 0 instructions: 10000001 cycles: 2923001 heartbeat IPC: 3.42114 cumulative IPC: 3.42114 (Simulation time: 0 hr 8 min 26 sec) 

Warmup complete CPU 0 instructions: 10000001 cycles: 2923001 (Simulation time: 0 hr 8 min 26 sec) 

Heartbeat CPU 0 instructions: 20000002 cycles: 73854535 heartbeat IPC: 0.140981 cumulative IPC: 0.140981 (Simulation time: 0 hr 44 min 29 sec) 
Heartbeat CPU 0 instructions: 30000001 cycles: 146818929 heartbeat IPC: 0.137053 cumulative IPC: 0.138989 (Simulation time: 1 hr 13 min 43 sec) 
Heartbeat CPU 0 instructions: 40000003 cycles: 218835279 heartbeat IPC: 0.138857 cumulative IPC: 0.138945 (Simulation time: 1 hr 25 min 5 sec) 
Heartbeat CPU 0 instructions: 50000002 cycles: 292584961 heartbeat IPC: 0.135594 cumulative IPC: 0.138092 (Simulation time: 1 hr 30 min 16 sec) 
Heartbeat CPU 0 instructions: 60000001 cycles: 365663543 heartbeat IPC: 0.136839 cumulative IPC: 0.13784 (Simulation time: 1 hr 33 min 26 sec) 
Finished CPU 0 instructions: 50000000 cycles: 362740542 cumulative IPC: 0.13784 (Simulation time: 1 hr 33 min 26 sec) 

ChampSim completed all CPUs

Region of Interest Statistics

CPU 0 cumulative IPC: 0.13784 instructions: 50000000 cycles: 362740542
ITLB TOTAL     ACCESS:    6812306  HIT:    6812306  MISS:          0  HIT %:        100  MISS %:          0   MPKI: 0
ITLB LOAD TRANSLATION ACCESS:    6812306  HIT:    6812306  MISS:          0  HIT %:        100  MISS %:          0   MPKI: 0
ITLB PREFETCH  REQUESTED:          0  ISSUED:          0  USEFUL:          0  USELESS:          0
ITLB USEFUL LOAD PREFETCHES:          0 PREFETCH ISSUED TO LOWER LEVEL:          0  ACCURACY: -nan
ITLB TIMELY PREFETCHES:          0 LATE PREFETCHES: 0 DROPPED PREFETCHES: 0
ITLB PREFETCHES SAME FILL-ORIGIN LEVEL: 0 DIFFERENT FILL-ORIGIN LEVEL: 0
ITLB AVERAGE MISS LATENCY: -nan cycles
ITLB RQ	ACCESS:    8787825	FORWARD:          0	MERGED:    1975520	TO_CACHE:    6812305

DTLB TOTAL     ACCESS:    8601514  HIT:    8533498  MISS:      68016  HIT %:    99.2093  MISS %:   0.790745   MPKI: 1.36032
DTLB LOAD TRANSLATION ACCESS:    8601514  HIT:    8533498  MISS:      68016  HIT %:    99.2093  MISS %:   0.790745   MPKI: 1.36032
DTLB PREFETCH  REQUESTED:          0  ISSUED:          0  USEFUL:          0  USELESS:          0
DTLB USEFUL LOAD PREFETCHES:          0 PREFETCH ISSUED TO LOWER LEVEL:          0  ACCURACY: -nan
DTLB TIMELY PREFETCHES:          0 LATE PREFETCHES: 0 DROPPED PREFETCHES: 0
DTLB PREFETCHES SAME FILL-ORIGIN LEVEL: 0 DIFFERENT FILL-ORIGIN LEVEL: 0
DTLB AVERAGE MISS LATENCY: 204.144 cycles
DTLB RQ	ACCESS:   13348914	FORWARD:          0	MERGED:    4722177	TO_CACHE:    8626737

STLB TOTAL     ACCESS:      68016  HIT:      31108  MISS:      36908  HIT %:    45.7363  MISS %:    54.2637   MPKI: 0.73816
STLB LOAD TRANSLATION ACCESS:      68016  HIT:      31108  MISS:      36908  HIT %:    45.7363  MISS %:    54.2637   MPKI: 0.73816
STLB PREFETCH  REQUESTED:          0  ISSUED:          0  USEFUL:          0  USELESS:          0
STLB USEFUL LOAD PREFETCHES:          0 PREFETCH ISSUED TO LOWER LEVEL:          0  ACCURACY: -nan
STLB TIMELY PREFETCHES:          0 LATE PREFETCHES: 0 DROPPED PREFETCHES: 0
STLB PREFETCHES SAME FILL-ORIGIN LEVEL: 0 DIFFERENT FILL-ORIGIN LEVEL: 0
STLB AVERAGE MISS LATENCY: 359.366 cycles
STLB RQ	ACCESS:      68016	FORWARD:          0	MERGED:          0	TO_CACHE:      68016

STLB Hit, L1D data hit: 0
STLB Hit, L2C data hit: 0
STLB Hit, LLC data hit: 0
STLB Hit, LLC data miss: 0
STLB STLB hints to L2: 0
L1D TOTAL     ACCESS:   13063986  HIT:    9167636  MISS:    3896350  HIT %:    70.1749  MISS %:    29.8251   MPKI: 77.927
L1D LOAD      ACCESS:    3964631  HIT:    3374241  MISS:     590390  HIT %:    85.1086  MISS %:    14.8914   MPKI: 11.8078
L1D RFO       ACCESS:    9099355  HIT:    5793395  MISS:    3305960  HIT %:    63.6682  MISS %:    36.3318   MPKI: 66.1192
L1D PREFETCH  REQUESTED:          0  ISSUED:          0  USEFUL:          0  USELESS:          0
L1D USEFUL LOAD PREFETCHES:          0 PREFETCH ISSUED TO LOWER LEVEL:          0  ACCURACY: -nan
L1D TIMELY PREFETCHES:          0 LATE PREFETCHES: 0 DROPPED PREFETCHES: 0
L1D PREFETCHES SAME FILL-ORIGIN LEVEL: 0 DIFFERENT FILL-ORIGIN LEVEL: 0
L1D AVERAGE MISS LATENCY: 1038.29 cycles
L1D RQ	ACCESS:   11776202	FORWARD:          0	MERGED:    7274881	TO_CACHE:    4187081
L1D WQ	ACCESS:    9189247	FORWARD:     314240	MERGED:      27414	TO_CACHE:    9161833

L1D UNIQUE REGIONS ACCESSED: 0
L1D REGIONS CONFLICTS: 0
L1D Cross Page Prefetch Requests: 0
L1D Same Page Prefetch Requests: 0
L1D ROI Sum of L1D PQ occupancy: 0
L1D PREFETCHES PUSHED FROM L2C: 0
L1I TOTAL     ACCESS:    8787827  HIT:    8787827  MISS:          0  HIT %:        100  MISS %:          0   MPKI: 0
L1I LOAD      ACCESS:    8787827  HIT:    8787827  MISS:          0  HIT %:        100  MISS %:          0   MPKI: 0
L1I PREFETCH  REQUESTED:          0  ISSUED:          0  USEFUL:          0  USELESS:          0
L1I USEFUL LOAD PREFETCHES:          0 PREFETCH ISSUED TO LOWER LEVEL:          0  ACCURACY: -nan
L1I TIMELY PREFETCHES:          0 LATE PREFETCHES: 0 DROPPED PREFETCHES: 0
L1I PREFETCHES SAME FILL-ORIGIN LEVEL: 0 DIFFERENT FILL-ORIGIN LEVEL: 0
L1I AVERAGE MISS LATENCY: -nan cycles
L1I RQ	ACCESS:   12818311	FORWARD:          0	MERGED:    4030486	TO_CACHE:    8787825

BTB TOTAL     ACCESS:     892810  HIT:     892804  MISS:          6  HIT %:    99.9993  MISS %: 0.000672035   MPKI: 0.00012
BTB BRANCH_DIRECT_JUMP	ACCESS:     143919  HIT:     143918  MISS:          1
BTB BRANCH_INDIRECT	ACCESS:          0  HIT:          0  MISS:          0
BTB BRANCH_CONDITIONAL	ACCESS:     748891  HIT:     748886  MISS:          5
BTB BRANCH_DIRECT_CALL	ACCESS:          0  HIT:          0  MISS:          0
BTB BRANCH_INDIRECT_CALL	ACCESS:          0  HIT:          0  MISS:          0
BTB BRANCH_RETURN	ACCESS:          0  HIT:          0  MISS:          0
BTB BRANCH_OTHER ACCESS:          0  HIT:          0  MISS:          0

L2C TOTAL     ACCESS:    7239220  HIT:    4858655  MISS:    2380565  HIT %:    67.1157  MISS %:    32.8843   MPKI: 47.6113
L2C LOAD      ACCESS:     590389  HIT:          5  MISS:     590384  HIT %: 0.000846899  MISS %:    99.9992   MPKI: 11.8077
L2C DATA LOAD MPKI: 11.8077
L2C INSTRUCTION LOAD MPKI: 0
L2C RFO       ACCESS:    3305960  HIT:    1520547  MISS:    1785413  HIT %:    45.9941  MISS %:    54.0059   MPKI: 35.7083
L2C WRITEBACK ACCESS:    3305961  HIT:    3305855  MISS:        106  HIT %:    99.9968  MISS %: 0.00320633   MPKI: 0.00212
L2C LOAD TRANSLATION ACCESS:      36910  HIT:      32248  MISS:       4662  HIT %:    87.3693  MISS %:    12.6307   MPKI: 0.09324
L2C PREFETCH  REQUESTED:          0  ISSUED:          0  USEFUL:          0  USELESS:          0
L2C USEFUL LOAD PREFETCHES:          0 PREFETCH ISSUED TO LOWER LEVEL:          0  ACCURACY: -nan
L2C TIMELY PREFETCHES:          0 LATE PREFETCHES: 0 DROPPED PREFETCHES: 0
L2C PREFETCHES SAME FILL-ORIGIN LEVEL: 0 DIFFERENT FILL-ORIGIN LEVEL: 0
L2C AVERAGE MISS LATENCY: 1676.89 cycles
L2C RQ	ACCESS:    3933255	FORWARD:          0	MERGED:          0	TO_CACHE:    3933255
L2C WQ	ACCESS:    3305961	FORWARD:          0	MERGED:          0	TO_CACHE:    3305961

L2C Instructions Evicting Data 0
L2C Translations Evicting Data 4662
L2C Data Evicting Data 2371138
L2C Instructions Evicting Instructions 0
L2C Translations Evicting Instructions 0
L2C Data Evicting Instructions 0
L2C Instructions Evicting Translations 0
L2C Translations Evicting Translations 0
L2C Data Evicting Translations 4659
L2C Dense regions hint from L2: 0
PSCL5 TOTAL     ACCESS:      36908  HIT:      36908  MISS:          0  HIT %:        100  MISS %:          0   MPKI: 0
PSCL5 LOAD TRANSLATION ACCESS:      36908  HIT:      36908  MISS:          0  HIT %:        100  MISS %:          0   MPKI: 0
PSCL5 PREFETCH  REQUESTED:          0  ISSUED:          0  USEFUL:          0  USELESS:          0
PSCL5 USEFUL LOAD PREFETCHES:          0 PREFETCH ISSUED TO LOWER LEVEL:          0  ACCURACY: -nan
PSCL5 TIMELY PREFETCHES:          0 LATE PREFETCHES: 0 DROPPED PREFETCHES: 0
PSCL5 PREFETCHES SAME FILL-ORIGIN LEVEL: 0 DIFFERENT FILL-ORIGIN LEVEL: 0

PSCL4 TOTAL     ACCESS:      36908  HIT:      36908  MISS:          0  HIT %:        100  MISS %:          0   MPKI: 0
PSCL4 LOAD TRANSLATION ACCESS:      36908  HIT:      36908  MISS:          0  HIT %:        100  MISS %:          0   MPKI: 0
PSCL4 PREFETCH  REQUESTED:          0  ISSUED:          0  USEFUL:          0  USELESS:          0
PSCL4 USEFUL LOAD PREFETCHES:          0 PREFETCH ISSUED TO LOWER LEVEL:          0  ACCURACY: -nan
PSCL4 TIMELY PREFETCHES:          0 LATE PREFETCHES: 0 DROPPED PREFETCHES: 0
PSCL4 PREFETCHES SAME FILL-ORIGIN LEVEL: 0 DIFFERENT FILL-ORIGIN LEVEL: 0

PSCL3 TOTAL     ACCESS:      36908  HIT:      36908  MISS:          0  HIT %:        100  MISS %:          0   MPKI: 0
PSCL3 LOAD TRANSLATION ACCESS:      36908  HIT:      36908  MISS:          0  HIT %:        100  MISS %:          0   MPKI: 0
PSCL3 PREFETCH  REQUESTED:          0  ISSUED:          0  USEFUL:          0  USELESS:          0
PSCL3 USEFUL LOAD PREFETCHES:          0 PREFETCH ISSUED TO LOWER LEVEL:          0  ACCURACY: -nan
PSCL3 TIMELY PREFETCHES:          0 LATE PREFETCHES: 0 DROPPED PREFETCHES: 0
PSCL3 PREFETCHES SAME FILL-ORIGIN LEVEL: 0 DIFFERENT FILL-ORIGIN LEVEL: 0

PSCL2 TOTAL     ACCESS:      36908  HIT:      36870  MISS:         38  HIT %:     99.897  MISS %:   0.102959   MPKI: 0.00076
PSCL2 LOAD TRANSLATION ACCESS:      36908  HIT:      36870  MISS:         38  HIT %:     99.897  MISS %:   0.102959   MPKI: 0.00076
PSCL2 PREFETCH  REQUESTED:          0  ISSUED:          0  USEFUL:          0  USELESS:          0
PSCL2 USEFUL LOAD PREFETCHES:          0 PREFETCH ISSUED TO LOWER LEVEL:          0  ACCURACY: -nan
PSCL2 TIMELY PREFETCHES:          0 LATE PREFETCHES: 0 DROPPED PREFETCHES: 0
PSCL2 PREFETCHES SAME FILL-ORIGIN LEVEL: 0 DIFFERENT FILL-ORIGIN LEVEL: 0

LLC TOTAL     ACCESS:    4166295  HIT:    1800189  MISS:    2366106  HIT %:    43.2084  MISS %:    56.7916   MPKI: 47.3221
LLC LOAD      ACCESS:     590384  HIT:         14  MISS:     590370  HIT %: 0.00237134  MISS %:    99.9976   MPKI: 11.8074
LLC RFO       ACCESS:    1785400  HIT:      14414  MISS:    1770986  HIT %:   0.807326  MISS %:    99.1927   MPKI: 35.4197
LLC WRITEBACK ACCESS:    1785849  HIT:    1785761  MISS:         88  HIT %:    99.9951  MISS %: 0.00492763   MPKI: 0.00176
LLC LOAD TRANSLATION ACCESS:       4662  HIT:          0  MISS:       4662  HIT %:          0  MISS %:        100   MPKI: 0.09324
LLC PREFETCH  REQUESTED:          0  ISSUED:          0  USEFUL:          0  USELESS:          0
LLC USEFUL LOAD PREFETCHES:          0 PREFETCH ISSUED TO LOWER LEVEL:          0  ACCURACY: -nan
LLC TIMELY PREFETCHES:          0 LATE PREFETCHES: 0 DROPPED PREFETCHES: 0
LLC PREFETCHES SAME FILL-ORIGIN LEVEL: 0 DIFFERENT FILL-ORIGIN LEVEL: 0
LLC AVERAGE MISS LATENCY: 1656.61 cycles
LLC RQ	ACCESS:    2380458	FORWARD:          0	MERGED:          0	TO_CACHE:    2380445
LLC WQ	ACCESS:    1785848	FORWARD:         13	MERGED:          0	TO_CACHE:    1785848

LLC Dense regions hint to LLC: 0

RAW hits: 1245396
Loads Generated: 13021597
Loads sent to L1D: 11776202
Stores Generated: 9189245
Stores sent to L1D: 9189247
Major fault: 0 Minor fault: 25372
Allocated PAGES: 25372

DRAM Statistics
 CHANNEL 0
 RQ ROW_BUFFER_HIT:     112004  ROW_BUFFER_MISS:    2254013
 DBUS_CONGESTED:    3917115
 WQ ROW_BUFFER_HIT:     286424  ROW_BUFFER_MISS:    1484527  FULL:          0

 AVG_CONGESTED_CYCLE: 77
 All warmup complete: 2
Channel 0 Bank busy for read cycles: 0
Channel 0 Bank busy for write cycles: 0
Channel 0
Rank 0
0banks busy for read cycles: 66258
0banks busy for write cycles: 0
1banks busy for read cycles: 7853450
1banks busy for write cycles: 216924
2banks busy for read cycles: 12029243
2banks busy for write cycles: 216888
3banks busy for read cycles: 13068371
3banks busy for write cycles: 216854
4banks busy for read cycles: 24265707
4banks busy for write cycles: 216852
5banks busy for read cycles: 32469423
5banks busy for write cycles: 216851
6banks busy for read cycles: 34535009
6banks busy for write cycles: 217163
7banks busy for read cycles: 45035632
7banks busy for write cycles: 2004080
8banks busy for read cycles: 40174263
8banks busy for write cycles: 149937575

CPU 0 Branch Prediction Accuracy: 94.966% MPKI: 0.89888 Average ROB Occupancy at Mispredict: 223.96
Branch types
NOT_BRANCH: 49107187 98.2144%
BRANCH_DIRECT_JUMP: 143919 0.287838%
BRANCH_INDIRECT: 0 0%
BRANCH_CONDITIONAL: 748893 1.49779%
BRANCH_DIRECT_CALL: 0 0%
BRANCH_INDIRECT_CALL: 0 0%
BRANCH_RETURN: 0 0%
BRANCH_OTHER: 0 0%

@sumon_overall_L1D         0         0         0         0         0         0
@Sumon_Early_by_class_L1D         0         0         0         0
@Sumon_Late_by_class_L1D         0         0         0         0

@Sumon_Early_by_cycle_L1D         0         0         0         0         0         0         0         0         0         0         0         0
@Sumon_Late_by_cycle_L1D         0         0         0         0         0         0
@Sumon_Early_stream_L1D         0         0         0         0         0         0         0         0         0         0         0         0
@Sumon_Early_CS_L1D         0         0         0         0         0         0         0         0         0         0         0         0
@Sumon_Early_CPLX_L1D         0         0         0         0         0         0         0         0         0         0         0         0
@Sumon_Late_stream_L1D         0         0         0         0         0         0
@Sumon_Late_CS_L1D         0         0         0         0         0         0
@Sumon_Late_CPLX_L1D         0         0         0         0         0         0
@sumon_overall_L2C         0         0         0         0         0         0
@Sumon_Early_by_class_L2C         0         0         0         0
@Sumon_Late_by_class_L2C         0         0         0         0

@Sumon_Early_by_cycle_L2C         0         0         0         0         0         0         0         0         0         0         0         0
@Sumon_Late_by_cycle_L2C         0         0         0         0         0         0
@Sumon_Early_stream_L2C         0         0         0         0         0         0         0         0         0         0         0         0
@Sumon_Early_CS_L2C         0         0         0         0         0         0         0         0         0         0         0         0
@Sumon_Early_CPLX_L2C         0         0         0         0         0         0         0         0         0         0         0         0
@Sumon_Late_stream_L2C         0         0         0         0         0         0
@Sumon_Late_CS_L2C         0         0         0         0         0         0
@Sumon_Late_CPLX_L2C         0         0         0         0         0         0
DRAM PAGES: 1048576
Allocated PAGES: 25372
