
*** ChampSim Multicore Out-of-Order Simulator ***

Warmup Instructions: 10000000
Simulation Instructions: 50000000
Number of CPUs: 1
LLC sets: 2048
LLC ways: 16
Off-chip DRAM Size: 4096 MB Channels: 1 Width: 64-bit Data Rate: 400 MT/s
CPU 0 runs traces/SPEC2017/620.omnetpp_s-874B.champsimtrace.xz
.xz
CPU 0 Bimodal branch predictor
BTB has LRU replacement policy
ITLB has LRU replacement policy
DTLB has LRU replacement policy
STLB has LRU replacement policy
L1I has LRU replacement policy
L1D has LRU replacement policy
L2C has LRU replacement policy
LLC has LRU replacement policy
Heartbeat CPU 0 instructions: 10000001 cycles: 3904952 heartbeat IPC: 2.56085 cumulative IPC: 2.56085 (Simulation time: 0 hr 10 min 35 sec) 

Warmup complete CPU 0 instructions: 10000001 cycles: 3904952 (Simulation time: 0 hr 10 min 35 sec) 

Heartbeat CPU 0 instructions: 20000000 cycles: 51150005 heartbeat IPC: 0.211662 cumulative IPC: 0.211662 (Simulation time: 0 hr 24 min 16 sec) 
Heartbeat CPU 0 instructions: 30000002 cycles: 98417688 heartbeat IPC: 0.211561 cumulative IPC: 0.211612 (Simulation time: 0 hr 37 min 55 sec) 
Heartbeat CPU 0 instructions: 40000000 cycles: 146044053 heartbeat IPC: 0.209968 cumulative IPC: 0.211061 (Simulation time: 0 hr 52 min 12 sec) 
Heartbeat CPU 0 instructions: 50000001 cycles: 193755445 heartbeat IPC: 0.209594 cumulative IPC: 0.210692 (Simulation time: 1 hr 4 min 26 sec) 
Heartbeat CPU 0 instructions: 60000001 cycles: 241152604 heartbeat IPC: 0.210983 cumulative IPC: 0.21075 (Simulation time: 1 hr 13 min 31 sec) 
Finished CPU 0 instructions: 50000000 cycles: 237247652 cumulative IPC: 0.21075 (Simulation time: 1 hr 13 min 31 sec) 

ChampSim completed all CPUs

Region of Interest Statistics

CPU 0 cumulative IPC: 0.21075 instructions: 50000000 cycles: 237247652
ITLB TOTAL     ACCESS:    8265840  HIT:    8186213  MISS:      79627  HIT %:    99.0367  MISS %:   0.963326   MPKI: 1.59254
ITLB LOAD TRANSLATION ACCESS:    8265840  HIT:    8186213  MISS:      79627  HIT %:    99.0367  MISS %:   0.963326   MPKI: 1.59254
ITLB PREFETCH  REQUESTED:          0  ISSUED:          0  USEFUL:          0  USELESS:          0
ITLB USEFUL LOAD PREFETCHES:          0 PREFETCH ISSUED TO LOWER LEVEL:          0  ACCURACY: -nan
ITLB TIMELY PREFETCHES:          0 LATE PREFETCHES: 0 DROPPED PREFETCHES: 0
ITLB PREFETCHES SAME FILL-ORIGIN LEVEL: 0 DIFFERENT FILL-ORIGIN LEVEL: 0
ITLB AVERAGE MISS LATENCY: 9.85177 cycles
ITLB RQ	ACCESS:    9321047	FORWARD:          0	MERGED:    1030848	TO_CACHE:    8290199

DTLB TOTAL     ACCESS:   19491144  HIT:   18531868  MISS:     959276  HIT %:    95.0784  MISS %:     4.9216   MPKI: 19.1855
DTLB LOAD TRANSLATION ACCESS:   19491144  HIT:   18531868  MISS:     959276  HIT %:    95.0784  MISS %:     4.9216   MPKI: 19.1855
DTLB PREFETCH  REQUESTED:          0  ISSUED:          0  USEFUL:          0  USELESS:          0
DTLB USEFUL LOAD PREFETCHES:          0 PREFETCH ISSUED TO LOWER LEVEL:          0  ACCURACY: -nan
DTLB TIMELY PREFETCHES:          0 LATE PREFETCHES: 0 DROPPED PREFETCHES: 0
DTLB PREFETCHES SAME FILL-ORIGIN LEVEL: 0 DIFFERENT FILL-ORIGIN LEVEL: 0
DTLB AVERAGE MISS LATENCY: 28.9297 cycles
DTLB RQ	ACCESS:   21995644	FORWARD:          0	MERGED:    2489207	TO_CACHE:   19506437

STLB TOTAL     ACCESS:    1038903  HIT:     823135  MISS:     215768  HIT %:    79.2312  MISS %:    20.7688   MPKI: 4.31536
STLB LOAD TRANSLATION ACCESS:    1038903  HIT:     823135  MISS:     215768  HIT %:    79.2312  MISS %:    20.7688   MPKI: 4.31536
STLB PREFETCH  REQUESTED:          0  ISSUED:          0  USEFUL:          0  USELESS:          0
STLB USEFUL LOAD PREFETCHES:          0 PREFETCH ISSUED TO LOWER LEVEL:          0  ACCURACY: -nan
STLB TIMELY PREFETCHES:          0 LATE PREFETCHES: 0 DROPPED PREFETCHES: 0
STLB PREFETCHES SAME FILL-ORIGIN LEVEL: 0 DIFFERENT FILL-ORIGIN LEVEL: 0
STLB AVERAGE MISS LATENCY: 88.6481 cycles
STLB RQ	ACCESS:    1038904	FORWARD:          0	MERGED:          0	TO_CACHE:    1038904

STLB Hit, L1D data hit: 0
STLB Hit, L2C data hit: 0
STLB Hit, LLC data hit: 0
STLB Hit, LLC data miss: 0
STLB STLB hints to L2: 0
L1D TOTAL     ACCESS:   21710095  HIT:   20793576  MISS:     916519  HIT %:    95.7784  MISS %:    4.22163   MPKI: 18.3304
L1D LOAD      ACCESS:   12690404  HIT:   11897553  MISS:     792851  HIT %:    93.7524  MISS %:    6.24764   MPKI: 15.857
L1D RFO       ACCESS:    9019691  HIT:    8896023  MISS:     123668  HIT %:    98.6289  MISS %:    1.37109   MPKI: 2.47336
L1D PREFETCH  REQUESTED:          0  ISSUED:          0  USEFUL:          0  USELESS:          0
L1D USEFUL LOAD PREFETCHES:          0 PREFETCH ISSUED TO LOWER LEVEL:          0  ACCURACY: -nan
L1D TIMELY PREFETCHES:          0 LATE PREFETCHES: 0 DROPPED PREFETCHES: 0
L1D PREFETCHES SAME FILL-ORIGIN LEVEL: 0 DIFFERENT FILL-ORIGIN LEVEL: 0
L1D AVERAGE MISS LATENCY: 130.921 cycles
L1D RQ	ACCESS:   16210325	FORWARD:          0	MERGED:    2801702	TO_CACHE:   12793314
L1D WQ	ACCESS:    9281775	FORWARD:     615309	MERGED:      79445	TO_CACHE:    9202330

L1D UNIQUE REGIONS ACCESSED: 0
L1D REGIONS CONFLICTS: 0
L1D Cross Page Prefetch Requests: 0
L1D Same Page Prefetch Requests: 0
L1D ROI Sum of L1D PQ occupancy: 0
L1D PREFETCHES PUSHED FROM L2C: 0
L1I TOTAL     ACCESS:    9314586  HIT:    9296012  MISS:      18574  HIT %:    99.8006  MISS %:   0.199408   MPKI: 0.37148
L1I LOAD      ACCESS:    9314586  HIT:    9296012  MISS:      18574  HIT %:    99.8006  MISS %:   0.199408   MPKI: 0.37148
L1I PREFETCH  REQUESTED:          0  ISSUED:          0  USEFUL:          0  USELESS:          0
L1I USEFUL LOAD PREFETCHES:          0 PREFETCH ISSUED TO LOWER LEVEL:          0  ACCURACY: -nan
L1I TIMELY PREFETCHES:          0 LATE PREFETCHES: 0 DROPPED PREFETCHES: 0
L1I PREFETCHES SAME FILL-ORIGIN LEVEL: 0 DIFFERENT FILL-ORIGIN LEVEL: 0
L1I AVERAGE MISS LATENCY: 27.4021 cycles
L1I RQ	ACCESS:   14346584	FORWARD:          0	MERGED:    5025537	TO_CACHE:    9321047

BTB TOTAL     ACCESS:    7896296  HIT:    7421687  MISS:     474609  HIT %:    93.9895  MISS %:    6.01053   MPKI: 9.49218
BTB BRANCH_DIRECT_JUMP	ACCESS:     569513  HIT:     569409  MISS:        104
BTB BRANCH_INDIRECT	ACCESS:     168336  HIT:     146852  MISS:      21484
BTB BRANCH_CONDITIONAL	ACCESS:    4189086  HIT:    4188659  MISS:        427
BTB BRANCH_DIRECT_CALL	ACCESS:     886019  HIT:     885794  MISS:        225
BTB BRANCH_INDIRECT_CALL	ACCESS:     598662  HIT:     596661  MISS:       2001
BTB BRANCH_RETURN	ACCESS:    1484680  HIT:    1034312  MISS:     450368
BTB BRANCH_OTHER ACCESS:          0  HIT:          0  MISS:          0

L2C TOTAL     ACCESS:    1695754  HIT:     933188  MISS:     762566  HIT %:    55.0309  MISS %:    44.9691   MPKI: 15.2513
L2C LOAD      ACCESS:     811419  HIT:     253989  MISS:     557430  HIT %:    31.3018  MISS %:    68.6982   MPKI: 11.1486
L2C DATA LOAD MPKI: 11.0835
L2C INSTRUCTION LOAD MPKI: 0.06514
L2C RFO       ACCESS:     123668  HIT:      33592  MISS:      90076  HIT %:     27.163  MISS %:     72.837   MPKI: 1.80152
L2C WRITEBACK ACCESS:     455035  HIT:     454353  MISS:        682  HIT %:    99.8501  MISS %:   0.149879   MPKI: 0.01364
L2C LOAD TRANSLATION ACCESS:     305632  HIT:     191254  MISS:     114378  HIT %:    62.5766  MISS %:    37.4234   MPKI: 2.28756
L2C PREFETCH  REQUESTED:          0  ISSUED:          0  USEFUL:          0  USELESS:          0
L2C USEFUL LOAD PREFETCHES:          0 PREFETCH ISSUED TO LOWER LEVEL:          0  ACCURACY: -nan
L2C TIMELY PREFETCHES:          0 LATE PREFETCHES: 0 DROPPED PREFETCHES: 0
L2C PREFETCHES SAME FILL-ORIGIN LEVEL: 0 DIFFERENT FILL-ORIGIN LEVEL: 0
L2C AVERAGE MISS LATENCY: 152.433 cycles
L2C RQ	ACCESS:    1240725	FORWARD:          0	MERGED:          0	TO_CACHE:    1240719
L2C WQ	ACCESS:     455035	FORWARD:          6	MERGED:          0	TO_CACHE:     455035

L2C Instructions Evicting Data 2642
L2C Translations Evicting Data 96019
L2C Data Evicting Data 545559
L2C Instructions Evicting Instructions 303
L2C Translations Evicting Instructions 338
L2C Data Evicting Instructions 2618
L2C Instructions Evicting Translations 312
L2C Translations Evicting Translations 18021
L2C Data Evicting Translations 96072
L2C Dense regions hint from L2: 0
PSCL5 TOTAL     ACCESS:     215768  HIT:     215768  MISS:          0  HIT %:        100  MISS %:          0   MPKI: 0
PSCL5 LOAD TRANSLATION ACCESS:     215768  HIT:     215768  MISS:          0  HIT %:        100  MISS %:          0   MPKI: 0
PSCL5 PREFETCH  REQUESTED:          0  ISSUED:          0  USEFUL:          0  USELESS:          0
PSCL5 USEFUL LOAD PREFETCHES:          0 PREFETCH ISSUED TO LOWER LEVEL:          0  ACCURACY: -nan
PSCL5 TIMELY PREFETCHES:          0 LATE PREFETCHES: 0 DROPPED PREFETCHES: 0
PSCL5 PREFETCHES SAME FILL-ORIGIN LEVEL: 0 DIFFERENT FILL-ORIGIN LEVEL: 0

PSCL4 TOTAL     ACCESS:     215768  HIT:     215768  MISS:          0  HIT %:        100  MISS %:          0   MPKI: 0
PSCL4 LOAD TRANSLATION ACCESS:     215768  HIT:     215768  MISS:          0  HIT %:        100  MISS %:          0   MPKI: 0
PSCL4 PREFETCH  REQUESTED:          0  ISSUED:          0  USEFUL:          0  USELESS:          0
PSCL4 USEFUL LOAD PREFETCHES:          0 PREFETCH ISSUED TO LOWER LEVEL:          0  ACCURACY: -nan
PSCL4 TIMELY PREFETCHES:          0 LATE PREFETCHES: 0 DROPPED PREFETCHES: 0
PSCL4 PREFETCHES SAME FILL-ORIGIN LEVEL: 0 DIFFERENT FILL-ORIGIN LEVEL: 0

PSCL3 TOTAL     ACCESS:     215768  HIT:     215768  MISS:          0  HIT %:        100  MISS %:          0   MPKI: 0
PSCL3 LOAD TRANSLATION ACCESS:     215768  HIT:     215768  MISS:          0  HIT %:        100  MISS %:          0   MPKI: 0
PSCL3 PREFETCH  REQUESTED:          0  ISSUED:          0  USEFUL:          0  USELESS:          0
PSCL3 USEFUL LOAD PREFETCHES:          0 PREFETCH ISSUED TO LOWER LEVEL:          0  ACCURACY: -nan
PSCL3 TIMELY PREFETCHES:          0 LATE PREFETCHES: 0 DROPPED PREFETCHES: 0
PSCL3 PREFETCHES SAME FILL-ORIGIN LEVEL: 0 DIFFERENT FILL-ORIGIN LEVEL: 0

PSCL2 TOTAL     ACCESS:     215768  HIT:     125904  MISS:      89864  HIT %:    58.3516  MISS %:    41.6484   MPKI: 1.79728
PSCL2 LOAD TRANSLATION ACCESS:     215768  HIT:     125904  MISS:      89864  HIT %:    58.3516  MISS %:    41.6484   MPKI: 1.79728
PSCL2 PREFETCH  REQUESTED:          0  ISSUED:          0  USEFUL:          0  USELESS:          0
PSCL2 USEFUL LOAD PREFETCHES:          0 PREFETCH ISSUED TO LOWER LEVEL:          0  ACCURACY: -nan
PSCL2 TIMELY PREFETCHES:          0 LATE PREFETCHES: 0 DROPPED PREFETCHES: 0
PSCL2 PREFETCHES SAME FILL-ORIGIN LEVEL: 0 DIFFERENT FILL-ORIGIN LEVEL: 0

LLC TOTAL     ACCESS:    1086817  HIT:     577777  MISS:     509040  HIT %:    53.1623  MISS %:    46.8377   MPKI: 10.1808
LLC LOAD      ACCESS:     557430  HIT:     132939  MISS:     424491  HIT %:    23.8486  MISS %:    76.1514   MPKI: 8.48982
LLC RFO       ACCESS:      90076  HIT:      42567  MISS:      47509  HIT %:    47.2568  MISS %:    52.7432   MPKI: 0.95018
LLC WRITEBACK ACCESS:     324933  HIT:     323829  MISS:       1104  HIT %:    99.6602  MISS %:   0.339762   MPKI: 0.02208
LLC LOAD TRANSLATION ACCESS:     114378  HIT:      78442  MISS:      35936  HIT %:    68.5814  MISS %:    31.4186   MPKI: 0.71872
LLC PREFETCH  REQUESTED:          0  ISSUED:          0  USEFUL:          0  USELESS:          0
LLC USEFUL LOAD PREFETCHES:          0 PREFETCH ISSUED TO LOWER LEVEL:          0  ACCURACY: -nan
LLC TIMELY PREFETCHES:          0 LATE PREFETCHES: 0 DROPPED PREFETCHES: 0
LLC PREFETCHES SAME FILL-ORIGIN LEVEL: 0 DIFFERENT FILL-ORIGIN LEVEL: 0
LLC AVERAGE MISS LATENCY: 183.097 cycles
LLC RQ	ACCESS:     761884	FORWARD:          0	MERGED:          0	TO_CACHE:     761884
LLC WQ	ACCESS:     324933	FORWARD:          0	MERGED:          0	TO_CACHE:     324933

LLC Dense regions hint to LLC: 0

RAW hits: 678735
Loads Generated: 16889060
Loads sent to L1D: 16210325
Stores Generated: 9281774
Stores sent to L1D: 9281775
Major fault: 0 Minor fault: 45883
Allocated PAGES: 45883

DRAM Statistics
 CHANNEL 0
 RQ ROW_BUFFER_HIT:      47395  ROW_BUFFER_MISS:     460540
 DBUS_CONGESTED:     317354
 WQ ROW_BUFFER_HIT:      65539  ROW_BUFFER_MISS:     160991  FULL:          0

 AVG_CONGESTED_CYCLE: 61
 All warmup complete: 2
Channel 0 Bank busy for read cycles: 0
Channel 0 Bank busy for write cycles: 0
Channel 0
Rank 0
0banks busy for read cycles: 137207439
0banks busy for write cycles: 113079
1banks busy for read cycles: 48609549
1banks busy for write cycles: 20454695
2banks busy for read cycles: 10612861
2banks busy for write cycles: 9671347
3banks busy for read cycles: 2986207
3banks busy for write cycles: 4302250
4banks busy for read cycles: 725633
4banks busy for write cycles: 1712413
5banks busy for read cycles: 24061
5banks busy for write cycles: 600141
6banks busy for read cycles: 1951
6banks busy for write cycles: 178920
7banks busy for read cycles: 1261
7banks busy for write cycles: 37179
8banks busy for read cycles: 594
8banks busy for write cycles: 8073

CPU 0 Branch Prediction Accuracy: 95.851% MPKI: 8.63412 Average ROB Occupancy at Mispredict: 29.547
Branch types
NOT_BRANCH: 39594523 79.189%
BRANCH_DIRECT_JUMP: 569513 1.13903%
BRANCH_INDIRECT: 168336 0.336672%
BRANCH_CONDITIONAL: 6697939 13.3959%
BRANCH_DIRECT_CALL: 886019 1.77204%
BRANCH_INDIRECT_CALL: 598662 1.19732%
BRANCH_RETURN: 1484680 2.96936%
BRANCH_OTHER: 0 0%

@sumon_overall_L1D         0         0         0         0         0         0
@Sumon_Early_by_class_L1D         0         0         0         0
@Sumon_Late_by_class_L1D         0         0         0         0

@Sumon_Early_by_cycle_L1D         0         0         0         0         0         0         0         0         0         0         0         0
@Sumon_Late_by_cycle_L1D         0         0         0         0         0         0
@Sumon_Early_stream_L1D         0         0         0         0         0         0         0         0         0         0         0         0
@Sumon_Early_CS_L1D         0         0         0         0         0         0         0         0         0         0         0         0
@Sumon_Early_CPLX_L1D         0         0         0         0         0         0         0         0         0         0         0         0
@Sumon_Late_stream_L1D         0         0         0         0         0         0
@Sumon_Late_CS_L1D         0         0         0         0         0         0
@Sumon_Late_CPLX_L1D         0         0         0         0         0         0
@sumon_overall_L2C         0         0         0         0         0         0
@Sumon_Early_by_class_L2C         0         0         0         0
@Sumon_Late_by_class_L2C         0         0         0         0

@Sumon_Early_by_cycle_L2C         0         0         0         0         0         0         0         0         0         0         0         0
@Sumon_Late_by_cycle_L2C         0         0         0         0         0         0
@Sumon_Early_stream_L2C         0         0         0         0         0         0         0         0         0         0         0         0
@Sumon_Early_CS_L2C         0         0         0         0         0         0         0         0         0         0         0         0
@Sumon_Early_CPLX_L2C         0         0         0         0         0         0         0         0         0         0         0         0
@Sumon_Late_stream_L2C         0         0         0         0         0         0
@Sumon_Late_CS_L2C         0         0         0         0         0         0
@Sumon_Late_CPLX_L2C         0         0         0         0         0         0
DRAM PAGES: 1048576
Allocated PAGES: 45883
