
*** ChampSim Multicore Out-of-Order Simulator ***

Warmup Instructions: 10000000
Simulation Instructions: 50000000
Number of CPUs: 1
LLC sets: 2048
LLC ways: 16
Off-chip DRAM Size: 4096 MB Channels: 1 Width: 64-bit Data Rate: 400 MT/s
CPU 0 runs traces/SPEC2017/621.wrf_s-6673B.champsimtrace.xz
.xz
CPU 0 Bimodal branch predictor
BTB has LRU replacement policy
ITLB has LRU replacement policy
DTLB has LRU replacement policy
STLB has LRU replacement policy
L1I has LRU replacement policy
L1D has LRU replacement policy
L2C has LRU replacement policy
LLC has LRU replacement policy
Heartbeat CPU 0 instructions: 10000002 cycles: 3568520 heartbeat IPC: 2.80228 cumulative IPC: 2.80228 (Simulation time: 0 hr 9 min 56 sec) 

Warmup complete CPU 0 instructions: 10000002 cycles: 3568520 (Simulation time: 0 hr 9 min 56 sec) 

Heartbeat CPU 0 instructions: 20000003 cycles: 26092073 heartbeat IPC: 0.44398 cumulative IPC: 0.44398 (Simulation time: 0 hr 24 min 31 sec) 
Heartbeat CPU 0 instructions: 30000000 cycles: 47692545 heartbeat IPC: 0.462953 cumulative IPC: 0.453268 (Simulation time: 0 hr 38 min 10 sec) 
Heartbeat CPU 0 instructions: 40000003 cycles: 93782591 heartbeat IPC: 0.216967 cumulative IPC: 0.332542 (Simulation time: 0 hr 57 min 52 sec) 
Heartbeat CPU 0 instructions: 50000002 cycles: 121709852 heartbeat IPC: 0.358073 cumulative IPC: 0.338578 (Simulation time: 1 hr 9 min 20 sec) 
Heartbeat CPU 0 instructions: 60000000 cycles: 147948888 heartbeat IPC: 0.381111 cumulative IPC: 0.346307 (Simulation time: 1 hr 17 min 6 sec) 
Finished CPU 0 instructions: 50000000 cycles: 144380679 cumulative IPC: 0.346307 (Simulation time: 1 hr 17 min 6 sec) 

ChampSim completed all CPUs

Region of Interest Statistics

CPU 0 cumulative IPC: 0.346307 instructions: 50000000 cycles: 144380679
ITLB TOTAL     ACCESS:    7577786  HIT:    7577716  MISS:         70  HIT %:    99.9991  MISS %: 0.000923753   MPKI: 0.0014
ITLB LOAD TRANSLATION ACCESS:    7577786  HIT:    7577716  MISS:         70  HIT %:    99.9991  MISS %: 0.000923753   MPKI: 0.0014
ITLB PREFETCH  REQUESTED:          0  ISSUED:          0  USEFUL:          0  USELESS:          0
ITLB USEFUL LOAD PREFETCHES:          0 PREFETCH ISSUED TO LOWER LEVEL:          0  ACCURACY: -nan
ITLB TIMELY PREFETCHES:          0 LATE PREFETCHES: 0 DROPPED PREFETCHES: 0
ITLB PREFETCHES SAME FILL-ORIGIN LEVEL: 0 DIFFERENT FILL-ORIGIN LEVEL: 0
ITLB AVERAGE MISS LATENCY: 274.757 cycles
ITLB RQ	ACCESS:    9183615	FORWARD:          0	MERGED:    1605815	TO_CACHE:    7577800

DTLB TOTAL     ACCESS:   10739476  HIT:   10680638  MISS:      58838  HIT %:    99.4521  MISS %:   0.547867   MPKI: 1.17676
DTLB LOAD TRANSLATION ACCESS:   10739476  HIT:   10680638  MISS:      58838  HIT %:    99.4521  MISS %:   0.547867   MPKI: 1.17676
DTLB PREFETCH  REQUESTED:          0  ISSUED:          0  USEFUL:          0  USELESS:          0
DTLB USEFUL LOAD PREFETCHES:          0 PREFETCH ISSUED TO LOWER LEVEL:          0  ACCURACY: -nan
DTLB TIMELY PREFETCHES:          0 LATE PREFETCHES: 0 DROPPED PREFETCHES: 0
DTLB PREFETCHES SAME FILL-ORIGIN LEVEL: 0 DIFFERENT FILL-ORIGIN LEVEL: 0
DTLB AVERAGE MISS LATENCY: 44.3054 cycles
DTLB RQ	ACCESS:   12018775	FORWARD:          0	MERGED:    1267469	TO_CACHE:   10751306

STLB TOTAL     ACCESS:      58908  HIT:      48058  MISS:      10850  HIT %:    81.5814  MISS %:    18.4186   MPKI: 0.217
STLB LOAD TRANSLATION ACCESS:      58908  HIT:      48058  MISS:      10850  HIT %:    81.5814  MISS %:    18.4186   MPKI: 0.217
STLB PREFETCH  REQUESTED:          0  ISSUED:          0  USEFUL:          0  USELESS:          0
STLB USEFUL LOAD PREFETCHES:          0 PREFETCH ISSUED TO LOWER LEVEL:          0  ACCURACY: -nan
STLB TIMELY PREFETCHES:          0 LATE PREFETCHES: 0 DROPPED PREFETCHES: 0
STLB PREFETCHES SAME FILL-ORIGIN LEVEL: 0 DIFFERENT FILL-ORIGIN LEVEL: 0
STLB AVERAGE MISS LATENCY: 192.568 cycles
STLB RQ	ACCESS:      58908	FORWARD:          0	MERGED:          0	TO_CACHE:      58908

STLB Hit, L1D data hit: 0
STLB Hit, L2C data hit: 0
STLB Hit, LLC data hit: 0
STLB Hit, LLC data miss: 0
STLB STLB hints to L2: 0
L1D TOTAL     ACCESS:   10577805  HIT:    9292901  MISS:    1284904  HIT %:    87.8528  MISS %:    12.1472   MPKI: 25.6981
L1D LOAD      ACCESS:    8326416  HIT:    7247716  MISS:    1078700  HIT %:    87.0448  MISS %:    12.9552   MPKI: 21.574
L1D RFO       ACCESS:    2251389  HIT:    2045185  MISS:     206204  HIT %:     90.841  MISS %:    9.15897   MPKI: 4.12408
L1D PREFETCH  REQUESTED:          0  ISSUED:          0  USEFUL:          0  USELESS:          0
L1D USEFUL LOAD PREFETCHES:          0 PREFETCH ISSUED TO LOWER LEVEL:          0  ACCURACY: -nan
L1D TIMELY PREFETCHES:          0 LATE PREFETCHES: 0 DROPPED PREFETCHES: 0
L1D PREFETCHES SAME FILL-ORIGIN LEVEL: 0 DIFFERENT FILL-ORIGIN LEVEL: 0
L1D AVERAGE MISS LATENCY: 376.783 cycles
L1D RQ	ACCESS:   14322712	FORWARD:          0	MERGED:    5167555	TO_CACHE:    9147442
L1D WQ	ACCESS:    2871693	FORWARD:       7715	MERGED:        360	TO_CACHE:    2871333

L1D UNIQUE REGIONS ACCESSED: 0
L1D REGIONS CONFLICTS: 0
L1D Cross Page Prefetch Requests: 0
L1D Same Page Prefetch Requests: 0
L1D ROI Sum of L1D PQ occupancy: 0
L1D PREFETCHES PUSHED FROM L2C: 0
L1I TOTAL     ACCESS:    9182404  HIT:    9180353  MISS:       2051  HIT %:    99.9777  MISS %:  0.0223362   MPKI: 0.04102
L1I LOAD      ACCESS:    9182404  HIT:    9180353  MISS:       2051  HIT %:    99.9777  MISS %:  0.0223362   MPKI: 0.04102
L1I PREFETCH  REQUESTED:          0  ISSUED:          0  USEFUL:          0  USELESS:          0
L1I USEFUL LOAD PREFETCHES:          0 PREFETCH ISSUED TO LOWER LEVEL:          0  ACCURACY: -nan
L1I TIMELY PREFETCHES:          0 LATE PREFETCHES: 0 DROPPED PREFETCHES: 0
L1I PREFETCHES SAME FILL-ORIGIN LEVEL: 0 DIFFERENT FILL-ORIGIN LEVEL: 0
L1I AVERAGE MISS LATENCY: 269.432 cycles
L1I RQ	ACCESS:   13250543	FORWARD:          0	MERGED:    4066928	TO_CACHE:    9183615

BTB TOTAL     ACCESS:    2470005  HIT:    2468789  MISS:       1216  HIT %:    99.9508  MISS %:  0.0492307   MPKI: 0.02432
BTB BRANCH_DIRECT_JUMP	ACCESS:        923  HIT:        881  MISS:         42
BTB BRANCH_INDIRECT	ACCESS:          0  HIT:          0  MISS:          0
BTB BRANCH_CONDITIONAL	ACCESS:    2461259  HIT:    2460628  MISS:        631
BTB BRANCH_DIRECT_CALL	ACCESS:       3911  HIT:       3644  MISS:        267
BTB BRANCH_INDIRECT_CALL	ACCESS:          0  HIT:          0  MISS:          0
BTB BRANCH_RETURN	ACCESS:       3912  HIT:       3636  MISS:        276
BTB BRANCH_OTHER ACCESS:          0  HIT:          0  MISS:          0

L2C TOTAL     ACCESS:    1754184  HIT:     744624  MISS:    1009560  HIT %:    42.4485  MISS %:    57.5515   MPKI: 20.1912
L2C LOAD      ACCESS:    1080744  HIT:     233029  MISS:     847715  HIT %:    21.5619  MISS %:    78.4381   MPKI: 16.9543
L2C DATA LOAD MPKI: 16.9133
L2C INSTRUCTION LOAD MPKI: 0.04102
L2C RFO       ACCESS:     206204  HIT:      46268  MISS:     159936  HIT %:     22.438  MISS %:     77.562   MPKI: 3.19872
L2C WRITEBACK ACCESS:     456332  HIT:     456237  MISS:         95  HIT %:    99.9792  MISS %:  0.0208182   MPKI: 0.0019
L2C LOAD TRANSLATION ACCESS:      10904  HIT:       9090  MISS:       1814  HIT %:    83.3639  MISS %:    16.6361   MPKI: 0.03628
L2C PREFETCH  REQUESTED:          0  ISSUED:          0  USEFUL:          0  USELESS:          0
L2C USEFUL LOAD PREFETCHES:          0 PREFETCH ISSUED TO LOWER LEVEL:          0  ACCURACY: -nan
L2C TIMELY PREFETCHES:          0 LATE PREFETCHES: 0 DROPPED PREFETCHES: 0
L2C PREFETCHES SAME FILL-ORIGIN LEVEL: 0 DIFFERENT FILL-ORIGIN LEVEL: 0
L2C AVERAGE MISS LATENCY: 461.441 cycles
L2C RQ	ACCESS:    1297859	FORWARD:          0	MERGED:          0	TO_CACHE:    1297852
L2C WQ	ACCESS:     456332	FORWARD:          7	MERGED:          0	TO_CACHE:     456332

L2C Instructions Evicting Data 2049
L2C Translations Evicting Data 1810
L2C Data Evicting Data 1001687
L2C Instructions Evicting Instructions 1
L2C Translations Evicting Instructions 2
L2C Data Evicting Instructions 2089
L2C Instructions Evicting Translations 1
L2C Translations Evicting Translations 2
L2C Data Evicting Translations 1824
L2C Dense regions hint from L2: 0
PSCL5 TOTAL     ACCESS:      10850  HIT:      10850  MISS:          0  HIT %:        100  MISS %:          0   MPKI: 0
PSCL5 LOAD TRANSLATION ACCESS:      10850  HIT:      10850  MISS:          0  HIT %:        100  MISS %:          0   MPKI: 0
PSCL5 PREFETCH  REQUESTED:          0  ISSUED:          0  USEFUL:          0  USELESS:          0
PSCL5 USEFUL LOAD PREFETCHES:          0 PREFETCH ISSUED TO LOWER LEVEL:          0  ACCURACY: -nan
PSCL5 TIMELY PREFETCHES:          0 LATE PREFETCHES: 0 DROPPED PREFETCHES: 0
PSCL5 PREFETCHES SAME FILL-ORIGIN LEVEL: 0 DIFFERENT FILL-ORIGIN LEVEL: 0

PSCL4 TOTAL     ACCESS:      10850  HIT:      10850  MISS:          0  HIT %:        100  MISS %:          0   MPKI: 0
PSCL4 LOAD TRANSLATION ACCESS:      10850  HIT:      10850  MISS:          0  HIT %:        100  MISS %:          0   MPKI: 0
PSCL4 PREFETCH  REQUESTED:          0  ISSUED:          0  USEFUL:          0  USELESS:          0
PSCL4 USEFUL LOAD PREFETCHES:          0 PREFETCH ISSUED TO LOWER LEVEL:          0  ACCURACY: -nan
PSCL4 TIMELY PREFETCHES:          0 LATE PREFETCHES: 0 DROPPED PREFETCHES: 0
PSCL4 PREFETCHES SAME FILL-ORIGIN LEVEL: 0 DIFFERENT FILL-ORIGIN LEVEL: 0

PSCL3 TOTAL     ACCESS:      10850  HIT:      10850  MISS:          0  HIT %:        100  MISS %:          0   MPKI: 0
PSCL3 LOAD TRANSLATION ACCESS:      10850  HIT:      10850  MISS:          0  HIT %:        100  MISS %:          0   MPKI: 0
PSCL3 PREFETCH  REQUESTED:          0  ISSUED:          0  USEFUL:          0  USELESS:          0
PSCL3 USEFUL LOAD PREFETCHES:          0 PREFETCH ISSUED TO LOWER LEVEL:          0  ACCURACY: -nan
PSCL3 TIMELY PREFETCHES:          0 LATE PREFETCHES: 0 DROPPED PREFETCHES: 0
PSCL3 PREFETCHES SAME FILL-ORIGIN LEVEL: 0 DIFFERENT FILL-ORIGIN LEVEL: 0

PSCL2 TOTAL     ACCESS:      10850  HIT:      10778  MISS:         72  HIT %:    99.3364  MISS %:   0.663594   MPKI: 0.00144
PSCL2 LOAD TRANSLATION ACCESS:      10850  HIT:      10778  MISS:         72  HIT %:    99.3364  MISS %:   0.663594   MPKI: 0.00144
PSCL2 PREFETCH  REQUESTED:          0  ISSUED:          0  USEFUL:          0  USELESS:          0
PSCL2 USEFUL LOAD PREFETCHES:          0 PREFETCH ISSUED TO LOWER LEVEL:          0  ACCURACY: -nan
PSCL2 TIMELY PREFETCHES:          0 LATE PREFETCHES: 0 DROPPED PREFETCHES: 0
PSCL2 PREFETCHES SAME FILL-ORIGIN LEVEL: 0 DIFFERENT FILL-ORIGIN LEVEL: 0

LLC TOTAL     ACCESS:    1374001  HIT:     410208  MISS:     963793  HIT %:     29.855  MISS %:     70.145   MPKI: 19.2759
LLC LOAD      ACCESS:     847715  HIT:      43296  MISS:     804419  HIT %:    5.10738  MISS %:    94.8926   MPKI: 16.0884
LLC RFO       ACCESS:     159936  HIT:       2850  MISS:     157086  HIT %:    1.78196  MISS %:     98.218   MPKI: 3.14172
LLC WRITEBACK ACCESS:     364536  HIT:     363969  MISS:        567  HIT %:    99.8445  MISS %:    0.15554   MPKI: 0.01134
LLC LOAD TRANSLATION ACCESS:       1814  HIT:         93  MISS:       1721  HIT %:    5.12679  MISS %:    94.8732   MPKI: 0.03442
LLC PREFETCH  REQUESTED:          0  ISSUED:          0  USEFUL:          0  USELESS:          0
LLC USEFUL LOAD PREFETCHES:          0 PREFETCH ISSUED TO LOWER LEVEL:          0  ACCURACY: -nan
LLC TIMELY PREFETCHES:          0 LATE PREFETCHES: 0 DROPPED PREFETCHES: 0
LLC PREFETCHES SAME FILL-ORIGIN LEVEL: 0 DIFFERENT FILL-ORIGIN LEVEL: 0
LLC AVERAGE MISS LATENCY: 451.78 cycles
LLC RQ	ACCESS:    1009465	FORWARD:          0	MERGED:          0	TO_CACHE:    1009465
LLC WQ	ACCESS:     364536	FORWARD:          0	MERGED:          0	TO_CACHE:     364536

LLC Dense regions hint to LLC: 0

RAW hits: 108464
Loads Generated: 14431160
Loads sent to L1D: 14322712
Stores Generated: 2871695
Stores sent to L1D: 2871695
Major fault: 0 Minor fault: 6925
Allocated PAGES: 6925

DRAM Statistics
 CHANNEL 0
 RQ ROW_BUFFER_HIT:     190547  ROW_BUFFER_MISS:     772552
 DBUS_CONGESTED:    1098786
 WQ ROW_BUFFER_HIT:     209874  ROW_BUFFER_MISS:     141003  FULL:          0

 AVG_CONGESTED_CYCLE: 66
 All warmup complete: 2
Channel 0 Bank busy for read cycles: 0
Channel 0 Bank busy for write cycles: 0
Channel 0
Rank 0
0banks busy for read cycles: 9839746
0banks busy for write cycles: 10178
1banks busy for read cycles: 36684988
1banks busy for write cycles: 2605652
2banks busy for read cycles: 28387431
2banks busy for write cycles: 1705383
3banks busy for read cycles: 13853246
3banks busy for write cycles: 1165707
4banks busy for read cycles: 7597423
4banks busy for write cycles: 1089546
5banks busy for read cycles: 4130551
5banks busy for write cycles: 1136288
6banks busy for read cycles: 1789730
6banks busy for write cycles: 1343809
7banks busy for read cycles: 401500
7banks busy for write cycles: 2671356
8banks busy for read cycles: 1711399
8banks busy for write cycles: 28256747

CPU 0 Branch Prediction Accuracy: 96.5596% MPKI: 1.81656 Average ROB Occupancy at Mispredict: 204.724
Branch types
NOT_BRANCH: 47359926 94.7199%
BRANCH_DIRECT_JUMP: 923 0.001846%
BRANCH_INDIRECT: 0 0%
BRANCH_CONDITIONAL: 2631332 5.26266%
BRANCH_DIRECT_CALL: 3911 0.007822%
BRANCH_INDIRECT_CALL: 0 0%
BRANCH_RETURN: 3912 0.007824%
BRANCH_OTHER: 0 0%

@sumon_overall_L1D         0         0         0         0         0         0
@Sumon_Early_by_class_L1D         0         0         0         0
@Sumon_Late_by_class_L1D         0         0         0         0

@Sumon_Early_by_cycle_L1D         0         0         0         0         0         0         0         0         0         0         0         0
@Sumon_Late_by_cycle_L1D         0         0         0         0         0         0
@Sumon_Early_stream_L1D         0         0         0         0         0         0         0         0         0         0         0         0
@Sumon_Early_CS_L1D         0         0         0         0         0         0         0         0         0         0         0         0
@Sumon_Early_CPLX_L1D         0         0         0         0         0         0         0         0         0         0         0         0
@Sumon_Late_stream_L1D         0         0         0         0         0         0
@Sumon_Late_CS_L1D         0         0         0         0         0         0
@Sumon_Late_CPLX_L1D         0         0         0         0         0         0
@sumon_overall_L2C         0         0         0         0         0         0
@Sumon_Early_by_class_L2C         0         0         0         0
@Sumon_Late_by_class_L2C         0         0         0         0

@Sumon_Early_by_cycle_L2C         0         0         0         0         0         0         0         0         0         0         0         0
@Sumon_Late_by_cycle_L2C         0         0         0         0         0         0
@Sumon_Early_stream_L2C         0         0         0         0         0         0         0         0         0         0         0         0
@Sumon_Early_CS_L2C         0         0         0         0         0         0         0         0         0         0         0         0
@Sumon_Early_CPLX_L2C         0         0         0         0         0         0         0         0         0         0         0         0
@Sumon_Late_stream_L2C         0         0         0         0         0         0
@Sumon_Late_CS_L2C         0         0         0         0         0         0
@Sumon_Late_CPLX_L2C         0         0         0         0         0         0
DRAM PAGES: 1048576
Allocated PAGES: 6925
