
*** ChampSim Multicore Out-of-Order Simulator ***

Warmup Instructions: 10000000
Simulation Instructions: 50000000
Number of CPUs: 1
LLC sets: 2048
LLC ways: 16
Off-chip DRAM Size: 4096 MB Channels: 1 Width: 64-bit Data Rate: 400 MT/s
CPU 0 runs traces/SPEC2017/654.roms_s-1390B.champsimtrace.xz
.xz
CPU 0 Bimodal branch predictor
BTB has LRU replacement policy
ITLB has LRU replacement policy
DTLB has LRU replacement policy
STLB has LRU replacement policy
L1I has LRU replacement policy
L1D has LRU replacement policy
L2C has LRU replacement policy
LLC has LRU replacement policy
Heartbeat CPU 0 instructions: 10000001 cycles: 3783073 heartbeat IPC: 2.64335 cumulative IPC: 2.64335 (Simulation time: 0 hr 10 min 59 sec) 

Warmup complete CPU 0 instructions: 10000001 cycles: 3783073 (Simulation time: 0 hr 10 min 59 sec) 

Heartbeat CPU 0 instructions: 20000000 cycles: 51428638 heartbeat IPC: 0.209883 cumulative IPC: 0.209883 (Simulation time: 0 hr 31 min 3 sec) 
Heartbeat CPU 0 instructions: 30000003 cycles: 96801913 heartbeat IPC: 0.220394 cumulative IPC: 0.21501 (Simulation time: 0 hr 50 min 55 sec) 
Heartbeat CPU 0 instructions: 40000000 cycles: 149938548 heartbeat IPC: 0.188194 cumulative IPC: 0.205261 (Simulation time: 1 hr 10 min 34 sec) 
Heartbeat CPU 0 instructions: 50000000 cycles: 205436107 heartbeat IPC: 0.180188 cumulative IPC: 0.198361 (Simulation time: 1 hr 21 min 6 sec) 
Heartbeat CPU 0 instructions: 60000001 cycles: 227977265 heartbeat IPC: 0.443633 cumulative IPC: 0.223021 (Simulation time: 1 hr 24 min 18 sec) 
Finished CPU 0 instructions: 50000000 cycles: 224194192 cumulative IPC: 0.223021 (Simulation time: 1 hr 24 min 18 sec) 

ChampSim completed all CPUs

Region of Interest Statistics

CPU 0 cumulative IPC: 0.223021 instructions: 50000000 cycles: 224194192
ITLB TOTAL     ACCESS:    8837540  HIT:    8837517  MISS:         23  HIT %:    99.9997  MISS %: 0.000260253   MPKI: 0.00046
ITLB LOAD TRANSLATION ACCESS:    8837540  HIT:    8837517  MISS:         23  HIT %:    99.9997  MISS %: 0.000260253   MPKI: 0.00046
ITLB PREFETCH  REQUESTED:          0  ISSUED:          0  USEFUL:          0  USELESS:          0
ITLB USEFUL LOAD PREFETCHES:          0 PREFETCH ISSUED TO LOWER LEVEL:          0  ACCURACY: -nan
ITLB TIMELY PREFETCHES:          0 LATE PREFETCHES: 0 DROPPED PREFETCHES: 0
ITLB PREFETCHES SAME FILL-ORIGIN LEVEL: 0 DIFFERENT FILL-ORIGIN LEVEL: 0
ITLB AVERAGE MISS LATENCY: 444.435 cycles
ITLB RQ	ACCESS:    9655480	FORWARD:          0	MERGED:     817934	TO_CACHE:    8837546

DTLB TOTAL     ACCESS:   12249054  HIT:   12193987  MISS:      55067  HIT %:    99.5504  MISS %:   0.449561   MPKI: 1.10134
DTLB LOAD TRANSLATION ACCESS:   12249054  HIT:   12193987  MISS:      55067  HIT %:    99.5504  MISS %:   0.449561   MPKI: 1.10134
DTLB PREFETCH  REQUESTED:          0  ISSUED:          0  USEFUL:          0  USELESS:          0
DTLB USEFUL LOAD PREFETCHES:          0 PREFETCH ISSUED TO LOWER LEVEL:          0  ACCURACY: -nan
DTLB TIMELY PREFETCHES:          0 LATE PREFETCHES: 0 DROPPED PREFETCHES: 0
DTLB PREFETCHES SAME FILL-ORIGIN LEVEL: 0 DIFFERENT FILL-ORIGIN LEVEL: 0
DTLB AVERAGE MISS LATENCY: 171.728 cycles
DTLB RQ	ACCESS:   13390389	FORWARD:          0	MERGED:    1107508	TO_CACHE:   12282881

STLB TOTAL     ACCESS:      55090  HIT:      16118  MISS:      38972  HIT %:    29.2576  MISS %:    70.7424   MPKI: 0.77944
STLB LOAD TRANSLATION ACCESS:      55090  HIT:      16118  MISS:      38972  HIT %:    29.2576  MISS %:    70.7424   MPKI: 0.77944
STLB PREFETCH  REQUESTED:          0  ISSUED:          0  USEFUL:          0  USELESS:          0
STLB USEFUL LOAD PREFETCHES:          0 PREFETCH ISSUED TO LOWER LEVEL:          0  ACCURACY: -nan
STLB TIMELY PREFETCHES:          0 LATE PREFETCHES: 0 DROPPED PREFETCHES: 0
STLB PREFETCHES SAME FILL-ORIGIN LEVEL: 0 DIFFERENT FILL-ORIGIN LEVEL: 0
STLB AVERAGE MISS LATENCY: 229.285 cycles
STLB RQ	ACCESS:      55090	FORWARD:          0	MERGED:          0	TO_CACHE:      55090

STLB Hit, L1D data hit: 0
STLB Hit, L2C data hit: 0
STLB Hit, LLC data hit: 0
STLB Hit, LLC data miss: 0
STLB STLB hints to L2: 0
L1D TOTAL     ACCESS:   10276850  HIT:    8516291  MISS:    1760559  HIT %:    82.8687  MISS %:    17.1313   MPKI: 35.2112
L1D LOAD      ACCESS:    7102404  HIT:    5840284  MISS:    1262120  HIT %:    82.2297  MISS %:    17.7703   MPKI: 25.2424
L1D RFO       ACCESS:    3174446  HIT:    2676007  MISS:     498439  HIT %:    84.2984  MISS %:    15.7016   MPKI: 9.96878
L1D PREFETCH  REQUESTED:          0  ISSUED:          0  USEFUL:          0  USELESS:          0
L1D USEFUL LOAD PREFETCHES:          0 PREFETCH ISSUED TO LOWER LEVEL:          0  ACCURACY: -nan
L1D TIMELY PREFETCHES:          0 LATE PREFETCHES: 0 DROPPED PREFETCHES: 0
L1D PREFETCHES SAME FILL-ORIGIN LEVEL: 0 DIFFERENT FILL-ORIGIN LEVEL: 0
L1D AVERAGE MISS LATENCY: 381.339 cycles
L1D RQ	ACCESS:   17792649	FORWARD:          0	MERGED:    9595381	TO_CACHE:    8197130
L1D WQ	ACCESS:    5193277	FORWARD:        138	MERGED:         18	TO_CACHE:    5193259

L1D UNIQUE REGIONS ACCESSED: 0
L1D REGIONS CONFLICTS: 0
L1D Cross Page Prefetch Requests: 0
L1D Same Page Prefetch Requests: 0
L1D ROI Sum of L1D PQ occupancy: 0
L1D PREFETCHES PUSHED FROM L2C: 0
L1I TOTAL     ACCESS:    9655249  HIT:    9654830  MISS:        419  HIT %:    99.9957  MISS %: 0.00433961   MPKI: 0.00838
L1I LOAD      ACCESS:    9655249  HIT:    9654830  MISS:        419  HIT %:    99.9957  MISS %: 0.00433961   MPKI: 0.00838
L1I PREFETCH  REQUESTED:          0  ISSUED:          0  USEFUL:          0  USELESS:          0
L1I USEFUL LOAD PREFETCHES:          0 PREFETCH ISSUED TO LOWER LEVEL:          0  ACCURACY: -nan
L1I TIMELY PREFETCHES:          0 LATE PREFETCHES: 0 DROPPED PREFETCHES: 0
L1I PREFETCHES SAME FILL-ORIGIN LEVEL: 0 DIFFERENT FILL-ORIGIN LEVEL: 0
L1I AVERAGE MISS LATENCY: 369.033 cycles
L1I RQ	ACCESS:   14478848	FORWARD:          0	MERGED:    4823368	TO_CACHE:    9655480

BTB TOTAL     ACCESS:    3086896  HIT:    3086656  MISS:        240  HIT %:    99.9922  MISS %:  0.0077748   MPKI: 0.0048
BTB BRANCH_DIRECT_JUMP	ACCESS:        167  HIT:        144  MISS:         23
BTB BRANCH_INDIRECT	ACCESS:          0  HIT:          0  MISS:          0
BTB BRANCH_CONDITIONAL	ACCESS:    3086455  HIT:    3086363  MISS:         92
BTB BRANCH_DIRECT_CALL	ACCESS:        137  HIT:         76  MISS:         61
BTB BRANCH_INDIRECT_CALL	ACCESS:          0  HIT:          0  MISS:          0
BTB BRANCH_RETURN	ACCESS:        137  HIT:         73  MISS:         64
BTB BRANCH_OTHER ACCESS:          0  HIT:          0  MISS:          0

L2C TOTAL     ACCESS:    2467305  HIT:     834971  MISS:    1632334  HIT %:    33.8414  MISS %:    66.1586   MPKI: 32.6467
L2C LOAD      ACCESS:    1262539  HIT:     137265  MISS:    1125274  HIT %:    10.8721  MISS %:    89.1279   MPKI: 22.5055
L2C DATA LOAD MPKI: 22.4971
L2C INSTRUCTION LOAD MPKI: 0.00838
L2C RFO       ACCESS:     498439  HIT:          7  MISS:     498432  HIT %: 0.00140438  MISS %:    99.9986   MPKI: 9.96864
L2C WRITEBACK ACCESS:     667260  HIT:     667245  MISS:         15  HIT %:    99.9978  MISS %:   0.002248   MPKI: 0.0003
L2C LOAD TRANSLATION ACCESS:      39067  HIT:      30454  MISS:       8613  HIT %:    77.9533  MISS %:    22.0467   MPKI: 0.17226
L2C PREFETCH  REQUESTED:          0  ISSUED:          0  USEFUL:          0  USELESS:          0
L2C USEFUL LOAD PREFETCHES:          0 PREFETCH ISSUED TO LOWER LEVEL:          0  ACCURACY: -nan
L2C TIMELY PREFETCHES:          0 LATE PREFETCHES: 0 DROPPED PREFETCHES: 0
L2C PREFETCHES SAME FILL-ORIGIN LEVEL: 0 DIFFERENT FILL-ORIGIN LEVEL: 0
L2C AVERAGE MISS LATENCY: 396.821 cycles
L2C RQ	ACCESS:    1800045	FORWARD:          0	MERGED:          0	TO_CACHE:    1800045
L2C WQ	ACCESS:     667260	FORWARD:          0	MERGED:          0	TO_CACHE:     667260

L2C Instructions Evicting Data 419
L2C Translations Evicting Data 8560
L2C Data Evicting Data 1614295
L2C Instructions Evicting Instructions 0
L2C Translations Evicting Instructions 4
L2C Data Evicting Instructions 415
L2C Instructions Evicting Translations 0
L2C Translations Evicting Translations 49
L2C Data Evicting Translations 8577
L2C Dense regions hint from L2: 0
PSCL5 TOTAL     ACCESS:      38972  HIT:      38972  MISS:          0  HIT %:        100  MISS %:          0   MPKI: 0
PSCL5 LOAD TRANSLATION ACCESS:      38972  HIT:      38972  MISS:          0  HIT %:        100  MISS %:          0   MPKI: 0
PSCL5 PREFETCH  REQUESTED:          0  ISSUED:          0  USEFUL:          0  USELESS:          0
PSCL5 USEFUL LOAD PREFETCHES:          0 PREFETCH ISSUED TO LOWER LEVEL:          0  ACCURACY: -nan
PSCL5 TIMELY PREFETCHES:          0 LATE PREFETCHES: 0 DROPPED PREFETCHES: 0
PSCL5 PREFETCHES SAME FILL-ORIGIN LEVEL: 0 DIFFERENT FILL-ORIGIN LEVEL: 0

PSCL4 TOTAL     ACCESS:      38972  HIT:      38972  MISS:          0  HIT %:        100  MISS %:          0   MPKI: 0
PSCL4 LOAD TRANSLATION ACCESS:      38972  HIT:      38972  MISS:          0  HIT %:        100  MISS %:          0   MPKI: 0
PSCL4 PREFETCH  REQUESTED:          0  ISSUED:          0  USEFUL:          0  USELESS:          0
PSCL4 USEFUL LOAD PREFETCHES:          0 PREFETCH ISSUED TO LOWER LEVEL:          0  ACCURACY: -nan
PSCL4 TIMELY PREFETCHES:          0 LATE PREFETCHES: 0 DROPPED PREFETCHES: 0
PSCL4 PREFETCHES SAME FILL-ORIGIN LEVEL: 0 DIFFERENT FILL-ORIGIN LEVEL: 0

PSCL3 TOTAL     ACCESS:      38972  HIT:      38971  MISS:          1  HIT %:    99.9974  MISS %: 0.00256594   MPKI: 2e-05
PSCL3 LOAD TRANSLATION ACCESS:      38972  HIT:      38971  MISS:          1  HIT %:    99.9974  MISS %: 0.00256594   MPKI: 2e-05
PSCL3 PREFETCH  REQUESTED:          0  ISSUED:          0  USEFUL:          0  USELESS:          0
PSCL3 USEFUL LOAD PREFETCHES:          0 PREFETCH ISSUED TO LOWER LEVEL:          0  ACCURACY: -nan
PSCL3 TIMELY PREFETCHES:          0 LATE PREFETCHES: 0 DROPPED PREFETCHES: 0
PSCL3 PREFETCHES SAME FILL-ORIGIN LEVEL: 0 DIFFERENT FILL-ORIGIN LEVEL: 0

PSCL2 TOTAL     ACCESS:      38972  HIT:      38781  MISS:        191  HIT %:    99.5099  MISS %:   0.490095   MPKI: 0.00382
PSCL2 LOAD TRANSLATION ACCESS:      38972  HIT:      38781  MISS:        191  HIT %:    99.5099  MISS %:   0.490095   MPKI: 0.00382
PSCL2 PREFETCH  REQUESTED:          0  ISSUED:          0  USEFUL:          0  USELESS:          0
PSCL2 USEFUL LOAD PREFETCHES:          0 PREFETCH ISSUED TO LOWER LEVEL:          0  ACCURACY: -nan
PSCL2 TIMELY PREFETCHES:          0 LATE PREFETCHES: 0 DROPPED PREFETCHES: 0
PSCL2 PREFETCHES SAME FILL-ORIGIN LEVEL: 0 DIFFERENT FILL-ORIGIN LEVEL: 0

LLC TOTAL     ACCESS:    2297695  HIT:     665620  MISS:    1632075  HIT %:     28.969  MISS %:     71.031   MPKI: 32.6415
LLC LOAD      ACCESS:    1125274  HIT:        216  MISS:    1125058  HIT %:  0.0191953  MISS %:    99.9808   MPKI: 22.5012
LLC RFO       ACCESS:     498432  HIT:         10  MISS:     498422  HIT %: 0.00200629  MISS %:     99.998   MPKI: 9.96844
LLC WRITEBACK ACCESS:     665376  HIT:     665354  MISS:         22  HIT %:    99.9967  MISS %:  0.0033064   MPKI: 0.00044
LLC LOAD TRANSLATION ACCESS:       8613  HIT:         40  MISS:       8573  HIT %:   0.464414  MISS %:    99.5356   MPKI: 0.17146
LLC PREFETCH  REQUESTED:          0  ISSUED:          0  USEFUL:          0  USELESS:          0
LLC USEFUL LOAD PREFETCHES:          0 PREFETCH ISSUED TO LOWER LEVEL:          0  ACCURACY: -nan
LLC TIMELY PREFETCHES:          0 LATE PREFETCHES: 0 DROPPED PREFETCHES: 0
LLC PREFETCHES SAME FILL-ORIGIN LEVEL: 0 DIFFERENT FILL-ORIGIN LEVEL: 0
LLC AVERAGE MISS LATENCY: 366.377 cycles
LLC RQ	ACCESS:    1632318	FORWARD:          0	MERGED:          0	TO_CACHE:    1632318
LLC WQ	ACCESS:     665376	FORWARD:          0	MERGED:          0	TO_CACHE:     665376

LLC Dense regions hint to LLC: 0

RAW hits: 2353
Loads Generated: 17795007
Loads sent to L1D: 17792649
Stores Generated: 5193403
Stores sent to L1D: 5193404
Major fault: 0 Minor fault: 31870
Allocated PAGES: 31870

DRAM Statistics
 CHANNEL 0
 RQ ROW_BUFFER_HIT:     279734  ROW_BUFFER_MISS:    1352319
 DBUS_CONGESTED:    1864574
 WQ ROW_BUFFER_HIT:     353280  ROW_BUFFER_MISS:     310475  FULL:          0

 AVG_CONGESTED_CYCLE: 66
 All warmup complete: 2
Channel 0 Bank busy for read cycles: 0
Channel 0 Bank busy for write cycles: 0
Channel 0
Rank 0
0banks busy for read cycles: 1800058
0banks busy for write cycles: 3026
1banks busy for read cycles: 49102317
1banks busy for write cycles: 770006
2banks busy for read cycles: 60664030
2banks busy for write cycles: 467545
3banks busy for read cycles: 29035276
3banks busy for write cycles: 400770
4banks busy for read cycles: 10970146
4banks busy for write cycles: 428053
5banks busy for read cycles: 6155634
5banks busy for write cycles: 441978
6banks busy for read cycles: 1984050
6banks busy for write cycles: 528125
7banks busy for read cycles: 112267
7banks busy for write cycles: 2183678
8banks busy for read cycles: 105250
8banks busy for write cycles: 59041984

CPU 0 Branch Prediction Accuracy: 99.7911% MPKI: 0.12922 Average ROB Occupancy at Mispredict: 315.363
Branch types
NOT_BRANCH: 46907122 93.8142%
BRANCH_DIRECT_JUMP: 167 0.000334%
BRANCH_INDIRECT: 0 0%
BRANCH_CONDITIONAL: 3092362 6.18472%
BRANCH_DIRECT_CALL: 137 0.000274%
BRANCH_INDIRECT_CALL: 0 0%
BRANCH_RETURN: 137 0.000274%
BRANCH_OTHER: 0 0%

@sumon_overall_L1D         0         0         0         0         0         0
@Sumon_Early_by_class_L1D         0         0         0         0
@Sumon_Late_by_class_L1D         0         0         0         0

@Sumon_Early_by_cycle_L1D         0         0         0         0         0         0         0         0         0         0         0         0
@Sumon_Late_by_cycle_L1D         0         0         0         0         0         0
@Sumon_Early_stream_L1D         0         0         0         0         0         0         0         0         0         0         0         0
@Sumon_Early_CS_L1D         0         0         0         0         0         0         0         0         0         0         0         0
@Sumon_Early_CPLX_L1D         0         0         0         0         0         0         0         0         0         0         0         0
@Sumon_Late_stream_L1D         0         0         0         0         0         0
@Sumon_Late_CS_L1D         0         0         0         0         0         0
@Sumon_Late_CPLX_L1D         0         0         0         0         0         0
@sumon_overall_L2C         0         0         0         0         0         0
@Sumon_Early_by_class_L2C         0         0         0         0
@Sumon_Late_by_class_L2C         0         0         0         0

@Sumon_Early_by_cycle_L2C         0         0         0         0         0         0         0         0         0         0         0         0
@Sumon_Late_by_cycle_L2C         0         0         0         0         0         0
@Sumon_Early_stream_L2C         0         0         0         0         0         0         0         0         0         0         0         0
@Sumon_Early_CS_L2C         0         0         0         0         0         0         0         0         0         0         0         0
@Sumon_Early_CPLX_L2C         0         0         0         0         0         0         0         0         0         0         0         0
@Sumon_Late_stream_L2C         0         0         0         0         0         0
@Sumon_Late_CS_L2C         0         0         0         0         0         0
@Sumon_Late_CPLX_L2C         0         0         0         0         0         0
DRAM PAGES: 1048576
Allocated PAGES: 31870
