
*** ChampSim Multicore Out-of-Order Simulator ***

Warmup Instructions: 10000000
Simulation Instructions: 50000000
Number of CPUs: 1
LLC sets: 2048
LLC ways: 16
Off-chip DRAM Size: 4096 MB Channels: 1 Width: 64-bit Data Rate: 6400 MT/s
CPU 0 runs traces/SPEC2017/605.mcf_s-1644B.champsimtrace.xz
.xz
CPU 0 Bimodal branch predictor
BTB has LRU replacement policy
ITLB has LRU replacement policy
DTLB has LRU replacement policy
STLB has LRU replacement policy
L1I has LRU replacement policy
IP Table Entries: 256
L1D has LRU replacement policy
IP_Table L2 entries: 256
L2C has LRU replacement policy
Initialize DRRIP state for LLC
Heartbeat CPU 0 instructions: 10000003 cycles: 5104719 heartbeat IPC: 1.95897 cumulative IPC: 1.95897 (Simulation time: 0 hr 37 min 55 sec) 

Warmup complete CPU 0 instructions: 10000003 cycles: 5104719 (Simulation time: 0 hr 37 min 56 sec) 

Heartbeat CPU 0 instructions: 20000001 cycles: 66967241 heartbeat IPC: 0.161649 cumulative IPC: 0.161649 (Simulation time: 1 hr 38 min 7 sec) 
Heartbeat CPU 0 instructions: 30000000 cycles: 132106273 heartbeat IPC: 0.153518 cumulative IPC: 0.157478 (Simulation time: 2 hr 13 min 3 sec) 
Heartbeat CPU 0 instructions: 40000000 cycles: 197773799 heartbeat IPC: 0.152282 cumulative IPC: 0.155707 (Simulation time: 2 hr 26 min 41 sec) 
Heartbeat CPU 0 instructions: 50000002 cycles: 263630329 heartbeat IPC: 0.151845 cumulative IPC: 0.154724 (Simulation time: 2 hr 32 min 15 sec) 
Heartbeat CPU 0 instructions: 60000001 cycles: 328189261 heartbeat IPC: 0.154897 cumulative IPC: 0.154758 (Simulation time: 2 hr 34 min 6 sec) 
Finished CPU 0 instructions: 50000002 cycles: 323084543 cumulative IPC: 0.154758 (Simulation time: 2 hr 34 min 6 sec) 

ChampSim completed all CPUs

Region of Interest Statistics

CPU 0 cumulative IPC: 0.154758 instructions: 50000002 cycles: 323084543
ITLB TOTAL     ACCESS:    8877419  HIT:    8877419  MISS:          0  HIT %:        100  MISS %:          0   MPKI: 0
ITLB LOAD TRANSLATION ACCESS:    8877419  HIT:    8877419  MISS:          0  HIT %:        100  MISS %:          0   MPKI: 0
ITLB PREFETCH  REQUESTED:          0  ISSUED:          0  USEFUL:          0  USELESS:          0
ITLB USEFUL LOAD PREFETCHES:          0 PREFETCH ISSUED TO LOWER LEVEL:          0  ACCURACY: -nan
ITLB TIMELY PREFETCHES:          0 LATE PREFETCHES: 0 DROPPED PREFETCHES: 0
ITLB PREFETCHES SAME FILL-ORIGIN LEVEL: 0 DIFFERENT FILL-ORIGIN LEVEL: 0
ITLB AVERAGE MISS LATENCY: -nan cycles
ITLB RQ	ACCESS:    8912339	FORWARD:          0	MERGED:      34920	TO_CACHE:    8877419

DTLB TOTAL     ACCESS:   20513447  HIT:   19033243  MISS:    1480204  HIT %:    92.7842  MISS %:    7.21577   MPKI: 29.6041
DTLB LOAD TRANSLATION ACCESS:   20513447  HIT:   19033243  MISS:    1480204  HIT %:    92.7842  MISS %:    7.21577   MPKI: 29.6041
DTLB PREFETCH  REQUESTED:          0  ISSUED:          0  USEFUL:          0  USELESS:          0
DTLB USEFUL LOAD PREFETCHES:          0 PREFETCH ISSUED TO LOWER LEVEL:          0  ACCURACY: -nan
DTLB TIMELY PREFETCHES:          0 LATE PREFETCHES: 0 DROPPED PREFETCHES: 0
DTLB PREFETCHES SAME FILL-ORIGIN LEVEL: 0 DIFFERENT FILL-ORIGIN LEVEL: 0
DTLB AVERAGE MISS LATENCY: 983.025 cycles
DTLB RQ	ACCESS:   32115035	FORWARD:          0	MERGED:    3941028	TO_CACHE:   28174007

STLB TOTAL     ACCESS:    3648356  HIT:    2456932  MISS:    1191424  HIT %:    67.3435  MISS %:    32.6565   MPKI: 23.8285
STLB LOAD TRANSLATION ACCESS:    1480204  HIT:     288780  MISS:    1191424  HIT %:    19.5095  MISS %:    80.4905   MPKI: 23.8285
STLB TRANSLATION FROM L1D PREFETCHER ACCESS:    2168152  HIT:    2168152  MISS:          0  HIT %:        100  MISS %:          0   MPKI: 0
STLB PREFETCH  REQUESTED:          0  ISSUED:          0  USEFUL:          0  USELESS:          0
STLB USEFUL LOAD PREFETCHES:          0 PREFETCH ISSUED TO LOWER LEVEL:          0  ACCURACY: -nan
STLB TIMELY PREFETCHES:          0 LATE PREFETCHES: 0 DROPPED PREFETCHES: 0
STLB PREFETCHES SAME FILL-ORIGIN LEVEL: 0 DIFFERENT FILL-ORIGIN LEVEL: 0
STLB AVERAGE MISS LATENCY: 1209.8 cycles
STLB RQ	ACCESS:    4123494	FORWARD:          0	MERGED:     475135	TO_CACHE:    3648359

STLB Hit, L1D data hit: 0
STLB Hit, L2C data hit: 0
STLB Hit, LLC data hit: 0
STLB Hit, LLC data miss: 0
STLB STLB hints to L2: 0
L1D TOTAL     ACCESS:   26971656  HIT:   21369065  MISS:    5602591  HIT %:    79.2279  MISS %:    20.7721   MPKI: 112.052
L1D LOAD      ACCESS:   14606701  HIT:   13407483  MISS:    1199218  HIT %:    91.7899  MISS %:    8.21005   MPKI: 23.9844
L1D RFO       ACCESS:    9840573  HIT:    7654174  MISS:    2186399  HIT %:    77.7818  MISS %:    22.2182   MPKI: 43.728
L1D PREFETCH  ACCESS:    2524382  HIT:     307408  MISS:    2216974  HIT %:    12.1776  MISS %:    87.8224   MPKI: 44.3395
L1D PREFETCH  REQUESTED:    5286576  ISSUED:    5286576  USEFUL:    1117072  USELESS:    1099893
L1D USEFUL LOAD PREFETCHES:    1117072 PREFETCH ISSUED TO LOWER LEVEL:    2279146  ACCURACY: 49.0127
L1D TIMELY PREFETCHES:    1117072 LATE PREFETCHES: 62171 DROPPED PREFETCHES: 0
L1D PREFETCHES SAME FILL-ORIGIN LEVEL: 2279146 DIFFERENT FILL-ORIGIN LEVEL: 0
L1D AVERAGE MISS LATENCY: 1.77152e+06 cycles
L1D RQ	ACCESS:   19351981	FORWARD:          0	MERGED:    4417184	TO_CACHE:   14625158
L1D WQ	ACCESS:   17491234	FORWARD:     309641	MERGED:       1357	TO_CACHE:   17489877
L1D PQ	ACCESS:    2643289	FORWARD:          0	MERGED:          0	TO_CACHE:    2643287

L1D UNIQUE REGIONS ACCESSED: 0
L1D REGIONS CONFLICTS: 0
L1D Cross Page Prefetch Requests: 0
L1D Same Page Prefetch Requests: 3160820
L1D ROI Sum of L1D PQ occupancy: 34649967
L1D PREFETCHES PUSHED FROM L2C: 0
L1I TOTAL     ACCESS:    8912337  HIT:    8912337  MISS:          0  HIT %:        100  MISS %:          0   MPKI: 0
L1I LOAD      ACCESS:    8912337  HIT:    8912337  MISS:          0  HIT %:        100  MISS %:          0   MPKI: 0
L1I PREFETCH  REQUESTED:          0  ISSUED:          0  USEFUL:          0  USELESS:          0
L1I USEFUL LOAD PREFETCHES:          0 PREFETCH ISSUED TO LOWER LEVEL:          0  ACCURACY: -nan
L1I TIMELY PREFETCHES:          0 LATE PREFETCHES: 0 DROPPED PREFETCHES: 0
L1I PREFETCHES SAME FILL-ORIGIN LEVEL: 0 DIFFERENT FILL-ORIGIN LEVEL: 0
L1I AVERAGE MISS LATENCY: -nan cycles
L1I RQ	ACCESS:   14822081	FORWARD:          0	MERGED:    5909742	TO_CACHE:    8912339

BTB TOTAL     ACCESS:    5120838  HIT:    5120833  MISS:          5  HIT %:    99.9999  MISS %: 9.76403e-05   MPKI: 0.0001
BTB BRANCH_DIRECT_JUMP	ACCESS:     748070  HIT:     748069  MISS:          1
BTB BRANCH_INDIRECT	ACCESS:          0  HIT:          0  MISS:          0
BTB BRANCH_CONDITIONAL	ACCESS:    2186378  HIT:    2186376  MISS:          2
BTB BRANCH_DIRECT_CALL	ACCESS:    1093195  HIT:    1093194  MISS:          1
BTB BRANCH_INDIRECT_CALL	ACCESS:          0  HIT:          0  MISS:          0
BTB BRANCH_RETURN	ACCESS:    1093195  HIT:    1093194  MISS:          1
BTB BRANCH_OTHER ACCESS:          0  HIT:          0  MISS:          0

L2C TOTAL     ACCESS:   12927037  HIT:    6816438  MISS:    6110599  HIT %:    52.7301  MISS %:    47.2699   MPKI: 122.212
L2C LOAD      ACCESS:    1137037  HIT:     298149  MISS:     838888  HIT %:    26.2216  MISS %:    73.7784   MPKI: 16.7778
L2C DATA LOAD MPKI: 16.7778
L2C INSTRUCTION LOAD MPKI: 0
L2C RFO       ACCESS:    2186399  HIT:       1706  MISS:    2184693  HIT %:  0.0780278  MISS %:     99.922   MPKI: 43.6939
L2C PREFETCH  ACCESS:    3353977  HIT:    1310886  MISS:    2043091  HIT %:    39.0845  MISS %:    60.9155   MPKI: 40.8618
L2C DATA PREFETCH MPKI: 40.8618
L2C INSTRUCTION PREFETCH MPKI: 0
L2C WRITEBACK ACCESS:    4502698  HIT:    4500580  MISS:       2118  HIT %:     99.953  MISS %:  0.0470385   MPKI: 0.04236
L2C LOAD TRANSLATION ACCESS:    1746926  HIT:     705117  MISS:    1041809  HIT %:    40.3633  MISS %:    59.6367   MPKI: 20.8362
L2C PREFETCH  REQUESTED:    2362757  ISSUED:    2362757  USEFUL:      54661  USELESS:    1988368
L2C USEFUL LOAD PREFETCHES:      54661 PREFETCH ISSUED TO LOWER LEVEL:    2045355  ACCURACY: 2.67245
L2C TIMELY PREFETCHES:      54661 LATE PREFETCHES: 2263 DROPPED PREFETCHES: 0
L2C PREFETCHES SAME FILL-ORIGIN LEVEL: 988908 DIFFERENT FILL-ORIGIN LEVEL: 0
L2C AVERAGE MISS LATENCY: 277.372 cycles
L2C RQ	ACCESS:    5070373	FORWARD:          0	MERGED:          0	TO_CACHE:    5070363
L2C WQ	ACCESS:    4502698	FORWARD:         16	MERGED:          0	TO_CACHE:    4502698
L2C PQ	ACCESS:    4641903	FORWARD:          0	MERGED:     624941	TO_CACHE:    4016956

L2C Instructions Evicting Data 0
L2C Translations Evicting Data 863086
L2C Data Evicting Data 4203805
L2C Instructions Evicting Instructions 0
L2C Translations Evicting Instructions 0
L2C Data Evicting Instructions 0
L2C Instructions Evicting Translations 0
L2C Translations Evicting Translations 178723
L2C Data Evicting Translations 862867
L2C Dense regions hint from L2: 0
PSCL5 TOTAL     ACCESS:    1191425  HIT:    1191425  MISS:          0  HIT %:        100  MISS %:          0   MPKI: 0
PSCL5 LOAD TRANSLATION ACCESS:    1191425  HIT:    1191425  MISS:          0  HIT %:        100  MISS %:          0   MPKI: 0
PSCL5 PREFETCH  REQUESTED:          0  ISSUED:          0  USEFUL:          0  USELESS:          0
PSCL5 USEFUL LOAD PREFETCHES:          0 PREFETCH ISSUED TO LOWER LEVEL:          0  ACCURACY: -nan
PSCL5 TIMELY PREFETCHES:          0 LATE PREFETCHES: 0 DROPPED PREFETCHES: 0
PSCL5 PREFETCHES SAME FILL-ORIGIN LEVEL: 0 DIFFERENT FILL-ORIGIN LEVEL: 0

PSCL4 TOTAL     ACCESS:    1191425  HIT:    1191425  MISS:          0  HIT %:        100  MISS %:          0   MPKI: 0
PSCL4 LOAD TRANSLATION ACCESS:    1191425  HIT:    1191425  MISS:          0  HIT %:        100  MISS %:          0   MPKI: 0
PSCL4 PREFETCH  REQUESTED:          0  ISSUED:          0  USEFUL:          0  USELESS:          0
PSCL4 USEFUL LOAD PREFETCHES:          0 PREFETCH ISSUED TO LOWER LEVEL:          0  ACCURACY: -nan
PSCL4 TIMELY PREFETCHES:          0 LATE PREFETCHES: 0 DROPPED PREFETCHES: 0
PSCL4 PREFETCHES SAME FILL-ORIGIN LEVEL: 0 DIFFERENT FILL-ORIGIN LEVEL: 0

PSCL3 TOTAL     ACCESS:    1191425  HIT:    1191425  MISS:          0  HIT %:        100  MISS %:          0   MPKI: 0
PSCL3 LOAD TRANSLATION ACCESS:    1191425  HIT:    1191425  MISS:          0  HIT %:        100  MISS %:          0   MPKI: 0
PSCL3 PREFETCH  REQUESTED:          0  ISSUED:          0  USEFUL:          0  USELESS:          0
PSCL3 USEFUL LOAD PREFETCHES:          0 PREFETCH ISSUED TO LOWER LEVEL:          0  ACCURACY: -nan
PSCL3 TIMELY PREFETCHES:          0 LATE PREFETCHES: 0 DROPPED PREFETCHES: 0
PSCL3 PREFETCHES SAME FILL-ORIGIN LEVEL: 0 DIFFERENT FILL-ORIGIN LEVEL: 0

PSCL2 TOTAL     ACCESS:    1191425  HIT:     635885  MISS:     555540  HIT %:    53.3718  MISS %:    46.6282   MPKI: 11.1108
PSCL2 LOAD TRANSLATION ACCESS:    1191425  HIT:     635885  MISS:     555540  HIT %:    53.3718  MISS %:    46.6282   MPKI: 11.1108
PSCL2 PREFETCH  REQUESTED:          0  ISSUED:          0  USEFUL:          0  USELESS:          0
PSCL2 USEFUL LOAD PREFETCHES:          0 PREFETCH ISSUED TO LOWER LEVEL:          0  ACCURACY: -nan
PSCL2 TIMELY PREFETCHES:          0 LATE PREFETCHES: 0 DROPPED PREFETCHES: 0
PSCL2 PREFETCHES SAME FILL-ORIGIN LEVEL: 0 DIFFERENT FILL-ORIGIN LEVEL: 0

LLC TOTAL     ACCESS:   10360816  HIT:    5590882  MISS:    4769934  HIT %:    53.9618  MISS %:    46.0382   MPKI: 95.3987
LLC LOAD      ACCESS:     836615  HIT:     525759  MISS:     310856  HIT %:    62.8436  MISS %:    37.1564   MPKI: 6.21712
LLC RFO       ACCESS:    2184693  HIT:      10457  MISS:    2174236  HIT %:   0.478648  MISS %:    99.5214   MPKI: 43.4847
LLC PREFETCH  ACCESS:    2045354  HIT:     611433  MISS:    1433921  HIT %:    29.8937  MISS %:    70.1063   MPKI: 28.6784
LLC WRITEBACK ACCESS:    4252345  HIT:    4193126  MISS:      59219  HIT %:    98.6074  MISS %:    1.39262   MPKI: 1.18438
LLC LOAD TRANSLATION ACCESS:    1041809  HIT:     250107  MISS:     791702  HIT %:     24.007  MISS %:     75.993   MPKI: 15.834
LLC PREFETCH  REQUESTED:          0  ISSUED:          0  USEFUL:      23061  USELESS:    1411105
LLC USEFUL LOAD PREFETCHES:      23061 PREFETCH ISSUED TO LOWER LEVEL:    1433922  ACCURACY: 1.60825
LLC TIMELY PREFETCHES:      23061 LATE PREFETCHES: 0 DROPPED PREFETCHES: 0
LLC PREFETCHES SAME FILL-ORIGIN LEVEL: 0 DIFFERENT FILL-ORIGIN LEVEL: 0
LLC AVERAGE MISS LATENCY: 314.62 cycles
LLC RQ	ACCESS:    4063128	FORWARD:          0	MERGED:          0	TO_CACHE:    4063118
LLC WQ	ACCESS:    4252345	FORWARD:         10	MERGED:          0	TO_CACHE:    4252345
LLC PQ	ACCESS:    2045355	FORWARD:          0	MERGED:          0	TO_CACHE:    2045355

LLC Dense regions hint to LLC: 0

RAW hits: 1418841
Loads Generated: 20770821
Loads sent to L1D: 19351981
Stores Generated: 17491231
Stores sent to L1D: 17491234
Major fault: 0 Minor fault: 224166
Allocated PAGES: 224166

stream: 
stream:times selected: 6797785
stream:pref_filled: 1226716
stream:pref_useful: 19110
stream:pref_late: 2432
stream:misses: 191273
stream:misses_by_poll: 0

CS: 
CS:times selected: 3703471
CS:pref_filled: 1314853
CS:pref_useful: 1312412
CS:pref_late: 58645
CS:misses: 129576
CS:misses_by_poll: 6719

CPLX: 
CPLX:times selected: 3080189
CPLX:pref_filled: 126228
CPLX:pref_useful: 27808
CPLX:pref_late: 444
CPLX:misses: 1103645
CPLX:misses_by_poll: 335

NL_L1: 
NL:times selected: 21245
NL:pref_filled: 4629
NL:pref_useful: 83
NL:pref_late: 6
NL:misses: 7091
NL:misses_by_poll: 1

total selections: 13602690
total_filled: 2216974
total_useful: 1117072
total_late: 62725
total_polluted: 7055
total_misses_after_warmup: 1217675
conflicts: 0
Degree Incremented Times: 69316
Degree Decremented Times: 218810

L1 IP Table Write Accesses: 14625158
L1 IP Table Read Accesses: 14625158
L1 RST Write Accesses: 5680017
L1 RST Read Accesses: 11360034
L1 CSPT Write Accesses: 5680017
L1 CSPT Read Accesses: 8287314
L1 RR Filter Tag Write Accesses: 2643289
L1 RR Filter Tag Read Accesses: 409193552
L1 IP Table Tag Write Accesses: 14625158
L1 IP Table Tag Read Accesses: 14625158
L1 RST Tag Write Accesses: 0
L1 RST Tag Read Accesses: 51087963
L1 RR Filter Write Accesses: 0
L1 RR Filter Read Accesses: 15303082
test: 1315504
L2 IP Table Read Accesses: 6052066
L2 IP Table Write Accesses: 4915029
L2 IP Table Tag Read Accesses: 3026033
L2 IP Table Tag Write Accesses: 3026033

DRAM Statistics
 CHANNEL 0
 RQ ROW_BUFFER_HIT:      67533  ROW_BUFFER_MISS:    4642266
 DBUS_CONGESTED:         71
 WQ ROW_BUFFER_HIT:     597504  ROW_BUFFER_MISS:    3104866  FULL:          0

 AVG_CONGESTED_CYCLE: 5
 All warmup complete: 2
Channel 0 Bank busy for read cycles: 0
Channel 0 Bank busy for write cycles: 0
Channel 0
Rank 0
0banks busy for read cycles: 388211
0banks busy for write cycles: 0
1banks busy for read cycles: 27809834
1banks busy for write cycles: 558362
2banks busy for read cycles: 37206175
2banks busy for write cycles: 567463
3banks busy for read cycles: 55798979
3banks busy for write cycles: 590024
4banks busy for read cycles: 38502289
4banks busy for write cycles: 1148706
5banks busy for read cycles: 28285699
5banks busy for write cycles: 2081507
6banks busy for read cycles: 17021179
6banks busy for write cycles: 4931433
7banks busy for read cycles: 7820065
7banks busy for write cycles: 21036762
8banks busy for read cycles: 2347913
8banks busy for write cycles: 76989943

CPU 0 Branch Prediction Accuracy: 94.7877% MPKI: 6.47792 Average ROB Occupancy at Mispredict: 103.944
Branch types
NOT_BRANCH: 43785608 87.5712%
BRANCH_DIRECT_JUMP: 748070 1.49614%
BRANCH_INDIRECT: 0 0%
BRANCH_CONDITIONAL: 3279583 6.55917%
BRANCH_DIRECT_CALL: 1093195 2.18639%
BRANCH_INDIRECT_CALL: 0 0%
BRANCH_RETURN: 1093195 2.18639%
BRANCH_OTHER: 0 0%

@sumon_overall_L1D   1117072     62171   1099893   2216974   5286576   5286576
@Sumon_Early_by_class_L1D     15732   1074748     26551         6
@Sumon_Late_by_class_L1D      2328     58213       437         6

@Sumon_Early_by_cycle_L1D     90525    167729    296948    203831    131765    207083     13544      1288      1048      2069       400       842
@Sumon_Late_by_cycle_L1D     24337     21222     12353      3052       805       399         3         0         0         0         0         0
@Sumon_Early_stream_L1D      2320      3415      2344      1148       606      1253       481       458       881      1820       339       667
@Sumon_Early_CS_L1D     87800    163481    292398    199236    127140    193685     10844       156         4         4         0         0
@Sumon_Early_CPLX_L1D       397       826      2204      3444      4017     12142      2218       673       160       241        59       170
@Sumon_Late_stream_L1D      1257       433       413       176        43         6         0         0         0         0         0         0
@Sumon_Late_CS_L1D     21708     20661     11852      2841       755       393         3         0         0         0         0         0
@Sumon_Late_CPLX_L1D       190       119        86        35         7         0         0         0         0         0         0         0
@sumon_overall_L2C     54661      2263   1988368   2043091   2362757   2362757
@Sumon_Early_by_class_L2C     29057     22241      3281         0
@Sumon_Late_by_class_L2C         0      2188         0         0

@Sumon_Early_by_cycle_L2C      1504      3005      5066      3942      2792      5363       285         6         7       544      3019     29128
@Sumon_Late_by_cycle_L2C       877       785       451       110        29        11         0         0         0         0         0         0
@Sumon_Early_stream_L2C         0         0         0         0         0         0         0         0         4       472      2671     25910
@Sumon_Early_CS_L2C      1504      3005      5066      3942      2792      5363       285         6         3         9        26       240
@Sumon_Early_CPLX_L2C         0         0         0         0         0         0         0         0         0        63       317      2901
@Sumon_Late_stream_L2C         0         0         0         0         0         0         0         0         0         0         0         0
@Sumon_Late_CS_L2C       803       784       451       110        29        11         0         0         0         0         0         0
@Sumon_Late_CPLX_L2C         0         0         0         0         0         0         0         0         0         0         0         0
DRAM PAGES: 1048576
Allocated PAGES: 224166
