
*** ChampSim Multicore Out-of-Order Simulator ***

Warmup Instructions: 10000000
Simulation Instructions: 50000000
Number of CPUs: 1
LLC sets: 2048
LLC ways: 16
Off-chip DRAM Size: 4096 MB Channels: 1 Width: 64-bit Data Rate: 6400 MT/s
CPU 0 runs traces/SPEC2017/605.mcf_s-1554B.champsimtrace.xz
.xz
CPU 0 Bimodal branch predictor
BTB has LRU replacement policy
ITLB has LRU replacement policy
DTLB has LRU replacement policy
STLB has LRU replacement policy
L1I has LRU replacement policy
IP Table Entries: 256
L1D has LRU replacement policy
IP_Table L2 entries: 256
L2C has LRU replacement policy
Initialize DRRIP state for LLC
Heartbeat CPU 0 instructions: 10000001 cycles: 3511681 heartbeat IPC: 2.84764 cumulative IPC: 2.84764 (Simulation time: 0 hr 36 min 17 sec) 

Warmup complete CPU 0 instructions: 10000001 cycles: 3511681 (Simulation time: 0 hr 36 min 17 sec) 

Heartbeat CPU 0 instructions: 20000000 cycles: 30859029 heartbeat IPC: 0.365666 cumulative IPC: 0.365666 (Simulation time: 1 hr 21 min 9 sec) 
Heartbeat CPU 0 instructions: 30000002 cycles: 57767753 heartbeat IPC: 0.371627 cumulative IPC: 0.368622 (Simulation time: 2 hr 0 min 18 sec) 
Heartbeat CPU 0 instructions: 40000000 cycles: 84916289 heartbeat IPC: 0.368344 cumulative IPC: 0.368529 (Simulation time: 2 hr 16 min 49 sec) 
Heartbeat CPU 0 instructions: 50000003 cycles: 112212850 heartbeat IPC: 0.366347 cumulative IPC: 0.367981 (Simulation time: 2 hr 26 min 23 sec) 
Heartbeat CPU 0 instructions: 60000001 cycles: 139361759 heartbeat IPC: 0.368339 cumulative IPC: 0.368053 (Simulation time: 2 hr 31 min 6 sec) 
Finished CPU 0 instructions: 50000000 cycles: 135850078 cumulative IPC: 0.368053 (Simulation time: 2 hr 31 min 6 sec) 

ChampSim completed all CPUs

Region of Interest Statistics

CPU 0 cumulative IPC: 0.368053 instructions: 50000000 cycles: 135850078
ITLB TOTAL     ACCESS:   10215020  HIT:   10215020  MISS:          0  HIT %:        100  MISS %:          0   MPKI: 0
ITLB LOAD TRANSLATION ACCESS:   10215020  HIT:   10215020  MISS:          0  HIT %:        100  MISS %:          0   MPKI: 0
ITLB PREFETCH  REQUESTED:          0  ISSUED:          0  USEFUL:          0  USELESS:          0
ITLB USEFUL LOAD PREFETCHES:          0 PREFETCH ISSUED TO LOWER LEVEL:          0  ACCURACY: -nan
ITLB TIMELY PREFETCHES:          0 LATE PREFETCHES: 0 DROPPED PREFETCHES: 0
ITLB PREFETCHES SAME FILL-ORIGIN LEVEL: 0 DIFFERENT FILL-ORIGIN LEVEL: 0
ITLB AVERAGE MISS LATENCY: -nan cycles
ITLB RQ	ACCESS:   12462986	FORWARD:          0	MERGED:    2247966	TO_CACHE:   10215020

DTLB TOTAL     ACCESS:   15823270  HIT:   15626200  MISS:     197070  HIT %:    98.7546  MISS %:    1.24544   MPKI: 3.9414
DTLB LOAD TRANSLATION ACCESS:   15823270  HIT:   15626200  MISS:     197070  HIT %:    98.7546  MISS %:    1.24544   MPKI: 3.9414
DTLB PREFETCH  REQUESTED:          0  ISSUED:          0  USEFUL:          0  USELESS:          0
DTLB USEFUL LOAD PREFETCHES:          0 PREFETCH ISSUED TO LOWER LEVEL:          0  ACCURACY: -nan
DTLB TIMELY PREFETCHES:          0 LATE PREFETCHES: 0 DROPPED PREFETCHES: 0
DTLB PREFETCHES SAME FILL-ORIGIN LEVEL: 0 DIFFERENT FILL-ORIGIN LEVEL: 0
DTLB AVERAGE MISS LATENCY: 13.344 cycles
DTLB RQ	ACCESS:   19443998	FORWARD:          0	MERGED:    3613241	TO_CACHE:   15830757

STLB TOTAL     ACCESS:    6409120  HIT:    6404697  MISS:       4423  HIT %:     99.931  MISS %:   0.069011   MPKI: 0.08846
STLB LOAD TRANSLATION ACCESS:     197070  HIT:     192648  MISS:       4422  HIT %:    97.7561  MISS %:    2.24387   MPKI: 0.08844
STLB TRANSLATION FROM L1D PREFETCHER ACCESS:    6212050  HIT:    6212049  MISS:          1  HIT %:        100  MISS %: 1.60977e-05   MPKI: 2e-05
STLB PREFETCH  REQUESTED:          0  ISSUED:          0  USEFUL:          1  USELESS:          0
STLB USEFUL LOAD PREFETCHES:          1 PREFETCH ISSUED TO LOWER LEVEL:          0  ACCURACY: inf
STLB TIMELY PREFETCHES:          1 LATE PREFETCHES: 0 DROPPED PREFETCHES: 0
STLB PREFETCHES SAME FILL-ORIGIN LEVEL: 0 DIFFERENT FILL-ORIGIN LEVEL: 0
STLB AVERAGE MISS LATENCY: 192.821 cycles
STLB RQ	ACCESS:   21392484	FORWARD:          0	MERGED:   14983363	TO_CACHE:    6409121

STLB Hit, L1D data hit: 0
STLB Hit, L2C data hit: 0
STLB Hit, LLC data hit: 0
STLB Hit, LLC data miss: 0
STLB STLB hints to L2: 0
L1D TOTAL     ACCESS:   36382069  HIT:   24104136  MISS:   12277933  HIT %:    66.2528  MISS %:    33.7472   MPKI: 245.559
L1D LOAD      ACCESS:   16170786  HIT:   13183306  MISS:    2987480  HIT %:    81.5254  MISS %:    18.4746   MPKI: 59.7496
L1D RFO       ACCESS:    2503118  HIT:    2353772  MISS:     149346  HIT %:    94.0336  MISS %:     5.9664   MPKI: 2.98692
L1D PREFETCH  ACCESS:   17708165  HIT:    8567058  MISS:    9141107  HIT %:    48.3791  MISS %:    51.6209   MPKI: 182.822
L1D PREFETCH  REQUESTED:   45538206  ISSUED:   42420136  USEFUL:    4551495  USELESS:    4589613
L1D USEFUL LOAD PREFETCHES:    4551495 PREFETCH ISSUED TO LOWER LEVEL:   10943881  ACCURACY: 41.5894
L1D TIMELY PREFETCHES:    4551495 LATE PREFETCHES: 1802684 DROPPED PREFETCHES: 0
L1D PREFETCHES SAME FILL-ORIGIN LEVEL: 10943881 DIFFERENT FILL-ORIGIN LEVEL: 0
L1D AVERAGE MISS LATENCY: 1.04901e+07 cycles
L1D RQ	ACCESS:   20638992	FORWARD:          0	MERGED:    4152818	TO_CACHE:   16458188
L1D WQ	ACCESS:    3596625	FORWARD:      27986	MERGED:     610815	TO_CACHE:    2985810
L1D PQ	ACCESS:   21224722	FORWARD:          0	MERGED:      29308	TO_CACHE:   21195414

L1D UNIQUE REGIONS ACCESSED: 0
L1D REGIONS CONFLICTS: 0
L1D Cross Page Prefetch Requests: 0
L1D Same Page Prefetch Requests: 24071146
L1D ROI Sum of L1D PQ occupancy: 645732955
L1D PREFETCHES PUSHED FROM L2C: 0
L1I TOTAL     ACCESS:   12462984  HIT:   12462984  MISS:          0  HIT %:        100  MISS %:          0   MPKI: 0
L1I LOAD      ACCESS:   12462984  HIT:   12462984  MISS:          0  HIT %:        100  MISS %:          0   MPKI: 0
L1I PREFETCH  REQUESTED:          0  ISSUED:          0  USEFUL:          0  USELESS:          0
L1I USEFUL LOAD PREFETCHES:          0 PREFETCH ISSUED TO LOWER LEVEL:          0  ACCURACY: -nan
L1I TIMELY PREFETCHES:          0 LATE PREFETCHES: 0 DROPPED PREFETCHES: 0
L1I PREFETCHES SAME FILL-ORIGIN LEVEL: 0 DIFFERENT FILL-ORIGIN LEVEL: 0
L1I AVERAGE MISS LATENCY: -nan cycles
L1I RQ	ACCESS:   17016572	FORWARD:          0	MERGED:    4553586	TO_CACHE:   12462986

BTB TOTAL     ACCESS:    8799470  HIT:    8799438  MISS:         32  HIT %:    99.9996  MISS %: 0.000363658   MPKI: 0.00064
BTB BRANCH_DIRECT_JUMP	ACCESS:    2054756  HIT:    2054750  MISS:          6
BTB BRANCH_INDIRECT	ACCESS:          0  HIT:          0  MISS:          0
BTB BRANCH_CONDITIONAL	ACCESS:    6743910  HIT:    6743888  MISS:         22
BTB BRANCH_DIRECT_CALL	ACCESS:        402  HIT:        400  MISS:          2
BTB BRANCH_INDIRECT_CALL	ACCESS:          0  HIT:          0  MISS:          0
BTB BRANCH_RETURN	ACCESS:        402  HIT:        400  MISS:          2
BTB BRANCH_OTHER ACCESS:          0  HIT:          0  MISS:          0

L2C TOTAL     ACCESS:   12578714  HIT:     309181  MISS:   12269533  HIT %:    2.45797  MISS %:     97.542   MPKI: 245.391
L2C LOAD      ACCESS:    1184793  HIT:      11709  MISS:    1173084  HIT %:   0.988274  MISS %:    99.0117   MPKI: 23.4617
L2C DATA LOAD MPKI: 23.4617
L2C INSTRUCTION LOAD MPKI: 0
L2C RFO       ACCESS:     149287  HIT:        869  MISS:     148418  HIT %:     0.5821  MISS %:    99.4179   MPKI: 2.96836
L2C PREFETCH  ACCESS:   11055055  HIT:     108789  MISS:   10946266  HIT %:   0.984066  MISS %:    99.0159   MPKI: 218.925
L2C DATA PREFETCH MPKI: 218.925
L2C INSTRUCTION PREFETCH MPKI: 0
L2C WRITEBACK ACCESS:     185156  HIT:     184588  MISS:        568  HIT %:    99.6932  MISS %:   0.306768   MPKI: 0.01136
L2C LOAD TRANSLATION ACCESS:       4422  HIT:       3226  MISS:       1196  HIT %:    72.9534  MISS %:    27.0466   MPKI: 0.02392
L2C TRANSLATION FROM L1D PREFETCHER ACCESS:          1  HIT:          0  MISS:          1  HIT %:          0  MISS %:        100   MPKI: 2e-05
L2C PREFETCH  REQUESTED:     185108  ISSUED:     185105  USEFUL:      11323  USELESS:   10935626
L2C USEFUL LOAD PREFETCHES:      11323 PREFETCH ISSUED TO LOWER LEVEL:   10946485  ACCURACY: 0.10344
L2C TIMELY PREFETCHES:      11323 LATE PREFETCHES: 209 DROPPED PREFETCHES: 0
L2C PREFETCHES SAME FILL-ORIGIN LEVEL: 70602 DIFFERENT FILL-ORIGIN LEVEL: 0
L2C AVERAGE MISS LATENCY: 100.141 cycles
L2C RQ	ACCESS:    1338513	FORWARD:          0	MERGED:          0	TO_CACHE:    1338507
L2C WQ	ACCESS:     185156	FORWARD:         14	MERGED:          0	TO_CACHE:     185156
L2C PQ	ACCESS:   11128963	FORWARD:          0	MERGED:      66406	TO_CACHE:   11062549

L2C Instructions Evicting Data 0
L2C Translations Evicting Data 1197
L2C Data Evicting Data 12266571
L2C Instructions Evicting Instructions 0
L2C Translations Evicting Instructions 0
L2C Data Evicting Instructions 0
L2C Instructions Evicting Translations 0
L2C Translations Evicting Translations 0
L2C Data Evicting Translations 1197
L2C Dense regions hint from L2: 0
PSCL5 TOTAL     ACCESS:       4423  HIT:       4423  MISS:          0  HIT %:        100  MISS %:          0   MPKI: 0
PSCL5 LOAD TRANSLATION ACCESS:       4422  HIT:       4422  MISS:          0  HIT %:        100  MISS %:          0   MPKI: 0
PSCL5 TRANSLATION FROM L1D PREFETCHER ACCESS:          1  HIT:          1  MISS:          0  HIT %:        100  MISS %:          0   MPKI: 0
PSCL5 PREFETCH  REQUESTED:          0  ISSUED:          0  USEFUL:          0  USELESS:          0
PSCL5 USEFUL LOAD PREFETCHES:          0 PREFETCH ISSUED TO LOWER LEVEL:          0  ACCURACY: -nan
PSCL5 TIMELY PREFETCHES:          0 LATE PREFETCHES: 0 DROPPED PREFETCHES: 0
PSCL5 PREFETCHES SAME FILL-ORIGIN LEVEL: 0 DIFFERENT FILL-ORIGIN LEVEL: 0

PSCL4 TOTAL     ACCESS:       4423  HIT:       4423  MISS:          0  HIT %:        100  MISS %:          0   MPKI: 0
PSCL4 LOAD TRANSLATION ACCESS:       4422  HIT:       4422  MISS:          0  HIT %:        100  MISS %:          0   MPKI: 0
PSCL4 TRANSLATION FROM L1D PREFETCHER ACCESS:          1  HIT:          1  MISS:          0  HIT %:        100  MISS %:          0   MPKI: 0
PSCL4 PREFETCH  REQUESTED:          0  ISSUED:          0  USEFUL:          0  USELESS:          0
PSCL4 USEFUL LOAD PREFETCHES:          0 PREFETCH ISSUED TO LOWER LEVEL:          0  ACCURACY: -nan
PSCL4 TIMELY PREFETCHES:          0 LATE PREFETCHES: 0 DROPPED PREFETCHES: 0
PSCL4 PREFETCHES SAME FILL-ORIGIN LEVEL: 0 DIFFERENT FILL-ORIGIN LEVEL: 0

PSCL3 TOTAL     ACCESS:       4423  HIT:       4423  MISS:          0  HIT %:        100  MISS %:          0   MPKI: 0
PSCL3 LOAD TRANSLATION ACCESS:       4422  HIT:       4422  MISS:          0  HIT %:        100  MISS %:          0   MPKI: 0
PSCL3 TRANSLATION FROM L1D PREFETCHER ACCESS:          1  HIT:          1  MISS:          0  HIT %:        100  MISS %:          0   MPKI: 0
PSCL3 PREFETCH  REQUESTED:          0  ISSUED:          0  USEFUL:          0  USELESS:          0
PSCL3 USEFUL LOAD PREFETCHES:          0 PREFETCH ISSUED TO LOWER LEVEL:          0  ACCURACY: -nan
PSCL3 TIMELY PREFETCHES:          0 LATE PREFETCHES: 0 DROPPED PREFETCHES: 0
PSCL3 PREFETCHES SAME FILL-ORIGIN LEVEL: 0 DIFFERENT FILL-ORIGIN LEVEL: 0

PSCL2 TOTAL     ACCESS:       4423  HIT:       4414  MISS:          9  HIT %:    99.7965  MISS %:   0.203482   MPKI: 0.00018
PSCL2 LOAD TRANSLATION ACCESS:       4422  HIT:       4413  MISS:          9  HIT %:    99.7965  MISS %:   0.203528   MPKI: 0.00018
PSCL2 TRANSLATION FROM L1D PREFETCHER ACCESS:          1  HIT:          1  MISS:          0  HIT %:        100  MISS %:          0   MPKI: 0
PSCL2 PREFETCH  REQUESTED:          0  ISSUED:          0  USEFUL:          0  USELESS:          0
PSCL2 USEFUL LOAD PREFETCHES:          0 PREFETCH ISSUED TO LOWER LEVEL:          0  ACCURACY: -nan
PSCL2 TIMELY PREFETCHES:          0 LATE PREFETCHES: 0 DROPPED PREFETCHES: 0
PSCL2 PREFETCHES SAME FILL-ORIGIN LEVEL: 0 DIFFERENT FILL-ORIGIN LEVEL: 0

LLC TOTAL     ACCESS:   12453438  HIT:    5991854  MISS:    6461584  HIT %:    48.1141  MISS %:    51.8859   MPKI: 129.232
LLC LOAD      ACCESS:    1172897  HIT:     556371  MISS:     616526  HIT %:    47.4356  MISS %:    52.5644   MPKI: 12.3305
LLC RFO       ACCESS:     148396  HIT:        436  MISS:     147960  HIT %:   0.293808  MISS %:    99.7062   MPKI: 2.9592
LLC PREFETCH  ACCESS:   10946478  HIT:    5420020  MISS:    5526458  HIT %:    49.5138  MISS %:    50.4862   MPKI: 110.529
LLC WRITEBACK ACCESS:     184470  HIT:      15021  MISS:     169449  HIT %:    8.14279  MISS %:    91.8572   MPKI: 3.38898
LLC LOAD TRANSLATION ACCESS:       1196  HIT:          6  MISS:       1190  HIT %:   0.501672  MISS %:    99.4983   MPKI: 0.0238
LLC TRANSLATION FROM L1D PREFETCHER ACCESS:          1  HIT:          0  MISS:          1  HIT %:          0  MISS %:        100   MPKI: 2e-05
LLC PREFETCH  REQUESTED:          0  ISSUED:          0  USEFUL:      13341  USELESS:    5521106
LLC USEFUL LOAD PREFETCHES:      13341 PREFETCH ISSUED TO LOWER LEVEL:    5526466  ACCURACY: 0.241402
LLC TIMELY PREFETCHES:      13341 LATE PREFETCHES: 0 DROPPED PREFETCHES: 0
LLC PREFETCHES SAME FILL-ORIGIN LEVEL: 0 DIFFERENT FILL-ORIGIN LEVEL: 0
LLC AVERAGE MISS LATENCY: 133.035 cycles
LLC RQ	ACCESS:    1322494	FORWARD:          0	MERGED:          0	TO_CACHE:    1322494
LLC WQ	ACCESS:     184470	FORWARD:          0	MERGED:          0	TO_CACHE:     184470
LLC PQ	ACCESS:   10946485	FORWARD:          0	MERGED:          0	TO_CACHE:   10946485

LLC Dense regions hint to LLC: 0

RAW hits: 2029338
Loads Generated: 22668335
Loads sent to L1D: 20638992
Stores Generated: 3596624
Stores sent to L1D: 3596625
Major fault: 0 Minor fault: 6307
Allocated PAGES: 6307

stream: 
stream:times selected: 12181886
stream:pref_filled: 9545084
stream:pref_useful: 4506091
stream:pref_late: 1332601
stream:misses: 273644
stream:misses_by_poll: 0

CS: 
CS:times selected: 1591048
CS:pref_filled: 83679
CS:pref_useful: 64404
CS:pref_late: 1179
CS:misses: 51045
CS:misses_by_poll: 442

CPLX: 
CPLX:times selected: 10590248
CPLX:pref_filled: 1643617
CPLX:pref_useful: 1225256
CPLX:pref_late: 470755
CPLX:misses: 3146974
CPLX:misses_by_poll: 20388

NL_L1: 
NL:times selected: 29371
NL:pref_filled: 233
NL:pref_useful: 148
NL:pref_late: 0
NL:misses: 19140
NL:misses_by_poll: 0

total selections: 24392553
total_filled: 9141107
total_useful: 4551495
total_late: 1855299
total_polluted: 20830
total_misses_after_warmup: 3274887
conflicts: 20473
Degree Incremented Times: 103356
Degree Decremented Times: 0

L1 IP Table Write Accesses: 16327132
L1 IP Table Read Accesses: 16306659
L1 RST Write Accesses: 10286175
L1 RST Read Accesses: 20572350
L1 CSPT Write Accesses: 10286175
L1 CSPT Read Accesses: 35369530
L1 RR Filter Tag Write Accesses: 24342792
L1 RR Filter Tag Read Accesses: 1734201385
L1 IP Table Tag Write Accesses: 16458193
L1 IP Table Tag Read Accesses: 16458193
L1 RST Tag Write Accesses: 0
L1 RST Tag Read Accesses: 92501747
L1 RR Filter Write Accesses: 0
L1 RR Filter Read Accesses: 74731930
test: 630976
L2 IP Table Read Accesses: 24217875
L2 IP Table Write Accesses: 23033257
L2 IP Table Tag Read Accesses: 12109027
L2 IP Table Tag Write Accesses: 12109027

DRAM Statistics
 CHANNEL 0
 RQ ROW_BUFFER_HIT:    4599135  ROW_BUFFER_MISS:    1692992
 DBUS_CONGESTED:       6521
 WQ ROW_BUFFER_HIT:      46600  ROW_BUFFER_MISS:     136667  FULL:          0

 AVG_CONGESTED_CYCLE: 5
 All warmup complete: 2
Channel 0 Bank busy for read cycles: 0
Channel 0 Bank busy for write cycles: 0
Channel 0
Rank 0
0banks busy for read cycles: 8848353
0banks busy for write cycles: 4095
1banks busy for read cycles: 17066877
1banks busy for write cycles: 1377123
2banks busy for read cycles: 15120357
2banks busy for write cycles: 623429
3banks busy for read cycles: 13807363
3banks busy for write cycles: 446674
4banks busy for read cycles: 14781241
4banks busy for write cycles: 367885
5banks busy for read cycles: 17267876
5banks busy for write cycles: 339507
6banks busy for read cycles: 17290506
6banks busy for write cycles: 453348
7banks busy for read cycles: 13204634
7banks busy for write cycles: 909001
8banks busy for read cycles: 6874666
8banks busy for write cycles: 7067144

CPU 0 Branch Prediction Accuracy: 97.7265% MPKI: 4.14186 Average ROB Occupancy at Mispredict: 47.11
Branch types
NOT_BRANCH: 40890873 81.7817%
BRANCH_DIRECT_JUMP: 2054756 4.10951%
BRANCH_INDIRECT: 0 0%
BRANCH_CONDITIONAL: 7053560 14.1071%
BRANCH_DIRECT_CALL: 402 0.000804%
BRANCH_INDIRECT_CALL: 0 0%
BRANCH_RETURN: 402 0.000804%
BRANCH_OTHER: 0 0%

@sumon_overall_L1D   4551495   1802684   4589613   9141107  42420136  45538206
@Sumon_Early_by_class_L1D   3602251     54637    894607         0
@Sumon_Late_by_class_L1D   1288337      1128    462470         0

@Sumon_Early_by_cycle_L1D   1632813   1328250    973421    302982    111548    179275     16996      5017      1134        59         0         0
@Sumon_Late_by_cycle_L1D   1236110    494308     70111      1849       267        39         0         0         0         0         0         0
@Sumon_Early_stream_L1D   1357189   1008401    772180    239647     83807    132456      6219      1995       333        24         0         0
@Sumon_Early_CS_L1D      2224      3288      5827      6096      5512     20767      8417      2193       305         8         0         0
@Sumon_Early_CPLX_L1D    273400    316561    195414     57239     22229     26052      2360       829       496        27         0         0
@Sumon_Late_stream_L1D    861364    375106     50283      1358       198        28         0         0         0         0         0         0
@Sumon_Late_CS_L1D       682       387        57         2         0         0         0         0         0         0         0         0
@Sumon_Late_CPLX_L1D    323315    118815     19771       489        69        11         0         0         0         0         0         0
@sumon_overall_L2C     11323       209  10935626  10946267    185105    185108
@Sumon_Early_by_class_L2C       350     10772       201         0
@Sumon_Late_by_class_L2C         0       202         0         0

@Sumon_Early_by_cycle_L2C       219       323       548       523       522      3460      2720      1501       947       467        64        29
@Sumon_Late_by_cycle_L2C       110        80        17         2         0         0         0         0         0         0         0         0
@Sumon_Early_stream_L2C         0         0         0         0         0         0         0        21       149       145        25        10
@Sumon_Early_CS_L2C       219       323       548       523       522      3460      2720      1477       746       228         5         1
@Sumon_Early_CPLX_L2C         0         0         0         0         0         0         0         3        52        94        34        18
@Sumon_Late_stream_L2C         0         0         0         0         0         0         0         0         0         0         0         0
@Sumon_Late_CS_L2C       103        80        17         2         0         0         0         0         0         0         0         0
@Sumon_Late_CPLX_L2C         0         0         0         0         0         0         0         0         0         0         0         0
DRAM PAGES: 1048576
Allocated PAGES: 6307
