
*** ChampSim Multicore Out-of-Order Simulator ***

Warmup Instructions: 10000000
Simulation Instructions: 50000000
Number of CPUs: 1
LLC sets: 2048
LLC ways: 16
Off-chip DRAM Size: 4096 MB Channels: 1 Width: 64-bit Data Rate: 6400 MT/s
CPU 0 runs traces/SPEC2017/619.lbm_s-4268B.champsimtrace.xz
.xz
CPU 0 Bimodal branch predictor
BTB has LRU replacement policy
ITLB has LRU replacement policy
DTLB has LRU replacement policy
STLB has LRU replacement policy
L1I has LRU replacement policy
IP Table Entries: 256
L1D has LRU replacement policy
IP_Table L2 entries: 256
L2C has LRU replacement policy
Initialize DRRIP state for LLC
Heartbeat CPU 0 instructions: 10000000 cycles: 2905130 heartbeat IPC: 3.44219 cumulative IPC: 3.44219 (Simulation time: 0 hr 19 min 55 sec) 

Warmup complete CPU 0 instructions: 10000004 cycles: 2905131 (Simulation time: 0 hr 19 min 55 sec) 

Heartbeat CPU 0 instructions: 20000001 cycles: 22836724 heartbeat IPC: 0.501716 cumulative IPC: 0.501716 (Simulation time: 1 hr 10 min 4 sec) 
Heartbeat CPU 0 instructions: 30000001 cycles: 42599613 heartbeat IPC: 0.505999 cumulative IPC: 0.503848 (Simulation time: 1 hr 55 min 56 sec) 
Heartbeat CPU 0 instructions: 40000002 cycles: 62579761 heartbeat IPC: 0.500497 cumulative IPC: 0.502726 (Simulation time: 2 hr 16 min 24 sec) 
Heartbeat CPU 0 instructions: 50000001 cycles: 82595577 heartbeat IPC: 0.499605 cumulative IPC: 0.501942 (Simulation time: 2 hr 26 min 44 sec) 
Heartbeat CPU 0 instructions: 60000000 cycles: 103039175 heartbeat IPC: 0.489151 cumulative IPC: 0.499331 (Simulation time: 2 hr 31 min 42 sec) 
Finished CPU 0 instructions: 50000000 cycles: 100134050 cumulative IPC: 0.499331 (Simulation time: 2 hr 31 min 42 sec) 

ChampSim completed all CPUs

Region of Interest Statistics

CPU 0 cumulative IPC: 0.499331 instructions: 50000000 cycles: 100134050
ITLB TOTAL     ACCESS:    6750261  HIT:    6750261  MISS:          0  HIT %:        100  MISS %:          0   MPKI: 0
ITLB LOAD TRANSLATION ACCESS:    6750261  HIT:    6750261  MISS:          0  HIT %:        100  MISS %:          0   MPKI: 0
ITLB PREFETCH  REQUESTED:          0  ISSUED:          0  USEFUL:          0  USELESS:          0
ITLB USEFUL LOAD PREFETCHES:          0 PREFETCH ISSUED TO LOWER LEVEL:          0  ACCURACY: -nan
ITLB TIMELY PREFETCHES:          0 LATE PREFETCHES: 0 DROPPED PREFETCHES: 0
ITLB PREFETCHES SAME FILL-ORIGIN LEVEL: 0 DIFFERENT FILL-ORIGIN LEVEL: 0
ITLB AVERAGE MISS LATENCY: -nan cycles
ITLB RQ	ACCESS:    8699612	FORWARD:          0	MERGED:    1949351	TO_CACHE:    6750261

DTLB TOTAL     ACCESS:    8904452  HIT:    8836416  MISS:      68036  HIT %:    99.2359  MISS %:   0.764067   MPKI: 1.36072
DTLB LOAD TRANSLATION ACCESS:    8904452  HIT:    8836416  MISS:      68036  HIT %:    99.2359  MISS %:   0.764067   MPKI: 1.36072
DTLB PREFETCH  REQUESTED:          0  ISSUED:          0  USEFUL:          0  USELESS:          0
DTLB USEFUL LOAD PREFETCHES:          0 PREFETCH ISSUED TO LOWER LEVEL:          0  ACCURACY: -nan
DTLB TIMELY PREFETCHES:          0 LATE PREFETCHES: 0 DROPPED PREFETCHES: 0
DTLB PREFETCHES SAME FILL-ORIGIN LEVEL: 0 DIFFERENT FILL-ORIGIN LEVEL: 0
DTLB AVERAGE MISS LATENCY: 115.797 cycles
DTLB RQ	ACCESS:   12335030	FORWARD:          0	MERGED:    3404655	TO_CACHE:    8930375

STLB TOTAL     ACCESS:     426581  HIT:     389666  MISS:      36915  HIT %:    91.3463  MISS %:    8.65369   MPKI: 0.7383
STLB LOAD TRANSLATION ACCESS:      68036  HIT:      31121  MISS:      36915  HIT %:     45.742  MISS %:     54.258   MPKI: 0.7383
STLB TRANSLATION FROM L1D PREFETCHER ACCESS:     358545  HIT:     358545  MISS:          0  HIT %:        100  MISS %:          0   MPKI: 0
STLB PREFETCH  REQUESTED:          0  ISSUED:          0  USEFUL:          0  USELESS:          0
STLB USEFUL LOAD PREFETCHES:          0 PREFETCH ISSUED TO LOWER LEVEL:          0  ACCURACY: -nan
STLB TIMELY PREFETCHES:          0 LATE PREFETCHES: 0 DROPPED PREFETCHES: 0
STLB PREFETCHES SAME FILL-ORIGIN LEVEL: 0 DIFFERENT FILL-ORIGIN LEVEL: 0
STLB AVERAGE MISS LATENCY: 193.999 cycles
STLB RQ	ACCESS:     674020	FORWARD:          0	MERGED:     247439	TO_CACHE:     426581

STLB Hit, L1D data hit: 0
STLB Hit, L2C data hit: 0
STLB Hit, LLC data hit: 0
STLB Hit, LLC data miss: 0
STLB STLB hints to L2: 0
L1D TOTAL     ACCESS:   12710198  HIT:    8812869  MISS:    3897329  HIT %:     69.337  MISS %:     30.663   MPKI: 77.9466
L1D LOAD      ACCESS:    4213381  HIT:    4012768  MISS:     200613  HIT %:    95.2387  MISS %:    4.76133   MPKI: 4.01226
L1D RFO       ACCESS:    8000085  HIT:    4693352  MISS:    3306733  HIT %:    58.6663  MISS %:    41.3337   MPKI: 66.1347
L1D PREFETCH  ACCESS:     496732  HIT:     106749  MISS:     389983  HIT %:    21.4903  MISS %:    78.5097   MPKI: 7.79966
L1D PREFETCH  REQUESTED:    1237057  ISSUED:    1211975  USEFUL:     389980  USELESS:          0
L1D USEFUL LOAD PREFETCHES:     389980 PREFETCH ISSUED TO LOWER LEVEL:     428339  ACCURACY: 91.0447
L1D TIMELY PREFETCHES:     389980 LATE PREFETCHES: 38138 DROPPED PREFETCHES: 0
L1D PREFETCHES SAME FILL-ORIGIN LEVEL: 428339 DIFFERENT FILL-ORIGIN LEVEL: 0
L1D AVERAGE MISS LATENCY: 521747 cycles
L1D RQ	ACCESS:   12464085	FORWARD:          0	MERGED:    5800490	TO_CACHE:    4270441
L1D WQ	ACCESS:    9189920	FORWARD:    2393154	MERGED:    1125331	TO_CACHE:    8064589
L1D PQ	ACCESS:     605991	FORWARD:          0	MERGED:          7	TO_CACHE:     605984

L1D UNIQUE REGIONS ACCESSED: 0
L1D REGIONS CONFLICTS: 0
L1D Cross Page Prefetch Requests: 0
L1D Same Page Prefetch Requests: 732899
L1D ROI Sum of L1D PQ occupancy: 558528097
L1D PREFETCHES PUSHED FROM L2C: 0
L1I TOTAL     ACCESS:    8699612  HIT:    8699612  MISS:          0  HIT %:        100  MISS %:          0   MPKI: 0
L1I LOAD      ACCESS:    8699612  HIT:    8699612  MISS:          0  HIT %:        100  MISS %:          0   MPKI: 0
L1I PREFETCH  REQUESTED:          0  ISSUED:          0  USEFUL:          0  USELESS:          0
L1I USEFUL LOAD PREFETCHES:          0 PREFETCH ISSUED TO LOWER LEVEL:          0  ACCURACY: -nan
L1I TIMELY PREFETCHES:          0 LATE PREFETCHES: 0 DROPPED PREFETCHES: 0
L1I PREFETCHES SAME FILL-ORIGIN LEVEL: 0 DIFFERENT FILL-ORIGIN LEVEL: 0
L1I AVERAGE MISS LATENCY: -nan cycles
L1I RQ	ACCESS:   12538498	FORWARD:          0	MERGED:    3838886	TO_CACHE:    8699612

BTB TOTAL     ACCESS:     892946  HIT:     892940  MISS:          6  HIT %:    99.9993  MISS %: 0.000671933   MPKI: 0.00012
BTB BRANCH_DIRECT_JUMP	ACCESS:     143974  HIT:     143973  MISS:          1
BTB BRANCH_INDIRECT	ACCESS:          0  HIT:          0  MISS:          0
BTB BRANCH_CONDITIONAL	ACCESS:     748972  HIT:     748967  MISS:          5
BTB BRANCH_DIRECT_CALL	ACCESS:          0  HIT:          0  MISS:          0
BTB BRANCH_INDIRECT_CALL	ACCESS:          0  HIT:          0  MISS:          0
BTB BRANCH_RETURN	ACCESS:          0  HIT:          0  MISS:          0
BTB BRANCH_OTHER ACCESS:          0  HIT:          0  MISS:          0

L2C TOTAL     ACCESS:    7863835  HIT:    5468258  MISS:    2395577  HIT %:    69.5368  MISS %:    30.4632   MPKI: 47.9115
L2C LOAD      ACCESS:     162475  HIT:      84601  MISS:      77874  HIT %:    52.0702  MISS %:    47.9298   MPKI: 1.55748
L2C DATA LOAD MPKI: 1.55748
L2C INSTRUCTION LOAD MPKI: 0
L2C RFO       ACCESS:    3306729  HIT:    1506493  MISS:    1800236  HIT %:    45.5584  MISS %:    54.4416   MPKI: 36.0047
L2C PREFETCH  ACCESS:    1050971  HIT:     538310  MISS:     512661  HIT %:    51.2203  MISS %:    48.7797   MPKI: 10.2532
L2C DATA PREFETCH MPKI: 10.2532
L2C INSTRUCTION PREFETCH MPKI: 0
L2C WRITEBACK ACCESS:    3306743  HIT:    3306600  MISS:        143  HIT %:    99.9957  MISS %:  0.0043245   MPKI: 0.00286
L2C LOAD TRANSLATION ACCESS:      36917  HIT:      32254  MISS:       4663  HIT %:     87.369  MISS %:     12.631   MPKI: 0.09326
L2C PREFETCH  REQUESTED:     954860  ISSUED:     954817  USEFUL:      84541  USELESS:     428158
L2C USEFUL LOAD PREFETCHES:      84541 PREFETCH ISSUED TO LOWER LEVEL:     526260  ACCURACY: 16.0645
L2C TIMELY PREFETCHES:      84541 LATE PREFETCHES: 13596 DROPPED PREFETCHES: 0
L2C PREFETCHES SAME FILL-ORIGIN LEVEL: 346058 DIFFERENT FILL-ORIGIN LEVEL: 0
L2C AVERAGE MISS LATENCY: 674.824 cycles
L2C RQ	ACCESS:    3506138	FORWARD:          0	MERGED:          0	TO_CACHE:    3506134
L2C WQ	ACCESS:    3306743	FORWARD:          4	MERGED:          0	TO_CACHE:    3306743
L2C PQ	ACCESS:    1382941	FORWARD:          0	MERGED:     173598	TO_CACHE:    1209343

L2C Instructions Evicting Data 0
L2C Translations Evicting Data 4631
L2C Data Evicting Data 2386143
L2C Instructions Evicting Instructions 0
L2C Translations Evicting Instructions 0
L2C Data Evicting Instructions 0
L2C Instructions Evicting Translations 0
L2C Translations Evicting Translations 32
L2C Data Evicting Translations 4628
L2C Dense regions hint from L2: 0
PSCL5 TOTAL     ACCESS:      36915  HIT:      36915  MISS:          0  HIT %:        100  MISS %:          0   MPKI: 0
PSCL5 LOAD TRANSLATION ACCESS:      36915  HIT:      36915  MISS:          0  HIT %:        100  MISS %:          0   MPKI: 0
PSCL5 PREFETCH  REQUESTED:          0  ISSUED:          0  USEFUL:          0  USELESS:          0
PSCL5 USEFUL LOAD PREFETCHES:          0 PREFETCH ISSUED TO LOWER LEVEL:          0  ACCURACY: -nan
PSCL5 TIMELY PREFETCHES:          0 LATE PREFETCHES: 0 DROPPED PREFETCHES: 0
PSCL5 PREFETCHES SAME FILL-ORIGIN LEVEL: 0 DIFFERENT FILL-ORIGIN LEVEL: 0

PSCL4 TOTAL     ACCESS:      36915  HIT:      36915  MISS:          0  HIT %:        100  MISS %:          0   MPKI: 0
PSCL4 LOAD TRANSLATION ACCESS:      36915  HIT:      36915  MISS:          0  HIT %:        100  MISS %:          0   MPKI: 0
PSCL4 PREFETCH  REQUESTED:          0  ISSUED:          0  USEFUL:          0  USELESS:          0
PSCL4 USEFUL LOAD PREFETCHES:          0 PREFETCH ISSUED TO LOWER LEVEL:          0  ACCURACY: -nan
PSCL4 TIMELY PREFETCHES:          0 LATE PREFETCHES: 0 DROPPED PREFETCHES: 0
PSCL4 PREFETCHES SAME FILL-ORIGIN LEVEL: 0 DIFFERENT FILL-ORIGIN LEVEL: 0

PSCL3 TOTAL     ACCESS:      36915  HIT:      36915  MISS:          0  HIT %:        100  MISS %:          0   MPKI: 0
PSCL3 LOAD TRANSLATION ACCESS:      36915  HIT:      36915  MISS:          0  HIT %:        100  MISS %:          0   MPKI: 0
PSCL3 PREFETCH  REQUESTED:          0  ISSUED:          0  USEFUL:          0  USELESS:          0
PSCL3 USEFUL LOAD PREFETCHES:          0 PREFETCH ISSUED TO LOWER LEVEL:          0  ACCURACY: -nan
PSCL3 TIMELY PREFETCHES:          0 LATE PREFETCHES: 0 DROPPED PREFETCHES: 0
PSCL3 PREFETCHES SAME FILL-ORIGIN LEVEL: 0 DIFFERENT FILL-ORIGIN LEVEL: 0

PSCL2 TOTAL     ACCESS:      36915  HIT:      36877  MISS:         38  HIT %:    99.8971  MISS %:   0.102939   MPKI: 0.00076
PSCL2 LOAD TRANSLATION ACCESS:      36915  HIT:      36877  MISS:         38  HIT %:    99.8971  MISS %:   0.102939   MPKI: 0.00076
PSCL2 PREFETCH  REQUESTED:          0  ISSUED:          0  USEFUL:          0  USELESS:          0
PSCL2 USEFUL LOAD PREFETCHES:          0 PREFETCH ISSUED TO LOWER LEVEL:          0  ACCURACY: -nan
PSCL2 TIMELY PREFETCHES:          0 LATE PREFETCHES: 0 DROPPED PREFETCHES: 0
PSCL2 PREFETCHES SAME FILL-ORIGIN LEVEL: 0 DIFFERENT FILL-ORIGIN LEVEL: 0

LLC TOTAL     ACCESS:    4196381  HIT:    1802034  MISS:    2394347  HIT %:    42.9426  MISS %:    57.0574   MPKI: 47.8869
LLC LOAD      ACCESS:      64278  HIT:         38  MISS:      64240  HIT %:  0.0591182  MISS %:    99.9409   MPKI: 1.2848
LLC RFO       ACCESS:    1800228  HIT:      28901  MISS:    1771327  HIT %:    1.60541  MISS %:    98.3946   MPKI: 35.4265
LLC PREFETCH  ACCESS:     526257  HIT:          0  MISS:     526257  HIT %:          0  MISS %:        100   MPKI: 10.5251
LLC WRITEBACK ACCESS:    1800955  HIT:    1773095  MISS:      27860  HIT %:     98.453  MISS %:    1.54696   MPKI: 0.5572
LLC LOAD TRANSLATION ACCESS:       4663  HIT:          0  MISS:       4663  HIT %:          0  MISS %:        100   MPKI: 0.09326
LLC PREFETCH  REQUESTED:          0  ISSUED:          0  USEFUL:          0  USELESS:     525304
LLC USEFUL LOAD PREFETCHES:          0 PREFETCH ISSUED TO LOWER LEVEL:     526260  ACCURACY: 0
LLC TIMELY PREFETCHES:          0 LATE PREFETCHES: 0 DROPPED PREFETCHES: 0
LLC PREFETCHES SAME FILL-ORIGIN LEVEL: 0 DIFFERENT FILL-ORIGIN LEVEL: 0
LLC AVERAGE MISS LATENCY: 647.48 cycles
LLC RQ	ACCESS:    1869190	FORWARD:          0	MERGED:          0	TO_CACHE:    1869182
LLC WQ	ACCESS:    1800955	FORWARD:          8	MERGED:          0	TO_CACHE:    1800955
LLC PQ	ACCESS:     526260	FORWARD:          0	MERGED:          0	TO_CACHE:     526260

LLC Dense regions hint to LLC: 0

RAW hits: 558016
Loads Generated: 13022102
Loads sent to L1D: 12464085
Stores Generated: 9189899
Stores sent to L1D: 9189920
Major fault: 0 Minor fault: 25334
Allocated PAGES: 25334

stream: 
stream:times selected: 2233801
stream:pref_filled: 82548
stream:pref_useful: 82548
stream:pref_late: 13772
stream:misses: 33833
stream:misses_by_poll: 0

CS: 
CS:times selected: 387190
CS:pref_filled: 216290
CS:pref_useful: 216285
CS:pref_late: 9199
CS:misses: 66552
CS:misses_by_poll: 1469

CPLX: 
CPLX:times selected: 1844246
CPLX:pref_filled: 202537
CPLX:pref_useful: 202531
CPLX:pref_late: 16312
CPLX:misses: 154977
CPLX:misses_by_poll: 1232

NL_L1: 
NL:times selected: 1045
NL:pref_filled: 29
NL:pref_useful: 29
NL:pref_late: 36
NL:misses: 146
NL:misses_by_poll: 0

total selections: 4466282
total_filled: 389983
total_useful: 389980
total_late: 40564
total_polluted: 2701
total_misses_after_warmup: 257672
conflicts: 73408
Degree Incremented Times: 61022
Degree Decremented Times: 0

L1 IP Table Write Accesses: 3836990
L1 IP Table Read Accesses: 3763582
L1 RST Write Accesses: 1839224
L1 RST Read Accesses: 3678448
L1 CSPT Write Accesses: 1839224
L1 CSPT Read Accesses: 5862849
L1 RR Filter Tag Write Accesses: 631073
L1 RR Filter Tag Read Accesses: 301316430
L1 IP Table Tag Write Accesses: 4270440
L1 IP Table Tag Read Accesses: 4270440
L1 RST Tag Write Accesses: 0
L1 RST Tag Read Accesses: 16529291
L1 RR Filter Write Accesses: 0
L1 RR Filter Read Accesses: 13531292
test: 351724
L2 IP Table Read Accesses: 1037690
L2 IP Table Write Accesses: 875302
L2 IP Table Tag Read Accesses: 518968
L2 IP Table Tag Write Accesses: 518968

DRAM Statistics
 CHANNEL 0
 RQ ROW_BUFFER_HIT:     237438  ROW_BUFFER_MISS:    2129049
 DBUS_CONGESTED:          0
 WQ ROW_BUFFER_HIT:     279872  ROW_BUFFER_MISS:    1493262  FULL:          0

 AVG_CONGESTED_CYCLE: -
 All warmup complete: 2
Channel 0 Bank busy for read cycles: 0
Channel 0 Bank busy for write cycles: 0
Channel 0
Rank 0
0banks busy for read cycles: 6437
0banks busy for write cycles: 0
1banks busy for read cycles: 512365
1banks busy for write cycles: 172380
2banks busy for read cycles: 762649
2banks busy for write cycles: 172378
3banks busy for read cycles: 1347656
3banks busy for write cycles: 172377
4banks busy for read cycles: 2379295
4banks busy for write cycles: 172376
5banks busy for read cycles: 6808540
5banks busy for write cycles: 172375
6banks busy for read cycles: 10922124
6banks busy for write cycles: 173061
7banks busy for read cycles: 16142851
7banks busy for write cycles: 1968029
8banks busy for read cycles: 19552860
8banks busy for write cycles: 38696298

CPU 0 Branch Prediction Accuracy: 94.9708% MPKI: 0.89816 Average ROB Occupancy at Mispredict: 165.407
Branch types
NOT_BRANCH: 49106710 98.2134%
BRANCH_DIRECT_JUMP: 143974 0.287948%
BRANCH_INDIRECT: 0 0%
BRANCH_CONDITIONAL: 748973 1.49795%
BRANCH_DIRECT_CALL: 0 0%
BRANCH_INDIRECT_CALL: 0 0%
BRANCH_RETURN: 0 0%
BRANCH_OTHER: 0 0%

@sumon_overall_L1D    389980     38138         0    389983   1211975   1237057
@Sumon_Early_by_class_L1D     59549    182026    148374        29
@Sumon_Late_by_class_L1D     11862      9123     16074        29

@Sumon_Early_by_cycle_L1D     27825     27262     26506     56532     33641    163426     47464      7302        22         0         0         0
@Sumon_Late_by_cycle_L1D      7531      5729     13189      6982      2037      2638        32         0         0         0         0         0
@Sumon_Early_stream_L1D      7793      8514      6655     14223      7223     15052        89         0         0         0         0         0
@Sumon_Early_CS_L1D     10922     10195      9887     24504     13509     92629     20346        34         0         0         0         0
@Sumon_Early_CPLX_L1D      9105      8549      9961     17802     12907     55734     27026      7268        22         0         0         0
@Sumon_Late_stream_L1D      1974      1863      4243      2128       674       972         8         0         0         0         0         0
@Sumon_Late_CS_L1D      1846      1285      2791      1635       599       948        19         0         0         0         0         0
@Sumon_Late_CPLX_L1D      2663      2574      6149      3213       759       711         5         0         0         0         0         0
@sumon_overall_L2C     84541     13596    428158    512661    954817    954860
@Sumon_Early_by_class_L2C     29156     55373         0         0
@Sumon_Late_by_class_L2C     10223      3287         0         0

@Sumon_Early_by_cycle_L2C      7102      3951      6347     12014      4391     37425     13261        50         0         0         0         0
@Sumon_Late_by_cycle_L2C      1881      3039      3963      2730       779      1191        13         0         0         0         0         0
@Sumon_Early_stream_L2C      5667      3156      4566      7862      2168      5710        27         0         0         0         0         0
@Sumon_Early_CS_L2C      1435       795      1781      4151      2223     31708     13230        50         0         0         0         0
@Sumon_Early_CPLX_L2C         0         0         0         0         0         0         0         0         0         0         0         0
@Sumon_Late_stream_L2C      1413      2372      3201      1996       483       747        11         0         0         0         0         0
@Sumon_Late_CS_L2C       384       666       761       734       296       444         2         0         0         0         0         0
@Sumon_Late_CPLX_L2C         0         0         0         0         0         0         0         0         0         0         0         0
DRAM PAGES: 1048576
Allocated PAGES: 25334
