
*** ChampSim Multicore Out-of-Order Simulator ***

Warmup Instructions: 10000000
Simulation Instructions: 50000000
Number of CPUs: 1
LLC sets: 2048
LLC ways: 16
Off-chip DRAM Size: 4096 MB Channels: 1 Width: 64-bit Data Rate: 6400 MT/s
CPU 0 runs traces/SPEC2017/623.xalancbmk_s-202B.champsimtrace.xz
.xz
CPU 0 Bimodal branch predictor
BTB has LRU replacement policy
ITLB has LRU replacement policy
DTLB has LRU replacement policy
STLB has LRU replacement policy
L1I has LRU replacement policy
IP Table Entries: 256
L1D has LRU replacement policy
IP_Table L2 entries: 256
L2C has LRU replacement policy
Initialize DRRIP state for LLC
Heartbeat CPU 0 instructions: 10000001 cycles: 2831149 heartbeat IPC: 3.53214 cumulative IPC: 3.53214 (Simulation time: 0 hr 21 min 23 sec) 

Warmup complete CPU 0 instructions: 10000001 cycles: 2831149 (Simulation time: 0 hr 21 min 23 sec) 

Heartbeat CPU 0 instructions: 20000002 cycles: 19524428 heartbeat IPC: 0.599044 cumulative IPC: 0.599044 (Simulation time: 0 hr 38 min 40 sec) 
Heartbeat CPU 0 instructions: 30000000 cycles: 36216242 heartbeat IPC: 0.599096 cumulative IPC: 0.59907 (Simulation time: 0 hr 56 min 0 sec) 
Heartbeat CPU 0 instructions: 40000002 cycles: 52927862 heartbeat IPC: 0.598386 cumulative IPC: 0.598842 (Simulation time: 1 hr 13 min 17 sec) 
Heartbeat CPU 0 instructions: 50000002 cycles: 69531846 heartbeat IPC: 0.602265 cumulative IPC: 0.599694 (Simulation time: 1 hr 30 min 44 sec) 
Heartbeat CPU 0 instructions: 60000002 cycles: 86058835 heartbeat IPC: 0.605071 cumulative IPC: 0.600762 (Simulation time: 1 hr 47 min 11 sec) 
Finished CPU 0 instructions: 50000001 cycles: 83227686 cumulative IPC: 0.600762 (Simulation time: 1 hr 47 min 11 sec) 

ChampSim completed all CPUs

Region of Interest Statistics

CPU 0 cumulative IPC: 0.600762 instructions: 50000001 cycles: 83227686
ITLB TOTAL     ACCESS:    7300092  HIT:    7300092  MISS:          0  HIT %:        100  MISS %:          0   MPKI: 0
ITLB LOAD TRANSLATION ACCESS:    7300092  HIT:    7300092  MISS:          0  HIT %:        100  MISS %:          0   MPKI: 0
ITLB PREFETCH  REQUESTED:          0  ISSUED:          0  USEFUL:          0  USELESS:          0
ITLB USEFUL LOAD PREFETCHES:          0 PREFETCH ISSUED TO LOWER LEVEL:          0  ACCURACY: -nan
ITLB TIMELY PREFETCHES:          0 LATE PREFETCHES: 0 DROPPED PREFETCHES: 0
ITLB PREFETCHES SAME FILL-ORIGIN LEVEL: 0 DIFFERENT FILL-ORIGIN LEVEL: 0
ITLB AVERAGE MISS LATENCY: -nan cycles
ITLB RQ	ACCESS:    8664070	FORWARD:          0	MERGED:    1363979	TO_CACHE:    7300091

DTLB TOTAL     ACCESS:    8335247  HIT:    8313226  MISS:      22021  HIT %:    99.7358  MISS %:   0.264191   MPKI: 0.44042
DTLB LOAD TRANSLATION ACCESS:    8335247  HIT:    8313226  MISS:      22021  HIT %:    99.7358  MISS %:   0.264191   MPKI: 0.44042
DTLB PREFETCH  REQUESTED:          0  ISSUED:          0  USEFUL:          0  USELESS:          0
DTLB USEFUL LOAD PREFETCHES:          0 PREFETCH ISSUED TO LOWER LEVEL:          0  ACCURACY: -nan
DTLB TIMELY PREFETCHES:          0 LATE PREFETCHES: 0 DROPPED PREFETCHES: 0
DTLB PREFETCHES SAME FILL-ORIGIN LEVEL: 0 DIFFERENT FILL-ORIGIN LEVEL: 0
DTLB AVERAGE MISS LATENCY: 10.8718 cycles
DTLB RQ	ACCESS:    9355119	FORWARD:          0	MERGED:    1019702	TO_CACHE:    8335417

STLB TOTAL     ACCESS:     706358  HIT:     706101  MISS:        257  HIT %:    99.9636  MISS %:  0.0363838   MPKI: 0.00514
STLB LOAD TRANSLATION ACCESS:      22021  HIT:      21764  MISS:        257  HIT %:    98.8329  MISS %:    1.16707   MPKI: 0.00514
STLB TRANSLATION FROM L1D PREFETCHER ACCESS:     684337  HIT:     684337  MISS:          0  HIT %:        100  MISS %:          0   MPKI: 0
STLB PREFETCH  REQUESTED:          0  ISSUED:          0  USEFUL:          0  USELESS:          0
STLB USEFUL LOAD PREFETCHES:          0 PREFETCH ISSUED TO LOWER LEVEL:          0  ACCURACY: -nan
STLB TIMELY PREFETCHES:          0 LATE PREFETCHES: 0 DROPPED PREFETCHES: 0
STLB PREFETCHES SAME FILL-ORIGIN LEVEL: 0 DIFFERENT FILL-ORIGIN LEVEL: 0
STLB AVERAGE MISS LATENCY: 160.381 cycles
STLB RQ	ACCESS:    1867147	FORWARD:          0	MERGED:    1160789	TO_CACHE:     706358

STLB Hit, L1D data hit: 0
STLB Hit, L2C data hit: 0
STLB Hit, LLC data hit: 0
STLB Hit, LLC data miss: 0
STLB STLB hints to L2: 0
L1D TOTAL     ACCESS:   11166973  HIT:    9801361  MISS:    1365612  HIT %:     87.771  MISS %:     12.229   MPKI: 27.3122
L1D LOAD      ACCESS:    8468857  HIT:    8409370  MISS:      59487  HIT %:    99.2976  MISS %:   0.702421   MPKI: 1.18974
L1D RFO       ACCESS:     885861  HIT:     885861  MISS:          0  HIT %:        100  MISS %:          0   MPKI: 0
L1D PREFETCH  ACCESS:    1812255  HIT:     506130  MISS:    1306125  HIT %:    27.9282  MISS %:    72.0718   MPKI: 26.1225
L1D PREFETCH  REQUESTED:    3692927  ISSUED:    3690252  USEFUL:    1197993  USELESS:     108134
L1D USEFUL LOAD PREFETCHES:    1197993 PREFETCH ISSUED TO LOWER LEVEL:    1319141  ACCURACY: 90.8161
L1D TIMELY PREFETCHES:    1197993 LATE PREFETCHES: 12964 DROPPED PREFETCHES: 0
L1D PREFETCHES SAME FILL-ORIGIN LEVEL: 1319141 DIFFERENT FILL-ORIGIN LEVEL: 0
L1D AVERAGE MISS LATENCY: 420278 cycles
L1D RQ	ACCESS:   14945450	FORWARD:          0	MERGED:    6476193	TO_CACHE:    8469256
L1D WQ	ACCESS:     885863	FORWARD:          1	MERGED:          0	TO_CACHE:     885863
L1D PQ	ACCESS:    1845126	FORWARD:          0	MERGED:          0	TO_CACHE:    1845126

L1D UNIQUE REGIONS ACCESSED: 0
L1D REGIONS CONFLICTS: 0
L1D Cross Page Prefetch Requests: 0
L1D Same Page Prefetch Requests: 2262347
L1D ROI Sum of L1D PQ occupancy: 25095197
L1D PREFETCHES PUSHED FROM L2C: 0
L1I TOTAL     ACCESS:    8664071  HIT:    8664071  MISS:          0  HIT %:        100  MISS %:          0   MPKI: 0
L1I LOAD      ACCESS:    8664071  HIT:    8664071  MISS:          0  HIT %:        100  MISS %:          0   MPKI: 0
L1I PREFETCH  REQUESTED:          0  ISSUED:          0  USEFUL:          0  USELESS:          0
L1I USEFUL LOAD PREFETCHES:          0 PREFETCH ISSUED TO LOWER LEVEL:          0  ACCURACY: -nan
L1I TIMELY PREFETCHES:          0 LATE PREFETCHES: 0 DROPPED PREFETCHES: 0
L1I PREFETCHES SAME FILL-ORIGIN LEVEL: 0 DIFFERENT FILL-ORIGIN LEVEL: 0
L1I AVERAGE MISS LATENCY: -nan cycles
L1I RQ	ACCESS:   15861091	FORWARD:          0	MERGED:    7197021	TO_CACHE:    8664070

BTB TOTAL     ACCESS:    8732391  HIT:    8732374  MISS:         17  HIT %:    99.9998  MISS %: 0.000194677   MPKI: 0.00034
BTB BRANCH_DIRECT_JUMP	ACCESS:         40  HIT:         39  MISS:          1
BTB BRANCH_INDIRECT	ACCESS:          0  HIT:          0  MISS:          0
BTB BRANCH_CONDITIONAL	ACCESS:    7846775  HIT:    7846766  MISS:          9
BTB BRANCH_DIRECT_CALL	ACCESS:     221414  HIT:     221412  MISS:          2
BTB BRANCH_INDIRECT_CALL	ACCESS:     221374  HIT:     221373  MISS:          1
BTB BRANCH_RETURN	ACCESS:     442788  HIT:     442784  MISS:          4
BTB BRANCH_OTHER ACCESS:          0  HIT:          0  MISS:          0

L2C TOTAL     ACCESS:    3157510  HIT:    1829135  MISS:    1328375  HIT %:    57.9297  MISS %:    42.0703   MPKI: 26.5675
L2C LOAD      ACCESS:      46523  HIT:       3108  MISS:      43415  HIT %:    6.68057  MISS %:    93.3194   MPKI: 0.8683
L2C DATA LOAD MPKI: 0.8683
L2C INSTRUCTION LOAD MPKI: 0
L2C PREFETCH  ACCESS:    3110690  HIT:    1825797  MISS:    1284893  HIT %:    58.6943  MISS %:    41.3057   MPKI: 25.6979
L2C DATA PREFETCH MPKI: 25.6979
L2C INSTRUCTION PREFETCH MPKI: 0
L2C WRITEBACK ACCESS:         40  HIT:         40  MISS:          0  HIT %:        100  MISS %:          0   MPKI: 0
L2C LOAD TRANSLATION ACCESS:        257  HIT:        190  MISS:         67  HIT %:      73.93  MISS %:      26.07   MPKI: 0.00134
L2C PREFETCH  REQUESTED:    2179159  ISSUED:    2179137  USEFUL:       2004  USELESS:    1282799
L2C USEFUL LOAD PREFETCHES:       2004 PREFETCH ISSUED TO LOWER LEVEL:    1284893  ACCURACY: 0.155966
L2C TIMELY PREFETCHES:       2004 LATE PREFETCHES: 0 DROPPED PREFETCHES: 0
L2C PREFETCHES SAME FILL-ORIGIN LEVEL: 706358 DIFFERENT FILL-ORIGIN LEVEL: 0
L2C AVERAGE MISS LATENCY: 89.3158 cycles
L2C RQ	ACCESS:      46780	FORWARD:          0	MERGED:          0	TO_CACHE:      46780
L2C WQ	ACCESS:         40	FORWARD:          0	MERGED:          0	TO_CACHE:         40
L2C PQ	ACCESS:    3498228	FORWARD:          0	MERGED:     379873	TO_CACHE:    3118355

L2C Instructions Evicting Data 0
L2C Translations Evicting Data 67
L2C Data Evicting Data 1328241
L2C Instructions Evicting Instructions 0
L2C Translations Evicting Instructions 0
L2C Data Evicting Instructions 0
L2C Instructions Evicting Translations 0
L2C Translations Evicting Translations 0
L2C Data Evicting Translations 67
L2C Dense regions hint from L2: 0
PSCL5 TOTAL     ACCESS:        257  HIT:        257  MISS:          0  HIT %:        100  MISS %:          0   MPKI: 0
PSCL5 LOAD TRANSLATION ACCESS:        257  HIT:        257  MISS:          0  HIT %:        100  MISS %:          0   MPKI: 0
PSCL5 PREFETCH  REQUESTED:          0  ISSUED:          0  USEFUL:          0  USELESS:          0
PSCL5 USEFUL LOAD PREFETCHES:          0 PREFETCH ISSUED TO LOWER LEVEL:          0  ACCURACY: -nan
PSCL5 TIMELY PREFETCHES:          0 LATE PREFETCHES: 0 DROPPED PREFETCHES: 0
PSCL5 PREFETCHES SAME FILL-ORIGIN LEVEL: 0 DIFFERENT FILL-ORIGIN LEVEL: 0

PSCL4 TOTAL     ACCESS:        257  HIT:        257  MISS:          0  HIT %:        100  MISS %:          0   MPKI: 0
PSCL4 LOAD TRANSLATION ACCESS:        257  HIT:        257  MISS:          0  HIT %:        100  MISS %:          0   MPKI: 0
PSCL4 PREFETCH  REQUESTED:          0  ISSUED:          0  USEFUL:          0  USELESS:          0
PSCL4 USEFUL LOAD PREFETCHES:          0 PREFETCH ISSUED TO LOWER LEVEL:          0  ACCURACY: -nan
PSCL4 TIMELY PREFETCHES:          0 LATE PREFETCHES: 0 DROPPED PREFETCHES: 0
PSCL4 PREFETCHES SAME FILL-ORIGIN LEVEL: 0 DIFFERENT FILL-ORIGIN LEVEL: 0

PSCL3 TOTAL     ACCESS:        257  HIT:        257  MISS:          0  HIT %:        100  MISS %:          0   MPKI: 0
PSCL3 LOAD TRANSLATION ACCESS:        257  HIT:        257  MISS:          0  HIT %:        100  MISS %:          0   MPKI: 0
PSCL3 PREFETCH  REQUESTED:          0  ISSUED:          0  USEFUL:          0  USELESS:          0
PSCL3 USEFUL LOAD PREFETCHES:          0 PREFETCH ISSUED TO LOWER LEVEL:          0  ACCURACY: -nan
PSCL3 TIMELY PREFETCHES:          0 LATE PREFETCHES: 0 DROPPED PREFETCHES: 0
PSCL3 PREFETCHES SAME FILL-ORIGIN LEVEL: 0 DIFFERENT FILL-ORIGIN LEVEL: 0

PSCL2 TOTAL     ACCESS:        257  HIT:        257  MISS:          0  HIT %:        100  MISS %:          0   MPKI: 0
PSCL2 LOAD TRANSLATION ACCESS:        257  HIT:        257  MISS:          0  HIT %:        100  MISS %:          0   MPKI: 0
PSCL2 PREFETCH  REQUESTED:          0  ISSUED:          0  USEFUL:          0  USELESS:          0
PSCL2 USEFUL LOAD PREFETCHES:          0 PREFETCH ISSUED TO LOWER LEVEL:          0  ACCURACY: -nan
PSCL2 TIMELY PREFETCHES:          0 LATE PREFETCHES: 0 DROPPED PREFETCHES: 0
PSCL2 PREFETCHES SAME FILL-ORIGIN LEVEL: 0 DIFFERENT FILL-ORIGIN LEVEL: 0

LLC TOTAL     ACCESS:    1328409  HIT:     533915  MISS:     794494  HIT %:    40.1921  MISS %:    59.8079   MPKI: 15.8899
LLC LOAD      ACCESS:      43415  HIT:      18909  MISS:      24506  HIT %:    43.5541  MISS %:    56.4459   MPKI: 0.49012
LLC PREFETCH  ACCESS:    1284893  HIT:     514962  MISS:     769931  HIT %:    40.0782  MISS %:    59.9218   MPKI: 15.3986
LLC WRITEBACK ACCESS:         34  HIT:         34  MISS:          0  HIT %:        100  MISS %:          0   MPKI: 0
LLC LOAD TRANSLATION ACCESS:         67  HIT:         10  MISS:         57  HIT %:    14.9254  MISS %:    85.0746   MPKI: 0.00114
LLC PREFETCH  REQUESTED:          0  ISSUED:          0  USEFUL:       1467  USELESS:     768650
LLC USEFUL LOAD PREFETCHES:       1467 PREFETCH ISSUED TO LOWER LEVEL:     769931  ACCURACY: 0.190537
LLC TIMELY PREFETCHES:       1467 LATE PREFETCHES: 0 DROPPED PREFETCHES: 0
LLC PREFETCHES SAME FILL-ORIGIN LEVEL: 0 DIFFERENT FILL-ORIGIN LEVEL: 0
LLC AVERAGE MISS LATENCY: 99.1669 cycles
LLC RQ	ACCESS:      43482	FORWARD:          0	MERGED:          0	TO_CACHE:      43482
LLC WQ	ACCESS:         34	FORWARD:          0	MERGED:          0	TO_CACHE:         34
LLC PQ	ACCESS:    1284893	FORWARD:          0	MERGED:          0	TO_CACHE:    1284893

LLC Dense regions hint to LLC: 0

RAW hits: 0
Loads Generated: 14945450
Loads sent to L1D: 14945450
Stores Generated: 885863
Stores sent to L1D: 885863
Major fault: 0 Minor fault: 1315
Allocated PAGES: 1315

stream: 
stream:times selected: 2873912
stream:pref_filled: 315773
stream:pref_useful: 195080
stream:pref_late: 13789
stream:misses: 65172
stream:misses_by_poll: 0

CS: 
CS:times selected: 2566349
CS:pref_filled: 1215502
CS:pref_useful: 1208314
CS:pref_late: 86
CS:misses: 8507
CS:misses_by_poll: 5864

CPLX: 
CPLX:times selected: 307433
CPLX:pref_filled: 34037
CPLX:pref_useful: 32770
CPLX:pref_late: 28
CPLX:misses: 2162
CPLX:misses_by_poll: 48

NL_L1: 
NL:times selected: 50
NL:pref_filled: 16
NL:pref_useful: 12
NL:pref_late: 2
NL:misses: 4
NL:misses_by_poll: 0

total selections: 5747744
total_filled: 1306125
total_useful: 1197993
total_late: 16869
total_polluted: 5912
total_misses_after_warmup: 59889
conflicts: 8
Degree Incremented Times: 124557
Degree Decremented Times: 0

L1 IP Table Write Accesses: 8234448
L1 IP Table Read Accesses: 8234440
L1 RST Write Accesses: 2354023
L1 RST Read Accesses: 4708046
L1 CSPT Write Accesses: 2354023
L1 CSPT Read Accesses: 2914946
L1 RR Filter Tag Write Accesses: 1847801
L1 RR Filter Tag Read Accesses: 392118134
L1 IP Table Tag Write Accesses: 8469259
L1 IP Table Tag Read Accesses: 8469259
L1 RST Tag Write Accesses: 0
L1 RST Tag Read Accesses: 21216740
L1 RR Filter Write Accesses: 0
L1 RR Filter Read Accesses: 18939872
test: 287235
L2 IP Table Read Accesses: 2506594
L2 IP Table Write Accesses: 2460084
L2 IP Table Tag Read Accesses: 1253303
L2 IP Table Tag Write Accesses: 1253303

DRAM Statistics
 CHANNEL 0
 RQ ROW_BUFFER_HIT:     754295  ROW_BUFFER_MISS:      40199
 DBUS_CONGESTED:          0
 WQ ROW_BUFFER_HIT:          0  ROW_BUFFER_MISS:         12  FULL:          0

 AVG_CONGESTED_CYCLE: -
 All warmup complete: 2
Channel 0 Bank busy for read cycles: 0
Channel 0 Bank busy for write cycles: 0
Channel 0
Rank 0
0banks busy for read cycles: 69011740
0banks busy for write cycles: 12
1banks busy for read cycles: 5375172
1banks busy for write cycles: 2924
2banks busy for read cycles: 2069505
2banks busy for write cycles: 0
3banks busy for read cycles: 1432416
3banks busy for write cycles: 0
4banks busy for read cycles: 1747748
4banks busy for write cycles: 0
5banks busy for read cycles: 1093034
5banks busy for write cycles: 0
6banks busy for read cycles: 889101
6banks busy for write cycles: 0
7banks busy for read cycles: 705725
7banks busy for write cycles: 0
8banks busy for read cycles: 900310
8banks busy for write cycles: 0

CPU 0 Branch Prediction Accuracy: 95.2006% MPKI: 13.2833 Average ROB Occupancy at Mispredict: 41.2364
Branch types
NOT_BRANCH: 36161174 72.3223%
BRANCH_DIRECT_JUMP: 40 8e-05%
BRANCH_INDIRECT: 0 0%
BRANCH_CONDITIONAL: 12952871 25.9057%
BRANCH_DIRECT_CALL: 221414 0.442828%
BRANCH_INDIRECT_CALL: 221374 0.442748%
BRANCH_RETURN: 442788 0.885576%
BRANCH_OTHER: 0 0%

@sumon_overall_L1D   1197993     12964    108134   1306125   3690252   3692927
@Sumon_Early_by_class_L1D    160527   1016141     21316         1
@Sumon_Late_by_class_L1D     10166        86        12         1

@Sumon_Early_by_cycle_L1D     21703     31661    126558    105355     86269    794481      3166      1408     26506       886         0         0
@Sumon_Late_by_cycle_L1D     11310      1451       203         0         0         0         0         0         0         0         0         0
@Sumon_Early_stream_L1D     21464     26399     84183      1092        36       120       472       926     25781        54         0         0
@Sumon_Early_CS_L1D       212      5131     41510    100336     83864    782762       461       477       712       676         0         0
@Sumon_Early_CPLX_L1D        23       128       863      3927      2369     11599      2233         5        13       156         0         0
@Sumon_Late_stream_L1D      8517      1446       203         0         0         0         0         0         0         0         0         0
@Sumon_Late_CS_L1D        85         1         0         0         0         0         0         0         0         0         0         0
@Sumon_Late_CPLX_L1D        10         2         0         0         0         0         0         0         0         0         0         0
@sumon_overall_L2C      2004         0   1282799   1284893   2179137   2179159
@Sumon_Early_by_class_L2C       292      1699        13         0
@Sumon_Late_by_class_L2C         0         0         0         0

@Sumon_Early_by_cycle_L2C         0         0        51        20        87      1346         0         0         0         6       101       393
@Sumon_Late_by_cycle_L2C         0         0         0         0         0         0         0         0         0         0         0         0
@Sumon_Early_stream_L2C         0         0         0         0         0         0         0         0         0         0        80       212
@Sumon_Early_CS_L2C         0         0        51        20        87      1346         0         0         0         6        21       168
@Sumon_Early_CPLX_L2C         0         0         0         0         0         0         0         0         0         0         0        13
@Sumon_Late_stream_L2C         0         0         0         0         0         0         0         0         0         0         0         0
@Sumon_Late_CS_L2C         0         0         0         0         0         0         0         0         0         0         0         0
@Sumon_Late_CPLX_L2C         0         0         0         0         0         0         0         0         0         0         0         0
DRAM PAGES: 1048576
Allocated PAGES: 1315
