
*** ChampSim Multicore Out-of-Order Simulator ***

Warmup Instructions: 10000000
Simulation Instructions: 50000000
Number of CPUs: 1
LLC sets: 2048
LLC ways: 16
Off-chip DRAM Size: 4096 MB Channels: 1 Width: 64-bit Data Rate: 6400 MT/s
CPU 0 runs traces/SPEC2017/649.fotonik3d_s-1176B.champsimtrace.xz
.xz
CPU 0 Bimodal branch predictor
BTB has LRU replacement policy
ITLB has LRU replacement policy
DTLB has LRU replacement policy
STLB has LRU replacement policy
L1I has LRU replacement policy
IP Table Entries: 256
L1D has LRU replacement policy
IP_Table L2 entries: 256
L2C has LRU replacement policy
Initialize DRRIP state for LLC
Heartbeat CPU 0 instructions: 10000000 cycles: 2902852 heartbeat IPC: 3.44489 cumulative IPC: 3.44489 (Simulation time: 0 hr 22 min 21 sec) 

Warmup complete CPU 0 instructions: 10000004 cycles: 2902853 (Simulation time: 0 hr 22 min 22 sec) 

Heartbeat CPU 0 instructions: 20000002 cycles: 12882753 heartbeat IPC: 1.00201 cumulative IPC: 1.00201 (Simulation time: 0 hr 38 min 36 sec) 
Heartbeat CPU 0 instructions: 30000001 cycles: 22864810 heartbeat IPC: 1.0018 cumulative IPC: 1.00191 (Simulation time: 0 hr 54 min 46 sec) 
Heartbeat CPU 0 instructions: 40000000 cycles: 32843904 heartbeat IPC: 1.00209 cumulative IPC: 1.00197 (Simulation time: 1 hr 11 min 11 sec) 
Heartbeat CPU 0 instructions: 50000002 cycles: 42826374 heartbeat IPC: 1.00176 cumulative IPC: 1.00192 (Simulation time: 1 hr 27 min 13 sec) 
Heartbeat CPU 0 instructions: 60000003 cycles: 52805831 heartbeat IPC: 1.00206 cumulative IPC: 1.00194 (Simulation time: 1 hr 43 min 3 sec) 
Finished CPU 0 instructions: 50000003 cycles: 49902979 cumulative IPC: 1.00194 (Simulation time: 1 hr 43 min 3 sec) 

ChampSim completed all CPUs

Region of Interest Statistics

CPU 0 cumulative IPC: 1.00194 instructions: 50000003 cycles: 49902979
ITLB TOTAL     ACCESS:    7017698  HIT:    7017698  MISS:          0  HIT %:        100  MISS %:          0   MPKI: 0
ITLB LOAD TRANSLATION ACCESS:    7017698  HIT:    7017698  MISS:          0  HIT %:        100  MISS %:          0   MPKI: 0
ITLB PREFETCH  REQUESTED:          0  ISSUED:          0  USEFUL:          0  USELESS:          0
ITLB USEFUL LOAD PREFETCHES:          0 PREFETCH ISSUED TO LOWER LEVEL:          0  ACCURACY: -nan
ITLB TIMELY PREFETCHES:          0 LATE PREFETCHES: 0 DROPPED PREFETCHES: 0
ITLB PREFETCHES SAME FILL-ORIGIN LEVEL: 0 DIFFERENT FILL-ORIGIN LEVEL: 0
ITLB AVERAGE MISS LATENCY: -nan cycles
ITLB RQ	ACCESS:    8772746	FORWARD:          0	MERGED:    1755048	TO_CACHE:    7017698

DTLB TOTAL     ACCESS:    8127969  HIT:    8116292  MISS:      11677  HIT %:    99.8563  MISS %:   0.143664   MPKI: 0.23354
DTLB LOAD TRANSLATION ACCESS:    8127969  HIT:    8116292  MISS:      11677  HIT %:    99.8563  MISS %:   0.143664   MPKI: 0.23354
DTLB PREFETCH  REQUESTED:          0  ISSUED:          0  USEFUL:          0  USELESS:          0
DTLB USEFUL LOAD PREFETCHES:          0 PREFETCH ISSUED TO LOWER LEVEL:          0  ACCURACY: -nan
DTLB TIMELY PREFETCHES:          0 LATE PREFETCHES: 0 DROPPED PREFETCHES: 0
DTLB PREFETCHES SAME FILL-ORIGIN LEVEL: 0 DIFFERENT FILL-ORIGIN LEVEL: 0
DTLB AVERAGE MISS LATENCY: 89.4848 cycles
DTLB RQ	ACCESS:   12578812	FORWARD:          0	MERGED:    4450047	TO_CACHE:    8128765

STLB TOTAL     ACCESS:     609083  HIT:     602220  MISS:       6863  HIT %:    98.8732  MISS %:    1.12678   MPKI: 0.13726
STLB LOAD TRANSLATION ACCESS:      11677  HIT:       4814  MISS:       6863  HIT %:    41.2263  MISS %:    58.7737   MPKI: 0.13726
STLB TRANSLATION FROM L1D PREFETCHER ACCESS:     597406  HIT:     597406  MISS:          0  HIT %:        100  MISS %:          0   MPKI: 0
STLB PREFETCH  REQUESTED:          0  ISSUED:          0  USEFUL:          0  USELESS:          0
STLB USEFUL LOAD PREFETCHES:          0 PREFETCH ISSUED TO LOWER LEVEL:          0  ACCURACY: -nan
STLB TIMELY PREFETCHES:          0 LATE PREFETCHES: 0 DROPPED PREFETCHES: 0
STLB PREFETCHES SAME FILL-ORIGIN LEVEL: 0 DIFFERENT FILL-ORIGIN LEVEL: 0
STLB AVERAGE MISS LATENCY: 136.75 cycles
STLB RQ	ACCESS:     671634	FORWARD:          0	MERGED:      62551	TO_CACHE:     609083

STLB Hit, L1D data hit: 0
STLB Hit, L2C data hit: 0
STLB Hit, LLC data hit: 0
STLB Hit, LLC data miss: 0
STLB STLB hints to L2: 0
L1D TOTAL     ACCESS:   13216739  HIT:   12551950  MISS:     664789  HIT %:    94.9701  MISS %:     5.0299   MPKI: 13.2958
L1D LOAD      ACCESS:    9053121  HIT:    9031979  MISS:      21142  HIT %:    99.7665  MISS %:   0.233533   MPKI: 0.42284
L1D RFO       ACCESS:    3508880  HIT:    3508117  MISS:        763  HIT %:    99.9783  MISS %:  0.0217448   MPKI: 0.01526
L1D PREFETCH  ACCESS:     654738  HIT:      11854  MISS:     642884  HIT %:     1.8105  MISS %:    98.1895   MPKI: 12.8577
L1D PREFETCH  REQUESTED:    1319914  ISSUED:    1319914  USEFUL:     639771  USELESS:       3115
L1D USEFUL LOAD PREFETCHES:     639771 PREFETCH ISSUED TO LOWER LEVEL:     647415  ACCURACY: 98.8193
L1D TIMELY PREFETCHES:     639771 LATE PREFETCHES: 4046 DROPPED PREFETCHES: 0
L1D PREFETCHES SAME FILL-ORIGIN LEVEL: 647415 DIFFERENT FILL-ORIGIN LEVEL: 0
L1D AVERAGE MISS LATENCY: 169678 cycles
L1D RQ	ACCESS:   17541474	FORWARD:          0	MERGED:    8472820	TO_CACHE:    9068546
L1D WQ	ACCESS:    3510266	FORWARD:        108	MERGED:          0	TO_CACHE:    3510266
L1D PQ	ACCESS:     659957	FORWARD:          0	MERGED:          0	TO_CACHE:     659957

L1D UNIQUE REGIONS ACCESSED: 0
L1D REGIONS CONFLICTS: 0
L1D Cross Page Prefetch Requests: 0
L1D Same Page Prefetch Requests: 791034
L1D ROI Sum of L1D PQ occupancy: 8672896
L1D PREFETCHES PUSHED FROM L2C: 0
L1I TOTAL     ACCESS:    8772744  HIT:    8772744  MISS:          0  HIT %:        100  MISS %:          0   MPKI: 0
L1I LOAD      ACCESS:    8772744  HIT:    8772744  MISS:          0  HIT %:        100  MISS %:          0   MPKI: 0
L1I PREFETCH  REQUESTED:          0  ISSUED:          0  USEFUL:          0  USELESS:          0
L1I USEFUL LOAD PREFETCHES:          0 PREFETCH ISSUED TO LOWER LEVEL:          0  ACCURACY: -nan
L1I TIMELY PREFETCHES:          0 LATE PREFETCHES: 0 DROPPED PREFETCHES: 0
L1I PREFETCHES SAME FILL-ORIGIN LEVEL: 0 DIFFERENT FILL-ORIGIN LEVEL: 0
L1I AVERAGE MISS LATENCY: -nan cycles
L1I RQ	ACCESS:   11406823	FORWARD:          0	MERGED:    2634077	TO_CACHE:    8772746

BTB TOTAL     ACCESS:     877289  HIT:     877280  MISS:          9  HIT %:     99.999  MISS %: 0.00102589   MPKI: 0.00018
BTB BRANCH_DIRECT_JUMP	ACCESS:        218  HIT:        216  MISS:          2
BTB BRANCH_INDIRECT	ACCESS:          0  HIT:          0  MISS:          0
BTB BRANCH_CONDITIONAL	ACCESS:     876635  HIT:     876632  MISS:          3
BTB BRANCH_DIRECT_CALL	ACCESS:        218  HIT:        216  MISS:          2
BTB BRANCH_INDIRECT_CALL	ACCESS:          0  HIT:          0  MISS:          0
BTB BRANCH_RETURN	ACCESS:        218  HIT:        216  MISS:          2
BTB BRANCH_OTHER ACCESS:          0  HIT:          0  MISS:          0

L2C TOTAL     ACCESS:    3964207  HIT:    3523841  MISS:     440366  HIT %:    88.8914  MISS %:    11.1086   MPKI: 8.80732
L2C LOAD      ACCESS:      17096  HIT:       9573  MISS:       7523  HIT %:    55.9956  MISS %:    44.0044   MPKI: 0.15046
L2C DATA LOAD MPKI: 0.15046
L2C INSTRUCTION LOAD MPKI: 0
L2C RFO       ACCESS:        763  HIT:        761  MISS:          2  HIT %:    99.7379  MISS %:   0.262123   MPKI: 4e-05
L2C PREFETCH  ACCESS:    3500238  HIT:    3068281  MISS:     431957  HIT %:    87.6592  MISS %:    12.3408   MPKI: 8.63914
L2C DATA PREFETCH MPKI: 8.63914
L2C INSTRUCTION PREFETCH MPKI: 0
L2C WRITEBACK ACCESS:     439247  HIT:     439247  MISS:          0  HIT %:        100  MISS %:          0   MPKI: 0
L2C LOAD TRANSLATION ACCESS:       6863  HIT:       5979  MISS:        884  HIT %:    87.1193  MISS %:    12.8807   MPKI: 0.01768
L2C PREFETCH  REQUESTED:    3305095  ISSUED:    3304917  USEFUL:       2314  USELESS:     430242
L2C USEFUL LOAD PREFETCHES:       2314 PREFETCH ISSUED TO LOWER LEVEL:     431968  ACCURACY: 0.535688
L2C TIMELY PREFETCHES:       2314 LATE PREFETCHES: 10 DROPPED PREFETCHES: 0
L2C PREFETCHES SAME FILL-ORIGIN LEVEL: 383553 DIFFERENT FILL-ORIGIN LEVEL: 0
L2C AVERAGE MISS LATENCY: 193.683 cycles
L2C RQ	ACCESS:      24722	FORWARD:          0	MERGED:          0	TO_CACHE:      24722
L2C WQ	ACCESS:     439247	FORWARD:          0	MERGED:          0	TO_CACHE:     439247
L2C PQ	ACCESS:    3951848	FORWARD:          0	MERGED:      80428	TO_CACHE:    3871420

L2C Instructions Evicting Data 0
L2C Translations Evicting Data 884
L2C Data Evicting Data 438597
L2C Instructions Evicting Instructions 0
L2C Translations Evicting Instructions 0
L2C Data Evicting Instructions 0
L2C Instructions Evicting Translations 0
L2C Translations Evicting Translations 0
L2C Data Evicting Translations 885
L2C Dense regions hint from L2: 0
PSCL5 TOTAL     ACCESS:       6863  HIT:       6863  MISS:          0  HIT %:        100  MISS %:          0   MPKI: 0
PSCL5 LOAD TRANSLATION ACCESS:       6863  HIT:       6863  MISS:          0  HIT %:        100  MISS %:          0   MPKI: 0
PSCL5 PREFETCH  REQUESTED:          0  ISSUED:          0  USEFUL:          0  USELESS:          0
PSCL5 USEFUL LOAD PREFETCHES:          0 PREFETCH ISSUED TO LOWER LEVEL:          0  ACCURACY: -nan
PSCL5 TIMELY PREFETCHES:          0 LATE PREFETCHES: 0 DROPPED PREFETCHES: 0
PSCL5 PREFETCHES SAME FILL-ORIGIN LEVEL: 0 DIFFERENT FILL-ORIGIN LEVEL: 0

PSCL4 TOTAL     ACCESS:       6863  HIT:       6863  MISS:          0  HIT %:        100  MISS %:          0   MPKI: 0
PSCL4 LOAD TRANSLATION ACCESS:       6863  HIT:       6863  MISS:          0  HIT %:        100  MISS %:          0   MPKI: 0
PSCL4 PREFETCH  REQUESTED:          0  ISSUED:          0  USEFUL:          0  USELESS:          0
PSCL4 USEFUL LOAD PREFETCHES:          0 PREFETCH ISSUED TO LOWER LEVEL:          0  ACCURACY: -nan
PSCL4 TIMELY PREFETCHES:          0 LATE PREFETCHES: 0 DROPPED PREFETCHES: 0
PSCL4 PREFETCHES SAME FILL-ORIGIN LEVEL: 0 DIFFERENT FILL-ORIGIN LEVEL: 0

PSCL3 TOTAL     ACCESS:       6863  HIT:       6863  MISS:          0  HIT %:        100  MISS %:          0   MPKI: 0
PSCL3 LOAD TRANSLATION ACCESS:       6863  HIT:       6863  MISS:          0  HIT %:        100  MISS %:          0   MPKI: 0
PSCL3 PREFETCH  REQUESTED:          0  ISSUED:          0  USEFUL:          0  USELESS:          0
PSCL3 USEFUL LOAD PREFETCHES:          0 PREFETCH ISSUED TO LOWER LEVEL:          0  ACCURACY: -nan
PSCL3 TIMELY PREFETCHES:          0 LATE PREFETCHES: 0 DROPPED PREFETCHES: 0
PSCL3 PREFETCHES SAME FILL-ORIGIN LEVEL: 0 DIFFERENT FILL-ORIGIN LEVEL: 0

PSCL2 TOTAL     ACCESS:       6863  HIT:       6841  MISS:         22  HIT %:    99.6794  MISS %:    0.32056   MPKI: 0.00044
PSCL2 LOAD TRANSLATION ACCESS:       6863  HIT:       6841  MISS:         22  HIT %:    99.6794  MISS %:    0.32056   MPKI: 0.00044
PSCL2 PREFETCH  REQUESTED:          0  ISSUED:          0  USEFUL:          0  USELESS:          0
PSCL2 USEFUL LOAD PREFETCHES:          0 PREFETCH ISSUED TO LOWER LEVEL:          0  ACCURACY: -nan
PSCL2 TIMELY PREFETCHES:          0 LATE PREFETCHES: 0 DROPPED PREFETCHES: 0
PSCL2 PREFETCHES SAME FILL-ORIGIN LEVEL: 0 DIFFERENT FILL-ORIGIN LEVEL: 0

LLC TOTAL     ACCESS:     878649  HIT:     432042  MISS:     446607  HIT %:    49.1712  MISS %:    50.8288   MPKI: 8.93214
LLC LOAD      ACCESS:       7513  HIT:         13  MISS:       7500  HIT %:   0.173033  MISS %:     99.827   MPKI: 0.15
LLC RFO       ACCESS:          2  HIT:          2  MISS:          0  HIT %:        100  MISS %:          0   MPKI: 0
LLC PREFETCH  ACCESS:     431967  HIT:        384  MISS:     431583  HIT %:  0.0888957  MISS %:    99.9111   MPKI: 8.63166
LLC WRITEBACK ACCESS:     438283  HIT:     431643  MISS:       6640  HIT %:     98.485  MISS %:      1.515   MPKI: 0.1328
LLC LOAD TRANSLATION ACCESS:        884  HIT:          0  MISS:        884  HIT %:          0  MISS %:        100   MPKI: 0.01768
LLC PREFETCH  REQUESTED:          0  ISSUED:          0  USEFUL:          7  USELESS:     431616
LLC USEFUL LOAD PREFETCHES:          7 PREFETCH ISSUED TO LOWER LEVEL:     431584  ACCURACY: 0.00162193
LLC TIMELY PREFETCHES:          7 LATE PREFETCHES: 0 DROPPED PREFETCHES: 0
LLC PREFETCHES SAME FILL-ORIGIN LEVEL: 0 DIFFERENT FILL-ORIGIN LEVEL: 0
LLC AVERAGE MISS LATENCY: 161.387 cycles
LLC RQ	ACCESS:       8399	FORWARD:          0	MERGED:          0	TO_CACHE:       8399
LLC WQ	ACCESS:     438284	FORWARD:          0	MERGED:          0	TO_CACHE:     438284
LLC PQ	ACCESS:     431968	FORWARD:          0	MERGED:          0	TO_CACHE:     431968

LLC Dense regions hint to LLC: 0

RAW hits: 787
Loads Generated: 17542256
Loads sent to L1D: 17541474
Stores Generated: 3510266
Stores sent to L1D: 3510266
Major fault: 0 Minor fault: 8337
Allocated PAGES: 8337

stream: 
stream:times selected: 1870998
stream:pref_filled: 764229
stream:pref_useful: 760787
stream:pref_late: 4097
stream:misses: 75
stream:misses_by_poll: 0

CS: 
CS:times selected: 1720134
CS:pref_filled: 3202
CS:pref_useful: 2978
CS:pref_late: 1
CS:misses: 33919
CS:misses_by_poll: 15

CPLX: 
CPLX:times selected: 150772
CPLX:pref_filled: 5068
CPLX:pref_useful: 4990
CPLX:pref_late: 0
CPLX:misses: 2521
CPLX:misses_by_poll: 9

NL_L1: 
NL:times selected: 12
NL:pref_filled: 1
NL:pref_useful: 1
NL:pref_late: 0
NL:misses: 0
NL:misses_by_poll: 0

total selections: 3741916
total_filled: 642884
total_useful: 639771
total_late: 4107
total_polluted: 24
total_misses_after_warmup: 36570
conflicts: 485
Degree Incremented Times: 127102
Degree Decremented Times: 0

L1 IP Table Write Accesses: 9066744
L1 IP Table Read Accesses: 9066259
L1 RST Write Accesses: 1492544
L1 RST Read Accesses: 2985088
L1 CSPT Write Accesses: 1492544
L1 CSPT Read Accesses: 1765337
L1 RR Filter Tag Write Accesses: 659957
L1 RR Filter Tag Read Accesses: 336010442
L1 IP Table Tag Write Accesses: 9068549
L1 IP Table Tag Read Accesses: 9068549
L1 RST Tag Write Accesses: 0
L1 RST Tag Read Accesses: 13464766
L1 RR Filter Write Accesses: 0
L1 RR Filter Read Accesses: 12758704
test: 47606
L2 IP Table Read Accesses: 1181840
L2 IP Table Write Accesses: 1165271
L2 IP Table Tag Read Accesses: 591211
L2 IP Table Tag Write Accesses: 591211

DRAM Statistics
 CHANNEL 0
 RQ ROW_BUFFER_HIT:      54969  ROW_BUFFER_MISS:     384998
 DBUS_CONGESTED:        299
 WQ ROW_BUFFER_HIT:     273504  ROW_BUFFER_MISS:     164784  FULL:          0

 AVG_CONGESTED_CYCLE: 6
 All warmup complete: 2
Channel 0 Bank busy for read cycles: 0
Channel 0 Bank busy for write cycles: 0
Channel 0
Rank 0
0banks busy for read cycles: 5264215
0banks busy for write cycles: 8061
1banks busy for read cycles: 21141230
1banks busy for write cycles: 549176
2banks busy for read cycles: 11381500
2banks busy for write cycles: 245136
3banks busy for read cycles: 816412
3banks busy for write cycles: 233646
4banks busy for read cycles: 346542
4banks busy for write cycles: 301479
5banks busy for read cycles: 158982
5banks busy for write cycles: 347189
6banks busy for read cycles: 132430
6banks busy for write cycles: 340352
7banks busy for read cycles: 1184154
7banks busy for write cycles: 1154752
8banks busy for read cycles: 360809
8banks busy for write cycles: 5936915

CPU 0 Branch Prediction Accuracy: 99.9751% MPKI: 0.00438 Average ROB Occupancy at Mispredict: 49.0228
Branch types
NOT_BRANCH: 49121612 98.2432%
BRANCH_DIRECT_JUMP: 218 0.000436%
BRANCH_INDIRECT: 0 0%
BRANCH_CONDITIONAL: 877399 1.7548%
BRANCH_DIRECT_CALL: 218 0.000436%
BRANCH_INDIRECT_CALL: 0 0%
BRANCH_RETURN: 218 0.000436%
BRANCH_OTHER: 0 0%

@sumon_overall_L1D    639771      4046      3115    642884   1319914   1319914
@Sumon_Early_by_class_L1D    637336      1124      1288         0
@Sumon_Late_by_class_L1D      4036         1         0         0

@Sumon_Early_by_cycle_L1D      6156     21261     31896    375987      4230    200235         6         0         0         0         0         0
@Sumon_Late_by_cycle_L1D        16      4030         0         0         0         0         0         0         0         0         0         0
@Sumon_Early_stream_L1D      6130     20589     31600    375522      3685    199810         0         0         0         0         0         0
@Sumon_Early_CS_L1D        12       559       263       174        50        66         0         0         0         0         0         0
@Sumon_Early_CPLX_L1D         1       106        30       291       495       359         6         0         0         0         0         0
@Sumon_Late_stream_L1D        14      4022         0         0         0         0         0         0         0         0         0         0
@Sumon_Late_CS_L1D         1         0         0         0         0         0         0         0         0         0         0         0
@Sumon_Late_CPLX_L1D         0         0         0         0         0         0         0         0         0         0         0         0
@sumon_overall_L2C      2314        10    430242    431957   3304917   3305095
@Sumon_Early_by_class_L2C      2307         1         5         0
@Sumon_Late_by_class_L2C        10         0         0         0

@Sumon_Early_by_cycle_L2C        16        54       749        91        44       232         0         0         0         0         0      1128
@Sumon_Late_by_cycle_L2C         0        10         0         0         0         0         0         0         0         0         0         0
@Sumon_Early_stream_L2C        16        54       749        91        44       232         0         0         0         0         0      1121
@Sumon_Early_CS_L2C         0         0         0         0         0         0         0         0         0         0         0         1
@Sumon_Early_CPLX_L2C         0         0         0         0         0         0         0         0         0         0         0         5
@Sumon_Late_stream_L2C         0        10         0         0         0         0         0         0         0         0         0         0
@Sumon_Late_CS_L2C         0         0         0         0         0         0         0         0         0         0         0         0
@Sumon_Late_CPLX_L2C         0         0         0         0         0         0         0         0         0         0         0         0
DRAM PAGES: 1048576
Allocated PAGES: 8337
