
*** ChampSim Multicore Out-of-Order Simulator ***

Warmup Instructions: 10000000
Simulation Instructions: 50000000
Number of CPUs: 1
LLC sets: 2048
LLC ways: 16
Off-chip DRAM Size: 4096 MB Channels: 1 Width: 64-bit Data Rate: 6400 MT/s
CPU 0 runs traces/SPEC2017/654.roms_s-294B.champsimtrace.xz
.xz
CPU 0 Bimodal branch predictor
BTB has LRU replacement policy
ITLB has LRU replacement policy
DTLB has LRU replacement policy
STLB has LRU replacement policy
L1I has LRU replacement policy
IP Table Entries: 256
L1D has LRU replacement policy
IP_Table L2 entries: 256
L2C has LRU replacement policy
Initialize DRRIP state for LLC
Heartbeat CPU 0 instructions: 10000001 cycles: 3208800 heartbeat IPC: 3.11643 cumulative IPC: 3.11643 (Simulation time: 0 hr 26 min 12 sec) 

Warmup complete CPU 0 instructions: 10000001 cycles: 3208800 (Simulation time: 0 hr 26 min 12 sec) 

Heartbeat CPU 0 instructions: 20000000 cycles: 12810789 heartbeat IPC: 1.04145 cumulative IPC: 1.04145 (Simulation time: 0 hr 45 min 55 sec) 
Heartbeat CPU 0 instructions: 30000003 cycles: 22408679 heartbeat IPC: 1.0419 cumulative IPC: 1.04167 (Simulation time: 1 hr 5 min 37 sec) 
Heartbeat CPU 0 instructions: 40000001 cycles: 32006528 heartbeat IPC: 1.0419 cumulative IPC: 1.04175 (Simulation time: 1 hr 25 min 16 sec) 
Heartbeat CPU 0 instructions: 50000002 cycles: 41601535 heartbeat IPC: 1.04221 cumulative IPC: 1.04186 (Simulation time: 1 hr 44 min 26 sec) 
Heartbeat CPU 0 instructions: 60000002 cycles: 51205173 heartbeat IPC: 1.04127 cumulative IPC: 1.04175 (Simulation time: 1 hr 59 min 18 sec) 
Finished CPU 0 instructions: 50000001 cycles: 47996373 cumulative IPC: 1.04175 (Simulation time: 1 hr 59 min 18 sec) 

ChampSim completed all CPUs

Region of Interest Statistics

CPU 0 cumulative IPC: 1.04175 instructions: 50000001 cycles: 47996373
ITLB TOTAL     ACCESS:    6689463  HIT:    6689463  MISS:          0  HIT %:        100  MISS %:          0   MPKI: 0
ITLB LOAD TRANSLATION ACCESS:    6689463  HIT:    6689463  MISS:          0  HIT %:        100  MISS %:          0   MPKI: 0
ITLB PREFETCH  REQUESTED:          0  ISSUED:          0  USEFUL:          0  USELESS:          0
ITLB USEFUL LOAD PREFETCHES:          0 PREFETCH ISSUED TO LOWER LEVEL:          0  ACCURACY: -nan
ITLB TIMELY PREFETCHES:          0 LATE PREFETCHES: 0 DROPPED PREFETCHES: 0
ITLB PREFETCHES SAME FILL-ORIGIN LEVEL: 0 DIFFERENT FILL-ORIGIN LEVEL: 0
ITLB AVERAGE MISS LATENCY: -nan cycles
ITLB RQ	ACCESS:    8355553	FORWARD:          0	MERGED:    1666091	TO_CACHE:    6689462

DTLB TOTAL     ACCESS:   13484600  HIT:   13464847  MISS:      19753  HIT %:    99.8535  MISS %:   0.146486   MPKI: 0.39506
DTLB LOAD TRANSLATION ACCESS:   13484600  HIT:   13464847  MISS:      19753  HIT %:    99.8535  MISS %:   0.146486   MPKI: 0.39506
DTLB PREFETCH  REQUESTED:          0  ISSUED:          0  USEFUL:          0  USELESS:          0
DTLB USEFUL LOAD PREFETCHES:          0 PREFETCH ISSUED TO LOWER LEVEL:          0  ACCURACY: -nan
DTLB TIMELY PREFETCHES:          0 LATE PREFETCHES: 0 DROPPED PREFETCHES: 0
DTLB PREFETCHES SAME FILL-ORIGIN LEVEL: 0 DIFFERENT FILL-ORIGIN LEVEL: 0
DTLB AVERAGE MISS LATENCY: 404.245 cycles
DTLB RQ	ACCESS:   14547654	FORWARD:          0	MERGED:    1060790	TO_CACHE:   13486864

STLB TOTAL     ACCESS:     864342  HIT:     847911  MISS:      16431  HIT %:     98.099  MISS %:    1.90098   MPKI: 0.32862
STLB LOAD TRANSLATION ACCESS:      19753  HIT:       3322  MISS:      16431  HIT %:    16.8177  MISS %:    83.1823   MPKI: 0.32862
STLB TRANSLATION FROM L1D PREFETCHER ACCESS:     844589  HIT:     844589  MISS:          0  HIT %:        100  MISS %:          0   MPKI: 0
STLB PREFETCH  REQUESTED:          0  ISSUED:          0  USEFUL:          0  USELESS:          0
STLB USEFUL LOAD PREFETCHES:          0 PREFETCH ISSUED TO LOWER LEVEL:          0  ACCURACY: -nan
STLB TIMELY PREFETCHES:          0 LATE PREFETCHES: 0 DROPPED PREFETCHES: 0
STLB PREFETCHES SAME FILL-ORIGIN LEVEL: 0 DIFFERENT FILL-ORIGIN LEVEL: 0
STLB AVERAGE MISS LATENCY: 473.996 cycles
STLB RQ	ACCESS:    4568535	FORWARD:          0	MERGED:    3704193	TO_CACHE:     864342

STLB Hit, L1D data hit: 0
STLB Hit, L2C data hit: 0
STLB Hit, LLC data hit: 0
STLB Hit, LLC data miss: 0
STLB STLB hints to L2: 0
L1D TOTAL     ACCESS:   19055728  HIT:   18334579  MISS:     721149  HIT %:    96.2156  MISS %:    3.78442   MPKI: 14.423
L1D LOAD      ACCESS:   12832214  HIT:   12770572  MISS:      61642  HIT %:    99.5196  MISS %:   0.480369   MPKI: 1.23284
L1D RFO       ACCESS:    1677877  HIT:    1673147  MISS:       4730  HIT %:    99.7181  MISS %:   0.281904   MPKI: 0.0946
L1D PREFETCH  ACCESS:    4545637  HIT:    3890860  MISS:     654777  HIT %:    85.5955  MISS %:    14.4045   MPKI: 13.0955
L1D PREFETCH  REQUESTED:    9845855  ISSUED:    9097564  USEFUL:     599407  USELESS:      55354
L1D USEFUL LOAD PREFETCHES:     599407 PREFETCH ISSUED TO LOWER LEVEL:     665916  ACCURACY: 90.0124
L1D TIMELY PREFETCHES:     599407 LATE PREFETCHES: 279 DROPPED PREFETCHES: 0
L1D PREFETCHES SAME FILL-ORIGIN LEVEL: 665916 DIFFERENT FILL-ORIGIN LEVEL: 0
L1D AVERAGE MISS LATENCY: 10262.3 cycles
L1D RQ	ACCESS:   19112601	FORWARD:          0	MERGED:    6264819	TO_CACHE:   12847779
L1D WQ	ACCESS:    1699875	FORWARD:          3	MERGED:          0	TO_CACHE:    1699875
L1D PQ	ACCESS:    4548782	FORWARD:          0	MERGED:          0	TO_CACHE:    4548782

L1D UNIQUE REGIONS ACCESSED: 0
L1D REGIONS CONFLICTS: 0
L1D Cross Page Prefetch Requests: 0
L1D Same Page Prefetch Requests: 5518894
L1D ROI Sum of L1D PQ occupancy: 66722023
L1D PREFETCHES PUSHED FROM L2C: 0
L1I TOTAL     ACCESS:    8355553  HIT:    8355553  MISS:          0  HIT %:        100  MISS %:          0   MPKI: 0
L1I LOAD      ACCESS:    8355553  HIT:    8355553  MISS:          0  HIT %:        100  MISS %:          0   MPKI: 0
L1I PREFETCH  REQUESTED:          0  ISSUED:          0  USEFUL:          0  USELESS:          0
L1I USEFUL LOAD PREFETCHES:          0 PREFETCH ISSUED TO LOWER LEVEL:          0  ACCURACY: -nan
L1I TIMELY PREFETCHES:          0 LATE PREFETCHES: 0 DROPPED PREFETCHES: 0
L1I PREFETCHES SAME FILL-ORIGIN LEVEL: 0 DIFFERENT FILL-ORIGIN LEVEL: 0
L1I AVERAGE MISS LATENCY: -nan cycles
L1I RQ	ACCESS:   13370251	FORWARD:          0	MERGED:    5014698	TO_CACHE:    8355553

BTB TOTAL     ACCESS:    2106371  HIT:    2106360  MISS:         11  HIT %:    99.9995  MISS %: 0.000522225   MPKI: 0.00022
BTB BRANCH_DIRECT_JUMP	ACCESS:         40  HIT:         39  MISS:          1
BTB BRANCH_INDIRECT	ACCESS:          0  HIT:          0  MISS:          0
BTB BRANCH_CONDITIONAL	ACCESS:    2106251  HIT:    2106243  MISS:          8
BTB BRANCH_DIRECT_CALL	ACCESS:         40  HIT:         39  MISS:          1
BTB BRANCH_INDIRECT_CALL	ACCESS:          0  HIT:          0  MISS:          0
BTB BRANCH_RETURN	ACCESS:         40  HIT:         39  MISS:          1
BTB BRANCH_OTHER ACCESS:          0  HIT:          0  MISS:          0

L2C TOTAL     ACCESS:    3364246  HIT:    2606106  MISS:     758140  HIT %:    77.4648  MISS %:    22.5352   MPKI: 15.1628
L2C LOAD      ACCESS:      61362  HIT:      36501  MISS:      24861  HIT %:    59.4847  MISS %:    40.5153   MPKI: 0.49722
L2C DATA LOAD MPKI: 0.49722
L2C INSTRUCTION LOAD MPKI: 0
L2C RFO       ACCESS:       4730  HIT:        477  MISS:       4253  HIT %:    10.0846  MISS %:    89.9154   MPKI: 0.08506
L2C PREFETCH  ACCESS:    3252965  HIT:    2539368  MISS:     713597  HIT %:    78.0632  MISS %:    21.9368   MPKI: 14.2719
L2C DATA PREFETCH MPKI: 14.2719
L2C INSTRUCTION PREFETCH MPKI: 0
L2C WRITEBACK ACCESS:      20544  HIT:      18664  MISS:       1880  HIT %:    90.8489  MISS %:    9.15109   MPKI: 0.0376
L2C LOAD TRANSLATION ACCESS:      24645  HIT:      11096  MISS:      13549  HIT %:    45.0233  MISS %:    54.9767   MPKI: 0.27098
L2C PREFETCH  REQUESTED:    3249165  ISSUED:    3058157  USEFUL:      33335  USELESS:     680522
L2C USEFUL LOAD PREFETCHES:      33335 PREFETCH ISSUED TO LOWER LEVEL:     713660  ACCURACY: 4.67099
L2C TIMELY PREFETCHES:      33335 LATE PREFETCHES: 56 DROPPED PREFETCHES: 0
L2C PREFETCHES SAME FILL-ORIGIN LEVEL: 581550 DIFFERENT FILL-ORIGIN LEVEL: 0
L2C AVERAGE MISS LATENCY: 117.752 cycles
L2C RQ	ACCESS:      90738	FORWARD:          0	MERGED:          0	TO_CACHE:      90737
L2C WQ	ACCESS:      20544	FORWARD:         43	MERGED:          0	TO_CACHE:      20544
L2C PQ	ACCESS:    3713214	FORWARD:          0	MERGED:     448926	TO_CACHE:    3264246

L2C Instructions Evicting Data 0
L2C Translations Evicting Data 13254
L2C Data Evicting Data 729509
L2C Instructions Evicting Instructions 0
L2C Translations Evicting Instructions 0
L2C Data Evicting Instructions 0
L2C Instructions Evicting Translations 0
L2C Translations Evicting Translations 295
L2C Data Evicting Translations 13202
L2C Dense regions hint from L2: 0
PSCL5 TOTAL     ACCESS:      16431  HIT:      16431  MISS:          0  HIT %:        100  MISS %:          0   MPKI: 0
PSCL5 LOAD TRANSLATION ACCESS:      16431  HIT:      16431  MISS:          0  HIT %:        100  MISS %:          0   MPKI: 0
PSCL5 PREFETCH  REQUESTED:          0  ISSUED:          0  USEFUL:          0  USELESS:          0
PSCL5 USEFUL LOAD PREFETCHES:          0 PREFETCH ISSUED TO LOWER LEVEL:          0  ACCURACY: -nan
PSCL5 TIMELY PREFETCHES:          0 LATE PREFETCHES: 0 DROPPED PREFETCHES: 0
PSCL5 PREFETCHES SAME FILL-ORIGIN LEVEL: 0 DIFFERENT FILL-ORIGIN LEVEL: 0

PSCL4 TOTAL     ACCESS:      16431  HIT:      16431  MISS:          0  HIT %:        100  MISS %:          0   MPKI: 0
PSCL4 LOAD TRANSLATION ACCESS:      16431  HIT:      16431  MISS:          0  HIT %:        100  MISS %:          0   MPKI: 0
PSCL4 PREFETCH  REQUESTED:          0  ISSUED:          0  USEFUL:          0  USELESS:          0
PSCL4 USEFUL LOAD PREFETCHES:          0 PREFETCH ISSUED TO LOWER LEVEL:          0  ACCURACY: -nan
PSCL4 TIMELY PREFETCHES:          0 LATE PREFETCHES: 0 DROPPED PREFETCHES: 0
PSCL4 PREFETCHES SAME FILL-ORIGIN LEVEL: 0 DIFFERENT FILL-ORIGIN LEVEL: 0

PSCL3 TOTAL     ACCESS:      16430  HIT:      16425  MISS:          5  HIT %:    99.9696  MISS %:  0.0304321   MPKI: 0.0001
PSCL3 LOAD TRANSLATION ACCESS:      16430  HIT:      16425  MISS:          5  HIT %:    99.9696  MISS %:  0.0304321   MPKI: 0.0001
PSCL3 PREFETCH  REQUESTED:          0  ISSUED:          0  USEFUL:          0  USELESS:          0
PSCL3 USEFUL LOAD PREFETCHES:          0 PREFETCH ISSUED TO LOWER LEVEL:          0  ACCURACY: -nan
PSCL3 TIMELY PREFETCHES:          0 LATE PREFETCHES: 0 DROPPED PREFETCHES: 0
PSCL3 PREFETCHES SAME FILL-ORIGIN LEVEL: 0 DIFFERENT FILL-ORIGIN LEVEL: 0

PSCL2 TOTAL     ACCESS:      16431  HIT:       8154  MISS:       8277  HIT %:    49.6257  MISS %:    50.3743   MPKI: 0.16554
PSCL2 LOAD TRANSLATION ACCESS:      16431  HIT:       8154  MISS:       8277  HIT %:    49.6257  MISS %:    50.3743   MPKI: 0.16554
PSCL2 PREFETCH  REQUESTED:          0  ISSUED:          0  USEFUL:          0  USELESS:          0
PSCL2 USEFUL LOAD PREFETCHES:          0 PREFETCH ISSUED TO LOWER LEVEL:          0  ACCURACY: -nan
PSCL2 TIMELY PREFETCHES:          0 LATE PREFETCHES: 0 DROPPED PREFETCHES: 0
PSCL2 PREFETCHES SAME FILL-ORIGIN LEVEL: 0 DIFFERENT FILL-ORIGIN LEVEL: 0

LLC TOTAL     ACCESS:     761790  HIT:     120702  MISS:     641088  HIT %:    15.8445  MISS %:    84.1555   MPKI: 12.8218
LLC LOAD      ACCESS:      24805  HIT:       3362  MISS:      21443  HIT %:    13.5537  MISS %:    86.4463   MPKI: 0.42886
LLC RFO       ACCESS:       4253  HIT:         38  MISS:       4215  HIT %:   0.893487  MISS %:    99.1065   MPKI: 0.0843
LLC PREFETCH  ACCESS:     713658  HIT:     105822  MISS:     607836  HIT %:    14.8281  MISS %:    85.1719   MPKI: 12.1567
LLC WRITEBACK ACCESS:       5525  HIT:       2691  MISS:       2834  HIT %:    48.7059  MISS %:    51.2941   MPKI: 0.05668
LLC LOAD TRANSLATION ACCESS:      13549  HIT:       8789  MISS:       4760  HIT %:    64.8683  MISS %:    35.1317   MPKI: 0.0952
LLC PREFETCH  REQUESTED:          0  ISSUED:          0  USEFUL:         15  USELESS:     607600
LLC USEFUL LOAD PREFETCHES:         15 PREFETCH ISSUED TO LOWER LEVEL:     607838  ACCURACY: 0.00246776
LLC TIMELY PREFETCHES:         15 LATE PREFETCHES: 0 DROPPED PREFETCHES: 0
LLC PREFETCHES SAME FILL-ORIGIN LEVEL: 0 DIFFERENT FILL-ORIGIN LEVEL: 0
LLC AVERAGE MISS LATENCY: 100.915 cycles
LLC RQ	ACCESS:      42607	FORWARD:          0	MERGED:          0	TO_CACHE:      42607
LLC WQ	ACCESS:       5525	FORWARD:          0	MERGED:          0	TO_CACHE:       5525
LLC PQ	ACCESS:     713660	FORWARD:          0	MERGED:          0	TO_CACHE:     713660

LLC Dense regions hint to LLC: 0

RAW hits: 75
Loads Generated: 19112677
Loads sent to L1D: 19112601
Stores Generated: 1699875
Stores sent to L1D: 1699875
Major fault: 0 Minor fault: 20110
Allocated PAGES: 20110

stream: 
stream:times selected: 1264076
stream:pref_filled: 793539
stream:pref_useful: 725909
stream:pref_late: 385
stream:misses: 12
stream:misses_by_poll: 0

CS: 
CS:times selected: 1262505
CS:pref_filled: 1075
CS:pref_useful: 1047
CS:pref_late: 5
CS:misses: 79964
CS:misses_by_poll: 5

CPLX: 
CPLX:times selected: 1537
CPLX:pref_filled: 82
CPLX:pref_useful: 20
CPLX:pref_late: 0
CPLX:misses: 528
CPLX:misses_by_poll: 0

NL_L1: 
NL:times selected: 2
NL:pref_filled: 2
NL:pref_useful: 2
NL:pref_late: 0
NL:misses: 0
NL:misses_by_poll: 0

total selections: 2528120
total_filled: 654777
total_useful: 599407
total_late: 393
total_polluted: 5
total_misses_after_warmup: 77204
conflicts: 17
Degree Incremented Times: 100536
Degree Decremented Times: 0

L1 IP Table Write Accesses: 12847558
L1 IP Table Read Accesses: 12847541
L1 RST Write Accesses: 1054352
L1 RST Read Accesses: 2108704
L1 CSPT Write Accesses: 1054352
L1 CSPT Read Accesses: 1058390
L1 RR Filter Tag Write Accesses: 5297073
L1 RR Filter Tag Read Accesses: 261869085
L1 IP Table Tag Write Accesses: 12847776
L1 IP Table Tag Read Accesses: 12847776
L1 RST Tag Write Accesses: 0
L1 RST Tag Read Accesses: 9498663
L1 RR Filter Write Accesses: 0
L1 RR Filter Read Accesses: 9034121
test: 35074
L2 IP Table Read Accesses: 1151930
L2 IP Table Write Accesses: 1090571
L2 IP Table Tag Read Accesses: 575966
L2 IP Table Tag Write Accesses: 575966

DRAM Statistics
 CHANNEL 0
 RQ ROW_BUFFER_HIT:     515706  ROW_BUFFER_MISS:     122549
 DBUS_CONGESTED:         80
 WQ ROW_BUFFER_HIT:        923  ROW_BUFFER_MISS:       4322  FULL:          0

 AVG_CONGESTED_CYCLE: 4
 All warmup complete: 2
Channel 0 Bank busy for read cycles: 0
Channel 0 Bank busy for write cycles: 0
Channel 0
Rank 0
0banks busy for read cycles: 26779121
0banks busy for write cycles: 3701
1banks busy for read cycles: 12043121
1banks busy for write cycles: 586657
2banks busy for read cycles: 3535390
2banks busy for write cycles: 116618
3banks busy for read cycles: 1404481
3banks busy for write cycles: 43250
4banks busy for read cycles: 761301
4banks busy for write cycles: 14884
5banks busy for read cycles: 523989
5banks busy for write cycles: 6249
6banks busy for read cycles: 522714
6banks busy for write cycles: 3630
7banks busy for read cycles: 1165348
7banks busy for write cycles: 390
8banks busy for read cycles: 485530
8banks busy for write cycles: 0

CPU 0 Branch Prediction Accuracy: 99.9267% MPKI: 0.03682 Average ROB Occupancy at Mispredict: 65.0043
Branch types
NOT_BRANCH: 47488929 94.9779%
BRANCH_DIRECT_JUMP: 40 8e-05%
BRANCH_INDIRECT: 0 0%
BRANCH_CONDITIONAL: 2510869 5.02174%
BRANCH_DIRECT_CALL: 40 8e-05%
BRANCH_INDIRECT_CALL: 0 0%
BRANCH_RETURN: 40 8e-05%
BRANCH_OTHER: 0 0%

@sumon_overall_L1D    599407       279     55354    654777   9097564   9845855
@Sumon_Early_by_class_L1D    598753       634        20         0
@Sumon_Late_by_class_L1D       276         0         0         0

@Sumon_Early_by_cycle_L1D       581      2057     21448     13601     17965    199935    343340        17         3        51       139       270
@Sumon_Late_by_cycle_L1D       231        44         4         0         0         0         0         0         0         0         0         0
@Sumon_Early_stream_L1D       581      2057     21415     13571     17931    199382    343336        17         3        51       139       270
@Sumon_Early_CS_L1D         0         0        31        27        29       543         4         0         0         0         0         0
@Sumon_Early_CPLX_L1D         0         0         2         3         5        10         0         0         0         0         0         0
@Sumon_Late_stream_L1D       228        44         4         0         0         0         0         0         0         0         0         0
@Sumon_Late_CS_L1D         0         0         0         0         0         0         0         0         0         0         0         0
@Sumon_Late_CPLX_L1D         0         0         0         0         0         0         0         0         0         0         0         0
@sumon_overall_L2C     33335        56    680522    713597   3058157   3249165
@Sumon_Early_by_class_L2C     33315        20         0         0
@Sumon_Late_by_class_L2C        50         0         0         0

@Sumon_Early_by_cycle_L2C        10       130      3253      1172      2296     13545     12113       103         0         1         0       712
@Sumon_Late_by_cycle_L2C        30        25         1         0         0         0         0         0         0         0         0         0
@Sumon_Early_stream_L2C        10       130      3253      1171      2296     13526     12113       103         0         1         0       712
@Sumon_Early_CS_L2C         0         0         0         1         0        19         0         0         0         0         0         0
@Sumon_Early_CPLX_L2C         0         0         0         0         0         0         0         0         0         0         0         0
@Sumon_Late_stream_L2C        24        25         1         0         0         0         0         0         0         0         0         0
@Sumon_Late_CS_L2C         0         0         0         0         0         0         0         0         0         0         0         0
@Sumon_Late_CPLX_L2C         0         0         0         0         0         0         0         0         0         0         0         0
DRAM PAGES: 1048576
Allocated PAGES: 20110
