
*** ChampSim Multicore Out-of-Order Simulator ***

Warmup Instructions: 10000000
Simulation Instructions: 50000000
Number of CPUs: 1
LLC sets: 2048
LLC ways: 16
Off-chip DRAM Size: 4096 MB Channels: 1 Width: 64-bit Data Rate: 6400 MT/s
CPU 0 runs traces/SPEC2017/654.roms_s-523B.champsimtrace.xz
.xz
CPU 0 Bimodal branch predictor
BTB has LRU replacement policy
ITLB has LRU replacement policy
DTLB has LRU replacement policy
STLB has LRU replacement policy
L1I has LRU replacement policy
IP Table Entries: 256
L1D has LRU replacement policy
IP_Table L2 entries: 256
L2C has LRU replacement policy
Initialize DRRIP state for LLC
Heartbeat CPU 0 instructions: 10000002 cycles: 2873043 heartbeat IPC: 3.48063 cumulative IPC: 3.48063 (Simulation time: 0 hr 19 min 22 sec) 

Warmup complete CPU 0 instructions: 10000002 cycles: 2873043 (Simulation time: 0 hr 19 min 22 sec) 

Heartbeat CPU 0 instructions: 20000000 cycles: 14433876 heartbeat IPC: 0.864989 cumulative IPC: 0.864989 (Simulation time: 0 hr 35 min 38 sec) 
Heartbeat CPU 0 instructions: 30000002 cycles: 27247879 heartbeat IPC: 0.780396 cumulative IPC: 0.820518 (Simulation time: 0 hr 59 min 17 sec) 
Heartbeat CPU 0 instructions: 40000001 cycles: 40706813 heartbeat IPC: 0.743001 cumulative IPC: 0.792942 (Simulation time: 1 hr 20 min 54 sec) 
Heartbeat CPU 0 instructions: 50000002 cycles: 50993007 heartbeat IPC: 0.972177 cumulative IPC: 0.831256 (Simulation time: 1 hr 41 min 57 sec) 
Heartbeat CPU 0 instructions: 60000003 cycles: 61346225 heartbeat IPC: 0.965883 cumulative IPC: 0.855093 (Simulation time: 2 hr 0 min 3 sec) 
Finished CPU 0 instructions: 50000001 cycles: 58473182 cumulative IPC: 0.855093 (Simulation time: 2 hr 0 min 3 sec) 

ChampSim completed all CPUs

Region of Interest Statistics

CPU 0 cumulative IPC: 0.855093 instructions: 50000001 cycles: 58473182
ITLB TOTAL     ACCESS:    7555660  HIT:    7555659  MISS:          1  HIT %:        100  MISS %: 1.32351e-05   MPKI: 2e-05
ITLB LOAD TRANSLATION ACCESS:    7555660  HIT:    7555659  MISS:          1  HIT %:        100  MISS %: 1.32351e-05   MPKI: 2e-05
ITLB PREFETCH  REQUESTED:          0  ISSUED:          0  USEFUL:          0  USELESS:          0
ITLB USEFUL LOAD PREFETCHES:          0 PREFETCH ISSUED TO LOWER LEVEL:          0  ACCURACY: -nan
ITLB TIMELY PREFETCHES:          0 LATE PREFETCHES: 0 DROPPED PREFETCHES: 0
ITLB PREFETCHES SAME FILL-ORIGIN LEVEL: 0 DIFFERENT FILL-ORIGIN LEVEL: 0
ITLB AVERAGE MISS LATENCY: 732 cycles
ITLB RQ	ACCESS:    9266994	FORWARD:          0	MERGED:    1711334	TO_CACHE:    7555660

DTLB TOTAL     ACCESS:   13289374  HIT:   13261217  MISS:      28157  HIT %:    99.7881  MISS %:   0.211876   MPKI: 0.56314
DTLB LOAD TRANSLATION ACCESS:   13289374  HIT:   13261217  MISS:      28157  HIT %:    99.7881  MISS %:   0.211876   MPKI: 0.56314
DTLB PREFETCH  REQUESTED:          0  ISSUED:          0  USEFUL:          0  USELESS:          0
DTLB USEFUL LOAD PREFETCHES:          0 PREFETCH ISSUED TO LOWER LEVEL:          0  ACCURACY: -nan
DTLB TIMELY PREFETCHES:          0 LATE PREFETCHES: 0 DROPPED PREFETCHES: 0
DTLB PREFETCHES SAME FILL-ORIGIN LEVEL: 0 DIFFERENT FILL-ORIGIN LEVEL: 0
DTLB AVERAGE MISS LATENCY: 186.965 cycles
DTLB RQ	ACCESS:   14616587	FORWARD:          0	MERGED:    1308883	TO_CACHE:   13307704

STLB TOTAL     ACCESS:    1190698  HIT:    1162674  MISS:      28024  HIT %:    97.6464  MISS %:    2.35358   MPKI: 0.56048
STLB LOAD TRANSLATION ACCESS:      28158  HIT:        134  MISS:      28024  HIT %:   0.475886  MISS %:    99.5241   MPKI: 0.56048
STLB TRANSLATION FROM L1D PREFETCHER ACCESS:    1162540  HIT:    1162540  MISS:          0  HIT %:        100  MISS %:          0   MPKI: 0
STLB PREFETCH  REQUESTED:          0  ISSUED:          0  USEFUL:          0  USELESS:          0
STLB USEFUL LOAD PREFETCHES:          0 PREFETCH ISSUED TO LOWER LEVEL:          0  ACCURACY: -nan
STLB TIMELY PREFETCHES:          0 LATE PREFETCHES: 0 DROPPED PREFETCHES: 0
STLB PREFETCHES SAME FILL-ORIGIN LEVEL: 0 DIFFERENT FILL-ORIGIN LEVEL: 0
STLB AVERAGE MISS LATENCY: 178.396 cycles
STLB RQ	ACCESS:    2694152	FORWARD:          0	MERGED:    1503453	TO_CACHE:    1190699

STLB Hit, L1D data hit: 0
STLB Hit, L2C data hit: 0
STLB Hit, LLC data hit: 0
STLB Hit, LLC data miss: 0
STLB STLB hints to L2: 0
L1D TOTAL     ACCESS:   15513177  HIT:   14239898  MISS:    1273279  HIT %:    91.7923  MISS %:    8.20773   MPKI: 25.4656
L1D LOAD      ACCESS:   11440904  HIT:   11399156  MISS:      41748  HIT %:    99.6351  MISS %:   0.364901   MPKI: 0.83496
L1D RFO       ACCESS:    1425077  HIT:    1156701  MISS:     268376  HIT %:    81.1676  MISS %:    18.8324   MPKI: 5.36752
L1D PREFETCH  ACCESS:    2647196  HIT:    1684041  MISS:     963155  HIT %:     63.616  MISS %:     36.384   MPKI: 19.2631
L1D PREFETCH  REQUESTED:    5377614  ISSUED:    5331996  USEFUL:     906209  USELESS:      56948
L1D USEFUL LOAD PREFETCHES:     906209 PREFETCH ISSUED TO LOWER LEVEL:     973635  ACCURACY: 93.0748
L1D TIMELY PREFETCHES:     906209 LATE PREFETCHES: 9897 DROPPED PREFETCHES: 0
L1D PREFETCHES SAME FILL-ORIGIN LEVEL: 973635 DIFFERENT FILL-ORIGIN LEVEL: 0
L1D AVERAGE MISS LATENCY: 275291 cycles
L1D RQ	ACCESS:   18805328	FORWARD:          0	MERGED:    7301702	TO_CACHE:   11503435
L1D WQ	ACCESS:    3113152	FORWARD:        193	MERGED:          0	TO_CACHE:    3113152
L1D PQ	ACCESS:    2666002	FORWARD:          0	MERGED:          6	TO_CACHE:    2665994

L1D UNIQUE REGIONS ACCESSED: 0
L1D REGIONS CONFLICTS: 0
L1D Cross Page Prefetch Requests: 0
L1D Same Page Prefetch Requests: 3541151
L1D ROI Sum of L1D PQ occupancy: 37646639
L1D PREFETCHES PUSHED FROM L2C: 0
L1I TOTAL     ACCESS:    9266970  HIT:    9266904  MISS:         66  HIT %:    99.9993  MISS %: 0.000712207   MPKI: 0.00132
L1I LOAD      ACCESS:    9266970  HIT:    9266904  MISS:         66  HIT %:    99.9993  MISS %: 0.000712207   MPKI: 0.00132
L1I PREFETCH  REQUESTED:          0  ISSUED:          0  USEFUL:          0  USELESS:          0
L1I USEFUL LOAD PREFETCHES:          0 PREFETCH ISSUED TO LOWER LEVEL:          0  ACCURACY: -nan
L1I TIMELY PREFETCHES:          0 LATE PREFETCHES: 0 DROPPED PREFETCHES: 0
L1I PREFETCHES SAME FILL-ORIGIN LEVEL: 0 DIFFERENT FILL-ORIGIN LEVEL: 0
L1I AVERAGE MISS LATENCY: 314.424 cycles
L1I RQ	ACCESS:   12987594	FORWARD:          0	MERGED:    3720600	TO_CACHE:    9266994

BTB TOTAL     ACCESS:    3177499  HIT:    3177467  MISS:         32  HIT %:     99.999  MISS %: 0.00100708   MPKI: 0.00064
BTB BRANCH_DIRECT_JUMP	ACCESS:     264277  HIT:     264273  MISS:          4
BTB BRANCH_INDIRECT	ACCESS:          0  HIT:          0  MISS:          0
BTB BRANCH_CONDITIONAL	ACCESS:    2913222  HIT:    2913194  MISS:         28
BTB BRANCH_DIRECT_CALL	ACCESS:          0  HIT:          0  MISS:          0
BTB BRANCH_INDIRECT_CALL	ACCESS:          0  HIT:          0  MISS:          0
BTB BRANCH_RETURN	ACCESS:          0  HIT:          0  MISS:          0
BTB BRANCH_OTHER ACCESS:          0  HIT:          0  MISS:          0

L2C TOTAL     ACCESS:    5294759  HIT:    3971147  MISS:    1323612  HIT %:    75.0015  MISS %:    24.9985   MPKI: 26.4722
L2C LOAD      ACCESS:      31913  HIT:       2608  MISS:      29305  HIT %:    8.17222  MISS %:    91.8278   MPKI: 0.5861
L2C DATA LOAD MPKI: 0.58478
L2C INSTRUCTION LOAD MPKI: 0.00132
L2C RFO       ACCESS:     268376  HIT:          6  MISS:     268370  HIT %: 0.00223567  MISS %:    99.9978   MPKI: 5.3674
L2C PREFETCH  ACCESS:    4564680  HIT:    3544733  MISS:    1019947  HIT %:    77.6557  MISS %:    22.3443   MPKI: 20.3989
L2C DATA PREFETCH MPKI: 20.3989
L2C INSTRUCTION PREFETCH MPKI: 0
L2C WRITEBACK ACCESS:     401746  HIT:     401705  MISS:         41  HIT %:    99.9898  MISS %:  0.0102055   MPKI: 0.00082
L2C LOAD TRANSLATION ACCESS:      28044  HIT:      22095  MISS:       5949  HIT %:    78.7869  MISS %:    21.2131   MPKI: 0.11898
L2C PREFETCH  REQUESTED:    4630454  ISSUED:    4609779  USEFUL:        970  USELESS:    1018929
L2C USEFUL LOAD PREFETCHES:        970 PREFETCH ISSUED TO LOWER LEVEL:    1020316  ACCURACY: 0.0950686
L2C TIMELY PREFETCHES:        970 LATE PREFETCHES: 367 DROPPED PREFETCHES: 0
L2C PREFETCHES SAME FILL-ORIGIN LEVEL: 860309 DIFFERENT FILL-ORIGIN LEVEL: 0
L2C AVERAGE MISS LATENCY: 262.205 cycles
L2C RQ	ACCESS:     328338	FORWARD:          0	MERGED:          0	TO_CACHE:     328334
L2C WQ	ACCESS:     401746	FORWARD:          4	MERGED:          0	TO_CACHE:     401746
L2C PQ	ACCESS:    5582831	FORWARD:          0	MERGED:     270550	TO_CACHE:    5312281

L2C Instructions Evicting Data 66
L2C Translations Evicting Data 5917
L2C Data Evicting Data 1311560
L2C Instructions Evicting Instructions 0
L2C Translations Evicting Instructions 0
L2C Data Evicting Instructions 66
L2C Instructions Evicting Translations 0
L2C Translations Evicting Translations 32
L2C Data Evicting Translations 5930
L2C Dense regions hint from L2: 0
PSCL5 TOTAL     ACCESS:      28024  HIT:      28024  MISS:          0  HIT %:        100  MISS %:          0   MPKI: 0
PSCL5 LOAD TRANSLATION ACCESS:      28024  HIT:      28024  MISS:          0  HIT %:        100  MISS %:          0   MPKI: 0
PSCL5 PREFETCH  REQUESTED:          0  ISSUED:          0  USEFUL:          0  USELESS:          0
PSCL5 USEFUL LOAD PREFETCHES:          0 PREFETCH ISSUED TO LOWER LEVEL:          0  ACCURACY: -nan
PSCL5 TIMELY PREFETCHES:          0 LATE PREFETCHES: 0 DROPPED PREFETCHES: 0
PSCL5 PREFETCHES SAME FILL-ORIGIN LEVEL: 0 DIFFERENT FILL-ORIGIN LEVEL: 0

PSCL4 TOTAL     ACCESS:      28024  HIT:      28024  MISS:          0  HIT %:        100  MISS %:          0   MPKI: 0
PSCL4 LOAD TRANSLATION ACCESS:      28024  HIT:      28024  MISS:          0  HIT %:        100  MISS %:          0   MPKI: 0
PSCL4 PREFETCH  REQUESTED:          0  ISSUED:          0  USEFUL:          0  USELESS:          0
PSCL4 USEFUL LOAD PREFETCHES:          0 PREFETCH ISSUED TO LOWER LEVEL:          0  ACCURACY: -nan
PSCL4 TIMELY PREFETCHES:          0 LATE PREFETCHES: 0 DROPPED PREFETCHES: 0
PSCL4 PREFETCHES SAME FILL-ORIGIN LEVEL: 0 DIFFERENT FILL-ORIGIN LEVEL: 0

PSCL3 TOTAL     ACCESS:      28024  HIT:      28020  MISS:          4  HIT %:    99.9857  MISS %:  0.0142735   MPKI: 8e-05
PSCL3 LOAD TRANSLATION ACCESS:      28024  HIT:      28020  MISS:          4  HIT %:    99.9857  MISS %:  0.0142735   MPKI: 8e-05
PSCL3 PREFETCH  REQUESTED:          0  ISSUED:          0  USEFUL:          0  USELESS:          0
PSCL3 USEFUL LOAD PREFETCHES:          0 PREFETCH ISSUED TO LOWER LEVEL:          0  ACCURACY: -nan
PSCL3 TIMELY PREFETCHES:          0 LATE PREFETCHES: 0 DROPPED PREFETCHES: 0
PSCL3 PREFETCHES SAME FILL-ORIGIN LEVEL: 0 DIFFERENT FILL-ORIGIN LEVEL: 0

PSCL2 TOTAL     ACCESS:      28024  HIT:      27942  MISS:         82  HIT %:    99.7074  MISS %:   0.292606   MPKI: 0.00164
PSCL2 LOAD TRANSLATION ACCESS:      28024  HIT:      27942  MISS:         82  HIT %:    99.7074  MISS %:   0.292606   MPKI: 0.00164
PSCL2 PREFETCH  REQUESTED:          0  ISSUED:          0  USEFUL:          0  USELESS:          0
PSCL2 USEFUL LOAD PREFETCHES:          0 PREFETCH ISSUED TO LOWER LEVEL:          0  ACCURACY: -nan
PSCL2 TIMELY PREFETCHES:          0 LATE PREFETCHES: 0 DROPPED PREFETCHES: 0
PSCL2 PREFETCHES SAME FILL-ORIGIN LEVEL: 0 DIFFERENT FILL-ORIGIN LEVEL: 0

LLC TOTAL     ACCESS:    1725023  HIT:     395575  MISS:    1329448  HIT %:    22.9316  MISS %:    77.0684   MPKI: 26.589
LLC LOAD      ACCESS:      28938  HIT:         53  MISS:      28885  HIT %:    0.18315  MISS %:    99.8168   MPKI: 0.5777
LLC RFO       ACCESS:     268370  HIT:          2  MISS:     268368  HIT %: 0.00074524  MISS %:    99.9993   MPKI: 5.36736
LLC PREFETCH  ACCESS:    1020314  HIT:        113  MISS:    1020201  HIT %:   0.011075  MISS %:    99.9889   MPKI: 20.404
LLC WRITEBACK ACCESS:     401452  HIT:     395383  MISS:       6069  HIT %:    98.4882  MISS %:    1.51176   MPKI: 0.12138
LLC LOAD TRANSLATION ACCESS:       5949  HIT:         24  MISS:       5925  HIT %:   0.403429  MISS %:    99.5966   MPKI: 0.1185
LLC PREFETCH  REQUESTED:          0  ISSUED:          0  USEFUL:          2  USELESS:    1019735
LLC USEFUL LOAD PREFETCHES:          2 PREFETCH ISSUED TO LOWER LEVEL:    1020203  ACCURACY: 0.000196039
LLC TIMELY PREFETCHES:          2 LATE PREFETCHES: 0 DROPPED PREFETCHES: 0
LLC PREFETCHES SAME FILL-ORIGIN LEVEL: 0 DIFFERENT FILL-ORIGIN LEVEL: 0
LLC AVERAGE MISS LATENCY: 229.968 cycles
LLC RQ	ACCESS:     303258	FORWARD:          0	MERGED:          0	TO_CACHE:     303258
LLC WQ	ACCESS:     401452	FORWARD:          0	MERGED:          0	TO_CACHE:     401452
LLC PQ	ACCESS:    1020316	FORWARD:          0	MERGED:          0	TO_CACHE:    1020316

LLC Dense regions hint to LLC: 0

RAW hits: 3753
Loads Generated: 18809086
Loads sent to L1D: 18805328
Stores Generated: 3113152
Stores sent to L1D: 3113152
Major fault: 0 Minor fault: 19648
Allocated PAGES: 19648

stream: 
stream:times selected: 2326696
stream:pref_filled: 1069092
stream:pref_useful: 1005365
stream:pref_late: 9718
stream:misses: 277
stream:misses_by_poll: 0

CS: 
CS:times selected: 2267262
CS:pref_filled: 1215
CS:pref_useful: 1125
CS:pref_late: 21
CS:misses: 102704
CS:misses_by_poll: 12

CPLX: 
CPLX:times selected: 59354
CPLX:pref_filled: 1477
CPLX:pref_useful: 979
CPLX:pref_late: 3
CPLX:misses: 3359
CPLX:misses_by_poll: 3

NL_L1: 
NL:times selected: 14
NL:pref_filled: 1
NL:pref_useful: 1
NL:pref_late: 0
NL:misses: 13
NL:misses_by_poll: 0

total selections: 4653326
total_filled: 963155
total_useful: 906209
total_late: 9963
total_polluted: 15
total_misses_after_warmup: 104275
conflicts: 1909
Degree Incremented Times: 140419
Degree Decremented Times: 0

L1 IP Table Write Accesses: 11493902
L1 IP Table Read Accesses: 11491993
L1 RST Write Accesses: 2024026
L1 RST Read Accesses: 4048052
L1 CSPT Write Accesses: 2024026
L1 CSPT Read Accesses: 2172344
L1 RR Filter Tag Write Accesses: 2711620
L1 RR Filter Tag Read Accesses: 391710617
L1 IP Table Tag Write Accesses: 11503431
L1 IP Table Tag Read Accesses: 11503431
L1 RST Tag Write Accesses: 0
L1 RST Tag Read Accesses: 18246485
L1 RR Filter Write Accesses: 0
L1 RR Filter Read Accesses: 17334949
test: 53630
L2 IP Table Read Accesses: 1650984
L2 IP Table Write Accesses: 1619427
L2 IP Table Tag Read Accesses: 825576
L2 IP Table Tag Write Accesses: 825576

DRAM Statistics
 CHANNEL 0
 RQ ROW_BUFFER_HIT:     342092  ROW_BUFFER_MISS:     981287
 DBUS_CONGESTED:        140
 WQ ROW_BUFFER_HIT:      58147  ROW_BUFFER_MISS:     343656  FULL:          0

 AVG_CONGESTED_CYCLE: 5
 All warmup complete: 2
Channel 0 Bank busy for read cycles: 0
Channel 0 Bank busy for write cycles: 0
Channel 0
Rank 0
0banks busy for read cycles: 70760
0banks busy for write cycles: 0
1banks busy for read cycles: 8754777
1banks busy for write cycles: 85671
2banks busy for read cycles: 10065958
2banks busy for write cycles: 85180
3banks busy for read cycles: 8135477
3banks busy for write cycles: 84883
4banks busy for read cycles: 4798546
4banks busy for write cycles: 84569
5banks busy for read cycles: 3565390
5banks busy for write cycles: 85200
6banks busy for read cycles: 2967849
6banks busy for write cycles: 97300
7banks busy for read cycles: 4215784
7banks busy for write cycles: 700204
8banks busy for read cycles: 3943838
8banks busy for write cycles: 10731797

CPU 0 Branch Prediction Accuracy: 99.8382% MPKI: 0.10508 Average ROB Occupancy at Mispredict: 73.7183
Branch types
NOT_BRANCH: 46752830 93.5057%
BRANCH_DIRECT_JUMP: 264277 0.528554%
BRANCH_INDIRECT: 0 0%
BRANCH_CONDITIONAL: 2982595 5.96519%
BRANCH_DIRECT_CALL: 0 0%
BRANCH_INDIRECT_CALL: 0 0%
BRANCH_RETURN: 0 0%
BRANCH_OTHER: 0 0%

@sumon_overall_L1D    906209      9897     56948    963155   5331996   5377614
@Sumon_Early_by_class_L1D    904242       982       979         0
@Sumon_Late_by_class_L1D      9652        21         3         0

@Sumon_Early_by_cycle_L1D     15097     30968     68428    165846    227087    338063     60704         4        12         0         0         0
@Sumon_Late_by_cycle_L1D      3107      5076      1423       241        46         4         0         0         0         0         0         0
@Sumon_Early_stream_L1D     15039     30789     68129    165635    226700    337547     60391         0        12         0         0         0
@Sumon_Early_CS_L1D        53       153       275       152       104       245         0         0         0         0         0         0
@Sumon_Early_CPLX_L1D         4        26        24        57       280       271       313         4         0         0         0         0
@Sumon_Late_stream_L1D      2877      5068      1418       239        46         4         0         0         0         0         0         0
@Sumon_Late_CS_L1D        12         4         3         2         0         0         0         0         0         0         0         0
@Sumon_Late_CPLX_L1D         0         1         2         0         0         0         0         0         0         0         0         0
@sumon_overall_L2C       970       367   1018929   1019947   4609779   4630454
@Sumon_Early_by_class_L2C       938         0         0         0
@Sumon_Late_by_class_L2C       358         0         0         0

@Sumon_Early_by_cycle_L2C        88        43        52        40        58       616        66         0         3         4         0         0
@Sumon_Late_by_cycle_L2C        61       180       112        10         2         2         0         0         0         0         0         0
@Sumon_Early_stream_L2C        84        37        49        36        55       608        66         0         1         2         0         0
@Sumon_Early_CS_L2C         0         0         0         0         0         0         0         0         0         0         0         0
@Sumon_Early_CPLX_L2C         0         0         0         0         0         0         0         0         0         0         0         0
@Sumon_Late_stream_L2C        55       177       112        10         2         2         0         0         0         0         0         0
@Sumon_Late_CS_L2C         0         0         0         0         0         0         0         0         0         0         0         0
@Sumon_Late_CPLX_L2C         0         0         0         0         0         0         0         0         0         0         0         0
DRAM PAGES: 1048576
Allocated PAGES: 19648
