
*** ChampSim Multicore Out-of-Order Simulator ***

Warmup Instructions: 10000000
Simulation Instructions: 50000000
Number of CPUs: 1
LLC sets: 2048
LLC ways: 16
Off-chip DRAM Size: 4096 MB Channels: 1 Width: 64-bit Data Rate: 533 MT/s
CPU 0 runs traces/clientserver/server_027.champsimtrace.xz
.xz
CPU 0 Bimodal branch predictor
BTB has LRU replacement policy
ITLB has LRU replacement policy
DTLB has LRU replacement policy
STLB has LRU replacement policy
L1I has LRU replacement policy
IP Table Entries: 256
L1D has LRU replacement policy
IP_Table L2 entries: 256
L2C has LRU replacement policy
LLC has LRU replacement policy
Heartbeat CPU 0 instructions: 10000000 cycles: 2886850 heartbeat IPC: 3.46398 cumulative IPC: 3.46398 (Simulation time: 0 hr 8 min 57 sec) 

Warmup complete CPU 0 instructions: 10000004 cycles: 2886851 (Simulation time: 0 hr 8 min 57 sec) 

Heartbeat CPU 0 instructions: 20000001 cycles: 28187169 heartbeat IPC: 0.395252 cumulative IPC: 0.395252 (Simulation time: 0 hr 17 min 41 sec) 
Heartbeat CPU 0 instructions: 30000001 cycles: 53312098 heartbeat IPC: 0.398011 cumulative IPC: 0.396627 (Simulation time: 0 hr 26 min 18 sec) 
Heartbeat CPU 0 instructions: 40000001 cycles: 78501288 heartbeat IPC: 0.396996 cumulative IPC: 0.39675 (Simulation time: 0 hr 35 min 3 sec) 
Heartbeat CPU 0 instructions: 50000000 cycles: 103611590 heartbeat IPC: 0.398243 cumulative IPC: 0.397122 (Simulation time: 0 hr 43 min 39 sec) 
Heartbeat CPU 0 instructions: 60000002 cycles: 128909197 heartbeat IPC: 0.395294 cumulative IPC: 0.396755 (Simulation time: 0 hr 51 min 22 sec) 
Finished CPU 0 instructions: 50000001 cycles: 126022352 cumulative IPC: 0.396755 (Simulation time: 0 hr 51 min 22 sec) 

ChampSim completed all CPUs

Region of Interest Statistics

CPU 0 cumulative IPC: 0.396755 instructions: 50000001 cycles: 126022352
ITLB TOTAL     ACCESS:    8425164  HIT:    7934344  MISS:     490820  HIT %:    94.1744  MISS %:    5.82564   MPKI: 9.8164
ITLB LOAD TRANSLATION ACCESS:    8425164  HIT:    7934344  MISS:     490820  HIT %:    94.1744  MISS %:    5.82564   MPKI: 9.8164
ITLB PREFETCH  REQUESTED:          0  ISSUED:          0  USEFUL:          0  USELESS:          0
ITLB USEFUL LOAD PREFETCHES:          0 PREFETCH ISSUED TO LOWER LEVEL:          0  ACCURACY: -nan
ITLB TIMELY PREFETCHES:          0 LATE PREFETCHES: 0 DROPPED PREFETCHES: 0
ITLB PREFETCHES SAME FILL-ORIGIN LEVEL: 0 DIFFERENT FILL-ORIGIN LEVEL: 0
ITLB AVERAGE MISS LATENCY: 9.06503 cycles
ITLB RQ	ACCESS:   10061169	FORWARD:          0	MERGED:    1512353	TO_CACHE:    8548816

DTLB TOTAL     ACCESS:   12625389  HIT:   12150122  MISS:     475267  HIT %:    96.2356  MISS %:    3.76438   MPKI: 9.50534
DTLB LOAD TRANSLATION ACCESS:   12625389  HIT:   12150122  MISS:     475267  HIT %:    96.2356  MISS %:    3.76438   MPKI: 9.50534
DTLB PREFETCH  REQUESTED:          0  ISSUED:          0  USEFUL:          0  USELESS:          0
DTLB USEFUL LOAD PREFETCHES:          0 PREFETCH ISSUED TO LOWER LEVEL:          0  ACCURACY: -nan
DTLB TIMELY PREFETCHES:          0 LATE PREFETCHES: 0 DROPPED PREFETCHES: 0
DTLB PREFETCHES SAME FILL-ORIGIN LEVEL: 0 DIFFERENT FILL-ORIGIN LEVEL: 0
DTLB AVERAGE MISS LATENCY: 9.41318 cycles
DTLB RQ	ACCESS:   15744585	FORWARD:          0	MERGED:    3099134	TO_CACHE:   12645451

STLB TOTAL     ACCESS:    1384220  HIT:    1381910  MISS:       2310  HIT %:    99.8331  MISS %:   0.166881   MPKI: 0.0462
STLB LOAD TRANSLATION ACCESS:     966087  HIT:     963777  MISS:       2310  HIT %:    99.7609  MISS %:   0.239109   MPKI: 0.0462
STLB TRANSLATION FROM L1D PREFETCHER ACCESS:     418133  HIT:     418133  MISS:          0  HIT %:        100  MISS %:          0   MPKI: 0
STLB PREFETCH  REQUESTED:          0  ISSUED:          0  USEFUL:          0  USELESS:          0
STLB USEFUL LOAD PREFETCHES:          0 PREFETCH ISSUED TO LOWER LEVEL:          0  ACCURACY: -nan
STLB TIMELY PREFETCHES:          0 LATE PREFETCHES: 0 DROPPED PREFETCHES: 0
STLB PREFETCHES SAME FILL-ORIGIN LEVEL: 0 DIFFERENT FILL-ORIGIN LEVEL: 0
STLB AVERAGE MISS LATENCY: 94.9143 cycles
STLB RQ	ACCESS:    1499399	FORWARD:          0	MERGED:     115179	TO_CACHE:    1384220

STLB Hit, L1D data hit: 0
STLB Hit, L2C data hit: 0
STLB Hit, LLC data hit: 0
STLB Hit, LLC data miss: 0
STLB STLB hints to L2: 0
L1D TOTAL     ACCESS:   15757568  HIT:   14601191  MISS:    1156377  HIT %:    92.6615  MISS %:    7.33855   MPKI: 23.1275
L1D LOAD      ACCESS:    8821011  HIT:    8104508  MISS:     716503  HIT %:    91.8773  MISS %:    8.12269   MPKI: 14.3301
L1D RFO       ACCESS:    6440995  HIT:    6146549  MISS:     294446  HIT %:    95.4286  MISS %:    4.57144   MPKI: 5.88892
L1D PREFETCH  ACCESS:     495562  HIT:     350134  MISS:     145428  HIT %:    70.6539  MISS %:    29.3461   MPKI: 2.90856
L1D PREFETCH  REQUESTED:    1066911  ISSUED:    1066821  USEFUL:      41702  USELESS:     103745
L1D USEFUL LOAD PREFETCHES:      41702 PREFETCH ISSUED TO LOWER LEVEL:     167951  ACCURACY: 24.8299
L1D TIMELY PREFETCHES:      41702 LATE PREFETCHES: 21997 DROPPED PREFETCHES: 0
L1D PREFETCHES SAME FILL-ORIGIN LEVEL: 167951 DIFFERENT FILL-ORIGIN LEVEL: 0
L1D AVERAGE MISS LATENCY: 1.25727e+06 cycles
L1D RQ	ACCESS:   12112892	FORWARD:          0	MERGED:    3146557	TO_CACHE:    8852369
L1D WQ	ACCESS:    6938884	FORWARD:     114163	MERGED:      46668	TO_CACHE:    6892216
L1D PQ	ACCESS:     533509	FORWARD:          0	MERGED:          0	TO_CACHE:     533312

L1D UNIQUE REGIONS ACCESSED: 0
L1D REGIONS CONFLICTS: 0
L1D Cross Page Prefetch Requests: 0
L1D Same Page Prefetch Requests: 637642
L1D ROI Sum of L1D PQ occupancy: 8087839
L1D PREFETCHES PUSHED FROM L2C: 0
L1I TOTAL     ACCESS:    9601832  HIT:    6853270  MISS:    2748562  HIT %:    71.3746  MISS %:    28.6254   MPKI: 54.9712
L1I LOAD      ACCESS:    9601832  HIT:    6853270  MISS:    2748562  HIT %:    71.3746  MISS %:    28.6254   MPKI: 54.9712
L1I PREFETCH  REQUESTED:          0  ISSUED:          0  USEFUL:          0  USELESS:          0
L1I USEFUL LOAD PREFETCHES:          0 PREFETCH ISSUED TO LOWER LEVEL:          0  ACCURACY: -nan
L1I TIMELY PREFETCHES:          0 LATE PREFETCHES: 0 DROPPED PREFETCHES: 0
L1I PREFETCHES SAME FILL-ORIGIN LEVEL: 0 DIFFERENT FILL-ORIGIN LEVEL: 0
L1I AVERAGE MISS LATENCY: 18.7384 cycles
L1I RQ	ACCESS:   13831487	FORWARD:          0	MERGED:    3770318	TO_CACHE:   10061169

BTB TOTAL     ACCESS:    5994310  HIT:    3988077  MISS:    2006233  HIT %:     66.531  MISS %:     33.469   MPKI: 40.1247
BTB BRANCH_DIRECT_JUMP	ACCESS:     527013  HIT:     350195  MISS:     176818
BTB BRANCH_INDIRECT	ACCESS:     206168  HIT:     168860  MISS:      37308
BTB BRANCH_CONDITIONAL	ACCESS:    3044122  HIT:    2482259  MISS:     561863
BTB BRANCH_DIRECT_CALL	ACCESS:     934907  HIT:     527457  MISS:     407450
BTB BRANCH_INDIRECT_CALL	ACCESS:     173595  HIT:      94867  MISS:      78728
BTB BRANCH_RETURN	ACCESS:    1108505  HIT:     364439  MISS:     744066
BTB BRANCH_OTHER ACCESS:          0  HIT:          0  MISS:          0

L2C TOTAL     ACCESS:    5019458  HIT:    4251590  MISS:     767868  HIT %:    84.7022  MISS %:    15.2978   MPKI: 15.3574
L2C LOAD      ACCESS:    3443065  HIT:    2907153  MISS:     535912  HIT %:     84.435  MISS %:     15.565   MPKI: 10.7182
L2C DATA LOAD MPKI: 2.29388
L2C INSTRUCTION LOAD MPKI: 8.42436
L2C RFO       ACCESS:     293920  HIT:     207776  MISS:      86144  HIT %:    70.6913  MISS %:    29.3087   MPKI: 1.72288
L2C PREFETCH  ACCESS:     755008  HIT:     617734  MISS:     137274  HIT %:    81.8182  MISS %:    18.1818   MPKI: 2.74548
L2C DATA PREFETCH MPKI: 2.74548
L2C INSTRUCTION PREFETCH MPKI: 0
L2C WRITEBACK ACCESS:     524981  HIT:     518286  MISS:       6695  HIT %:    98.7247  MISS %:    1.27528   MPKI: 0.1339
L2C LOAD TRANSLATION ACCESS:       2484  HIT:        641  MISS:       1843  HIT %:    25.8052  MISS %:    74.1948   MPKI: 0.03686
L2C PREFETCH  REQUESTED:     601492  ISSUED:     601492  USEFUL:      25532  USELESS:     111837
L2C USEFUL LOAD PREFETCHES:      25532 PREFETCH ISSUED TO LOWER LEVEL:     140952  ACCURACY: 18.114
L2C TIMELY PREFETCHES:      25532 LATE PREFETCHES: 3678 DROPPED PREFETCHES: 0
L2C PREFETCHES SAME FILL-ORIGIN LEVEL: 91892 DIFFERENT FILL-ORIGIN LEVEL: 0
L2C AVERAGE MISS LATENCY: 47.6023 cycles
L2C RQ	ACCESS:    3739473	FORWARD:          0	MERGED:          0	TO_CACHE:    3739470
L2C WQ	ACCESS:     524981	FORWARD:          9	MERGED:          0	TO_CACHE:     524981
L2C PQ	ACCESS:     769443	FORWARD:          0	MERGED:       5586	TO_CACHE:     763851

L2C Instructions Evicting Data 167685
L2C Translations Evicting Data 1285
L2C Data Evicting Data 173539
L2C Instructions Evicting Instructions 252884
L2C Translations Evicting Instructions 553
L2C Data Evicting Instructions 163394
L2C Instructions Evicting Translations 649
L2C Translations Evicting Translations 5
L2C Data Evicting Translations 1175
L2C Dense regions hint from L2: 0
PSCL5 TOTAL     ACCESS:       2310  HIT:       2310  MISS:          0  HIT %:        100  MISS %:          0   MPKI: 0
PSCL5 LOAD TRANSLATION ACCESS:       2310  HIT:       2310  MISS:          0  HIT %:        100  MISS %:          0   MPKI: 0
PSCL5 PREFETCH  REQUESTED:          0  ISSUED:          0  USEFUL:          0  USELESS:          0
PSCL5 USEFUL LOAD PREFETCHES:          0 PREFETCH ISSUED TO LOWER LEVEL:          0  ACCURACY: -nan
PSCL5 TIMELY PREFETCHES:          0 LATE PREFETCHES: 0 DROPPED PREFETCHES: 0
PSCL5 PREFETCHES SAME FILL-ORIGIN LEVEL: 0 DIFFERENT FILL-ORIGIN LEVEL: 0

PSCL4 TOTAL     ACCESS:       2074  HIT:       2051  MISS:         23  HIT %:     98.891  MISS %:    1.10897   MPKI: 0.00046
PSCL4 LOAD TRANSLATION ACCESS:       2074  HIT:       2051  MISS:         23  HIT %:     98.891  MISS %:    1.10897   MPKI: 0.00046
PSCL4 PREFETCH  REQUESTED:          0  ISSUED:          0  USEFUL:          0  USELESS:          0
PSCL4 USEFUL LOAD PREFETCHES:          0 PREFETCH ISSUED TO LOWER LEVEL:          0  ACCURACY: -nan
PSCL4 TIMELY PREFETCHES:          0 LATE PREFETCHES: 0 DROPPED PREFETCHES: 0
PSCL4 PREFETCHES SAME FILL-ORIGIN LEVEL: 0 DIFFERENT FILL-ORIGIN LEVEL: 0

PSCL3 TOTAL     ACCESS:       2130  HIT:       2106  MISS:         24  HIT %:    98.8732  MISS %:    1.12676   MPKI: 0.00048
PSCL3 LOAD TRANSLATION ACCESS:       2130  HIT:       2106  MISS:         24  HIT %:    98.8732  MISS %:    1.12676   MPKI: 0.00048
PSCL3 PREFETCH  REQUESTED:          0  ISSUED:          0  USEFUL:          0  USELESS:          0
PSCL3 USEFUL LOAD PREFETCHES:          0 PREFETCH ISSUED TO LOWER LEVEL:          0  ACCURACY: -nan
PSCL3 TIMELY PREFETCHES:          0 LATE PREFETCHES: 0 DROPPED PREFETCHES: 0
PSCL3 PREFETCHES SAME FILL-ORIGIN LEVEL: 0 DIFFERENT FILL-ORIGIN LEVEL: 0

PSCL2 TOTAL     ACCESS:       2310  HIT:       2175  MISS:        135  HIT %:    94.1558  MISS %:    5.84416   MPKI: 0.0027
PSCL2 LOAD TRANSLATION ACCESS:       2310  HIT:       2175  MISS:        135  HIT %:    94.1558  MISS %:    5.84416   MPKI: 0.0027
PSCL2 PREFETCH  REQUESTED:          0  ISSUED:          0  USEFUL:          0  USELESS:          0
PSCL2 USEFUL LOAD PREFETCHES:          0 PREFETCH ISSUED TO LOWER LEVEL:          0  ACCURACY: -nan
PSCL2 TIMELY PREFETCHES:          0 LATE PREFETCHES: 0 DROPPED PREFETCHES: 0
PSCL2 PREFETCHES SAME FILL-ORIGIN LEVEL: 0 DIFFERENT FILL-ORIGIN LEVEL: 0

LLC TOTAL     ACCESS:     899178  HIT:     868134  MISS:      31044  HIT %:    96.5475  MISS %:    3.45249   MPKI: 0.62088
LLC LOAD      ACCESS:     532421  HIT:     528179  MISS:       4242  HIT %:    99.2033  MISS %:   0.796738   MPKI: 0.08484
LLC RFO       ACCESS:      85957  HIT:      70449  MISS:      15508  HIT %:    81.9584  MISS %:    18.0416   MPKI: 0.31016
LLC PREFETCH  ACCESS:     140952  HIT:     129892  MISS:      11060  HIT %:    92.1534  MISS %:    7.84664   MPKI: 0.2212
LLC WRITEBACK ACCESS:     138005  HIT:     137944  MISS:         61  HIT %:    99.9558  MISS %:  0.0442013   MPKI: 0.00122
LLC LOAD TRANSLATION ACCESS:       1843  HIT:       1670  MISS:        173  HIT %:    90.6131  MISS %:    9.38687   MPKI: 0.00346
LLC PREFETCH  REQUESTED:          0  ISSUED:          0  USEFUL:       1056  USELESS:       6298
LLC USEFUL LOAD PREFETCHES:       1056 PREFETCH ISSUED TO LOWER LEVEL:      11060  ACCURACY: 9.54792
LLC TIMELY PREFETCHES:       1056 LATE PREFETCHES: 0 DROPPED PREFETCHES: 0
LLC PREFETCHES SAME FILL-ORIGIN LEVEL: 0 DIFFERENT FILL-ORIGIN LEVEL: 0
LLC AVERAGE MISS LATENCY: 443.501 cycles
LLC RQ	ACCESS:     620221	FORWARD:          0	MERGED:          0	TO_CACHE:     620221
LLC WQ	ACCESS:     138005	FORWARD:          0	MERGED:          0	TO_CACHE:     138005
LLC PQ	ACCESS:     140952	FORWARD:          0	MERGED:          0	TO_CACHE:     140952

LLC Dense regions hint to LLC: 0

RAW hits: 527695
Loads Generated: 12640584
Loads sent to L1D: 12112892
Stores Generated: 6938885
Stores sent to L1D: 6938884
Major fault: 0 Minor fault: 2251
Allocated PAGES: 2251

stream: 
stream:times selected: 1020145
stream:pref_filled: 102285
stream:pref_useful: 18453
stream:pref_late: 16171
stream:misses: 5514
stream:misses_by_poll: 0

CS: 
CS:times selected: 129911
CS:pref_filled: 45563
CS:pref_useful: 27225
CS:pref_late: 4423
CS:misses: 10936
CS:misses_by_poll: 8

CPLX: 
CPLX:times selected: 888195
CPLX:pref_filled: 22597
CPLX:pref_useful: 4055
CPLX:pref_late: 1450
CPLX:misses: 63598
CPLX:misses_by_poll: 0

NL_L1: 
NL:times selected: 5738
NL:pref_filled: 626
NL:pref_useful: 74
NL:pref_late: 10
NL:misses: 112
NL:misses_by_poll: 0

total selections: 2043989
total_filled: 145428
total_useful: 41702
total_late: 23269
total_polluted: 8
total_misses_after_warmup: 747863
conflicts: 3255992
Degree Incremented Times: 0
Degree Decremented Times: 185723

L1 IP Table Write Accesses: 5298742
L1 IP Table Read Accesses: 2042750
L1 RST Write Accesses: 857689
L1 RST Read Accesses: 1715378
L1 CSPT Write Accesses: 857689
L1 CSPT Read Accesses: 1603691
L1 RR Filter Tag Write Accesses: 533599
L1 RR Filter Tag Read Accesses: 38030753
L1 IP Table Tag Write Accesses: 8852371
L1 IP Table Tag Read Accesses: 8852371
L1 RST Tag Write Accesses: 0
L1 RST Tag Read Accesses: 7550709
L1 RR Filter Write Accesses: 0
L1 RR Filter Read Accesses: 1401919
test: 148667
L2 IP Table Read Accesses: 1106205
L2 IP Table Write Accesses: 1539504
L2 IP Table Tag Read Accesses: 857198
L2 IP Table Tag Write Accesses: 857198

DRAM Statistics
 CHANNEL 0
 RQ ROW_BUFFER_HIT:      16668  ROW_BUFFER_MISS:      14307
 DBUS_CONGESTED:      27481
 WQ ROW_BUFFER_HIT:        588  ROW_BUFFER_MISS:       5938  FULL:          0

 AVG_CONGESTED_CYCLE: 51
 All warmup complete: 2
Channel 0 Bank busy for read cycles: 0
Channel 0 Bank busy for write cycles: 0
Channel 0
Rank 0
0banks busy for read cycles: 123152691
0banks busy for write cycles: 1869
1banks busy for read cycles: 731884
1banks busy for write cycles: 233435
2banks busy for read cycles: 449612
2banks busy for write cycles: 99002
3banks busy for read cycles: 160031
3banks busy for write cycles: 50942
4banks busy for read cycles: 104971
4banks busy for write cycles: 40769
5banks busy for read cycles: 68467
5banks busy for write cycles: 35909
6banks busy for read cycles: 57211
6banks busy for write cycles: 29545
7banks busy for read cycles: 81104
7banks busy for write cycles: 25959
8banks busy for read cycles: 600559
8banks busy for write cycles: 98393

CPU 0 Branch Prediction Accuracy: 91.5131% MPKI: 15.508 Average ROB Occupancy at Mispredict: 17.2475
Branch types
NOT_BRANCH: 40863273 81.7265%
BRANCH_DIRECT_JUMP: 527013 1.05403%
BRANCH_INDIRECT: 206168 0.412336%
BRANCH_CONDITIONAL: 6186185 12.3724%
BRANCH_DIRECT_CALL: 934907 1.86981%
BRANCH_INDIRECT_CALL: 173595 0.34719%
BRANCH_RETURN: 1108505 2.21701%
BRANCH_OTHER: 0 0%

@sumon_overall_L1D     41702     21997    103745    145428   1066821   1066911
@Sumon_Early_by_class_L1D     14871     22555      3288         7
@Sumon_Late_by_class_L1D     15436      4175      1221         7

@Sumon_Early_by_cycle_L1D     28035      2494      1992       860       327      1337       926      1510      1137      2273       713        98
@Sumon_Late_by_cycle_L1D     20951       639       285        73        39        10         0         0         0         0         0         0
@Sumon_Early_stream_L1D      5890      1580      1218       683       179       951       575       965       776      1388       571        95
@Sumon_Early_CS_L1D     20814       649       617       104        22        30         8       279         1        27         4         0
@Sumon_Early_CPLX_L1D      1194       201       118        59       124       344       235       236       205       433       136         3
@Sumon_Late_stream_L1D     14982       345       109         0         0         0         0         0         0         0         0         0
@Sumon_Late_CS_L1D      3597       283       173        73        39        10         0         0         0         0         0         0
@Sumon_Late_CPLX_L1D      1210         8         3         0         0         0         0         0         0         0         0         0
@sumon_overall_L2C     25532      3678    111837    137274    601492    601492
@Sumon_Early_by_class_L2C      1938       132       483         0
@Sumon_Late_by_class_L2C         0         0         0         0

@Sumon_Early_by_cycle_L2C      4589      2764      1961      1491       706      2310      2603      1398       922       399      1242      5147
@Sumon_Late_by_cycle_L2C      3364       314         0         0         0         0         0         0         0         0         0         0
@Sumon_Early_stream_L2C         0         0         0         0         0         0         0         0         0        10       157      1771
@Sumon_Early_CS_L2C         0         0         0         0         0         0         0         0         0         0         0       132
@Sumon_Early_CPLX_L2C         0         0         0         0         0         0         0         0         0         1        28       454
@Sumon_Late_stream_L2C         0         0         0         0         0         0         0         0         0         0         0         0
@Sumon_Late_CS_L2C         0         0         0         0         0         0         0         0         0         0         0         0
@Sumon_Late_CPLX_L2C         0         0         0         0         0         0         0         0         0         0         0         0
DRAM PAGES: 1048576
Allocated PAGES: 2251
