
*** ChampSim Multicore Out-of-Order Simulator ***

Warmup Instructions: 10000000
Simulation Instructions: 50000000
Number of CPUs: 1
LLC sets: 2048
LLC ways: 16
Off-chip DRAM Size: 4096 MB Channels: 1 Width: 64-bit Data Rate: 533 MT/s
CPU 0 runs traces/clientserver/server_030.champsimtrace.xz
.xz
CPU 0 Bimodal branch predictor
BTB has LRU replacement policy
ITLB has LRU replacement policy
DTLB has LRU replacement policy
STLB has LRU replacement policy
L1I has LRU replacement policy
IP Table Entries: 256
L1D has LRU replacement policy
IP_Table L2 entries: 256
L2C has LRU replacement policy
LLC has LRU replacement policy
Heartbeat CPU 0 instructions: 10000003 cycles: 2895188 heartbeat IPC: 3.45401 cumulative IPC: 3.45401 (Simulation time: 0 hr 8 min 41 sec) 

Warmup complete CPU 0 instructions: 10000003 cycles: 2895188 (Simulation time: 0 hr 8 min 41 sec) 

Heartbeat CPU 0 instructions: 20000002 cycles: 28519484 heartbeat IPC: 0.390255 cumulative IPC: 0.390255 (Simulation time: 0 hr 17 min 20 sec) 
Heartbeat CPU 0 instructions: 30000001 cycles: 54173559 heartbeat IPC: 0.389802 cumulative IPC: 0.390028 (Simulation time: 0 hr 25 min 58 sec) 
Heartbeat CPU 0 instructions: 40000000 cycles: 79723846 heartbeat IPC: 0.391385 cumulative IPC: 0.390479 (Simulation time: 0 hr 34 min 40 sec) 
Heartbeat CPU 0 instructions: 50000001 cycles: 105408835 heartbeat IPC: 0.389333 cumulative IPC: 0.390192 (Simulation time: 0 hr 43 min 19 sec) 
Heartbeat CPU 0 instructions: 60000000 cycles: 131003597 heartbeat IPC: 0.390705 cumulative IPC: 0.390294 (Simulation time: 0 hr 51 min 5 sec) 
Finished CPU 0 instructions: 50000001 cycles: 128108411 cumulative IPC: 0.390294 (Simulation time: 0 hr 51 min 5 sec) 

ChampSim completed all CPUs

Region of Interest Statistics

CPU 0 cumulative IPC: 0.390294 instructions: 50000001 cycles: 128108411
ITLB TOTAL     ACCESS:    8711509  HIT:    8168994  MISS:     542515  HIT %:    93.7724  MISS %:    6.22757   MPKI: 10.8503
ITLB LOAD TRANSLATION ACCESS:    8711509  HIT:    8168994  MISS:     542515  HIT %:    93.7724  MISS %:    6.22757   MPKI: 10.8503
ITLB PREFETCH  REQUESTED:          0  ISSUED:          0  USEFUL:          0  USELESS:          0
ITLB USEFUL LOAD PREFETCHES:          0 PREFETCH ISSUED TO LOWER LEVEL:          0  ACCURACY: -nan
ITLB TIMELY PREFETCHES:          0 LATE PREFETCHES: 0 DROPPED PREFETCHES: 0
ITLB PREFETCHES SAME FILL-ORIGIN LEVEL: 0 DIFFERENT FILL-ORIGIN LEVEL: 0
ITLB AVERAGE MISS LATENCY: 9.1806 cycles
ITLB RQ	ACCESS:   10396656	FORWARD:          0	MERGED:    1546964	TO_CACHE:    8849692

DTLB TOTAL     ACCESS:   12388762  HIT:   11860120  MISS:     528642  HIT %:    95.7329  MISS %:    4.26711   MPKI: 10.5728
DTLB LOAD TRANSLATION ACCESS:   12388762  HIT:   11860120  MISS:     528642  HIT %:    95.7329  MISS %:    4.26711   MPKI: 10.5728
DTLB PREFETCH  REQUESTED:          0  ISSUED:          0  USEFUL:          0  USELESS:          0
DTLB USEFUL LOAD PREFETCHES:          0 PREFETCH ISSUED TO LOWER LEVEL:          0  ACCURACY: -nan
DTLB TIMELY PREFETCHES:          0 LATE PREFETCHES: 0 DROPPED PREFETCHES: 0
DTLB PREFETCHES SAME FILL-ORIGIN LEVEL: 0 DIFFERENT FILL-ORIGIN LEVEL: 0
DTLB AVERAGE MISS LATENCY: 9.3802 cycles
DTLB RQ	ACCESS:   15512198	FORWARD:          0	MERGED:    3104701	TO_CACHE:   12407497

STLB TOTAL     ACCESS:    1585851  HIT:    1578533  MISS:       7318  HIT %:    99.5385  MISS %:   0.461456   MPKI: 0.14636
STLB LOAD TRANSLATION ACCESS:    1071157  HIT:    1063839  MISS:       7318  HIT %:    99.3168  MISS %:   0.683186   MPKI: 0.14636
STLB TRANSLATION FROM L1D PREFETCHER ACCESS:     514694  HIT:     514694  MISS:          0  HIT %:        100  MISS %:          0   MPKI: 0
STLB PREFETCH  REQUESTED:          0  ISSUED:          0  USEFUL:          0  USELESS:          0
STLB USEFUL LOAD PREFETCHES:          0 PREFETCH ISSUED TO LOWER LEVEL:          0  ACCURACY: -nan
STLB TIMELY PREFETCHES:          0 LATE PREFETCHES: 0 DROPPED PREFETCHES: 0
STLB PREFETCHES SAME FILL-ORIGIN LEVEL: 0 DIFFERENT FILL-ORIGIN LEVEL: 0
STLB AVERAGE MISS LATENCY: 39.0324 cycles
STLB RQ	ACCESS:    1963895	FORWARD:          0	MERGED:     378044	TO_CACHE:    1585851

STLB Hit, L1D data hit: 0
STLB Hit, L2C data hit: 0
STLB Hit, LLC data hit: 0
STLB Hit, LLC data miss: 0
STLB STLB hints to L2: 0
L1D TOTAL     ACCESS:   15844360  HIT:   14122420  MISS:    1721940  HIT %:    89.1322  MISS %:    10.8678   MPKI: 34.4388
L1D LOAD      ACCESS:    8690190  HIT:    7772288  MISS:     917902  HIT %:    89.4375  MISS %:    10.5625   MPKI: 18.358
L1D RFO       ACCESS:    6341471  HIT:    6037443  MISS:     304028  HIT %:    95.2057  MISS %:    4.79428   MPKI: 6.08056
L1D PREFETCH  ACCESS:     812699  HIT:     312689  MISS:     500010  HIT %:    38.4754  MISS %:    61.5246   MPKI: 10.0002
L1D PREFETCH  REQUESTED:    1785682  ISSUED:    1785682  USEFUL:     277788  USELESS:     222247
L1D USEFUL LOAD PREFETCHES:     277788 PREFETCH ISSUED TO LOWER LEVEL:     557668  ACCURACY: 49.8124
L1D TIMELY PREFETCHES:     277788 LATE PREFETCHES: 57458 DROPPED PREFETCHES: 0
L1D PREFETCHES SAME FILL-ORIGIN LEVEL: 557668 DIFFERENT FILL-ORIGIN LEVEL: 0
L1D AVERAGE MISS LATENCY: 2.2332e+06 cycles
L1D RQ	ACCESS:   11837965	FORWARD:          0	MERGED:    2982183	TO_CACHE:    8727296
L1D WQ	ACCESS:    6828105	FORWARD:     128692	MERGED:      43203	TO_CACHE:    6784902
L1D PQ	ACCESS:     892944	FORWARD:          0	MERGED:          0	TO_CACHE:     892738

L1D UNIQUE REGIONS ACCESSED: 0
L1D REGIONS CONFLICTS: 0
L1D Cross Page Prefetch Requests: 0
L1D Same Page Prefetch Requests: 1055274
L1D ROI Sum of L1D PQ occupancy: 11479900
L1D PREFETCHES PUSHED FROM L2C: 0
L1I TOTAL     ACCESS:    9872908  HIT:    6916883  MISS:    2956025  HIT %:    70.0592  MISS %:    29.9408   MPKI: 59.1205
L1I LOAD      ACCESS:    9872908  HIT:    6916883  MISS:    2956025  HIT %:    70.0592  MISS %:    29.9408   MPKI: 59.1205
L1I PREFETCH  REQUESTED:          0  ISSUED:          0  USEFUL:          0  USELESS:          0
L1I USEFUL LOAD PREFETCHES:          0 PREFETCH ISSUED TO LOWER LEVEL:          0  ACCURACY: -nan
L1I TIMELY PREFETCHES:          0 LATE PREFETCHES: 0 DROPPED PREFETCHES: 0
L1I PREFETCHES SAME FILL-ORIGIN LEVEL: 0 DIFFERENT FILL-ORIGIN LEVEL: 0
L1I AVERAGE MISS LATENCY: 19.1326 cycles
L1I RQ	ACCESS:   13942999	FORWARD:          0	MERGED:    3546343	TO_CACHE:   10396656

BTB TOTAL     ACCESS:    6029459  HIT:    4118851  MISS:    1910608  HIT %:    68.3121  MISS %:    31.6879   MPKI: 38.2122
BTB BRANCH_DIRECT_JUMP	ACCESS:     489855  HIT:     330874  MISS:     158981
BTB BRANCH_INDIRECT	ACCESS:     174632  HIT:     139695  MISS:      34937
BTB BRANCH_CONDITIONAL	ACCESS:    2970796  HIT:    2448633  MISS:     522163
BTB BRANCH_DIRECT_CALL	ACCESS:    1006426  HIT:     627337  MISS:     379089
BTB BRANCH_INDIRECT_CALL	ACCESS:     190665  HIT:     118830  MISS:      71835
BTB BRANCH_RETURN	ACCESS:    1197085  HIT:     453482  MISS:     743603
BTB BRANCH_OTHER ACCESS:          0  HIT:          0  MISS:          0

L2C TOTAL     ACCESS:    6277438  HIT:    5344151  MISS:     933287  HIT %:    85.1327  MISS %:    14.8673   MPKI: 18.6657
L2C LOAD      ACCESS:    3816460  HIT:    3197936  MISS:     618524  HIT %:    83.7933  MISS %:    16.2067   MPKI: 12.3705
L2C DATA LOAD MPKI: 2.46814
L2C INSTRUCTION LOAD MPKI: 9.90234
L2C RFO       ACCESS:     303828  HIT:     236651  MISS:      67177  HIT %:    77.8898  MISS %:    22.1102   MPKI: 1.34354
L2C PREFETCH  ACCESS:    1539897  HIT:    1301245  MISS:     238652  HIT %:    84.5021  MISS %:    15.4979   MPKI: 4.77304
L2C DATA PREFETCH MPKI: 4.77304
L2C INSTRUCTION PREFETCH MPKI: 0
L2C WRITEBACK ACCESS:     609662  HIT:     603200  MISS:       6462  HIT %:    98.9401  MISS %:    1.05993   MPKI: 0.12924
L2C LOAD TRANSLATION ACCESS:       7591  HIT:       5119  MISS:       2472  HIT %:    67.4351  MISS %:    32.5649   MPKI: 0.04944
L2C PREFETCH  REQUESTED:    1049690  ISSUED:    1049690  USEFUL:      28399  USELESS:     209879
L2C USEFUL LOAD PREFETCHES:      28399 PREFETCH ISSUED TO LOWER LEVEL:     242222  ACCURACY: 11.7244
L2C TIMELY PREFETCHES:      28399 LATE PREFETCHES: 3570 DROPPED PREFETCHES: 0
L2C PREFETCHES SAME FILL-ORIGIN LEVEL: 127548 DIFFERENT FILL-ORIGIN LEVEL: 0
L2C AVERAGE MISS LATENCY: 35.6716 cycles
L2C RQ	ACCESS:    4127887	FORWARD:          0	MERGED:          0	TO_CACHE:    4127879
L2C WQ	ACCESS:     609665	FORWARD:         15	MERGED:          0	TO_CACHE:     609665
L2C PQ	ACCESS:    1607358	FORWARD:          0	MERGED:      49288	TO_CACHE:    1558063

L2C Instructions Evicting Data 210180
L2C Translations Evicting Data 1622
L2C Data Evicting Data 221924
L2C Instructions Evicting Instructions 284004
L2C Translations Evicting Instructions 814
L2C Data Evicting Instructions 205815
L2C Instructions Evicting Translations 933
L2C Translations Evicting Translations 36
L2C Data Evicting Translations 1497
L2C Dense regions hint from L2: 0
PSCL5 TOTAL     ACCESS:       7318  HIT:       7318  MISS:          0  HIT %:        100  MISS %:          0   MPKI: 0
PSCL5 LOAD TRANSLATION ACCESS:       7318  HIT:       7318  MISS:          0  HIT %:        100  MISS %:          0   MPKI: 0
PSCL5 PREFETCH  REQUESTED:          0  ISSUED:          0  USEFUL:          0  USELESS:          0
PSCL5 USEFUL LOAD PREFETCHES:          0 PREFETCH ISSUED TO LOWER LEVEL:          0  ACCURACY: -nan
PSCL5 TIMELY PREFETCHES:          0 LATE PREFETCHES: 0 DROPPED PREFETCHES: 0
PSCL5 PREFETCHES SAME FILL-ORIGIN LEVEL: 0 DIFFERENT FILL-ORIGIN LEVEL: 0

PSCL4 TOTAL     ACCESS:       5791  HIT:       5775  MISS:         16  HIT %:    99.7237  MISS %:   0.276291   MPKI: 0.00032
PSCL4 LOAD TRANSLATION ACCESS:       5791  HIT:       5775  MISS:         16  HIT %:    99.7237  MISS %:   0.276291   MPKI: 0.00032
PSCL4 PREFETCH  REQUESTED:          0  ISSUED:          0  USEFUL:          0  USELESS:          0
PSCL4 USEFUL LOAD PREFETCHES:          0 PREFETCH ISSUED TO LOWER LEVEL:          0  ACCURACY: -nan
PSCL4 TIMELY PREFETCHES:          0 LATE PREFETCHES: 0 DROPPED PREFETCHES: 0
PSCL4 PREFETCHES SAME FILL-ORIGIN LEVEL: 0 DIFFERENT FILL-ORIGIN LEVEL: 0

PSCL3 TOTAL     ACCESS:       7242  HIT:       7224  MISS:         18  HIT %:    99.7514  MISS %:    0.24855   MPKI: 0.00036
PSCL3 LOAD TRANSLATION ACCESS:       7242  HIT:       7224  MISS:         18  HIT %:    99.7514  MISS %:    0.24855   MPKI: 0.00036
PSCL3 PREFETCH  REQUESTED:          0  ISSUED:          0  USEFUL:          0  USELESS:          0
PSCL3 USEFUL LOAD PREFETCHES:          0 PREFETCH ISSUED TO LOWER LEVEL:          0  ACCURACY: -nan
PSCL3 TIMELY PREFETCHES:          0 LATE PREFETCHES: 0 DROPPED PREFETCHES: 0
PSCL3 PREFETCHES SAME FILL-ORIGIN LEVEL: 0 DIFFERENT FILL-ORIGIN LEVEL: 0

PSCL2 TOTAL     ACCESS:       7318  HIT:       7072  MISS:        246  HIT %:    96.6384  MISS %:    3.36157   MPKI: 0.00492
PSCL2 LOAD TRANSLATION ACCESS:       7318  HIT:       7072  MISS:        246  HIT %:    96.6384  MISS %:    3.36157   MPKI: 0.00492
PSCL2 PREFETCH  REQUESTED:          0  ISSUED:          0  USEFUL:          0  USELESS:          0
PSCL2 USEFUL LOAD PREFETCHES:          0 PREFETCH ISSUED TO LOWER LEVEL:          0  ACCURACY: -nan
PSCL2 TIMELY PREFETCHES:          0 LATE PREFETCHES: 0 DROPPED PREFETCHES: 0
PSCL2 PREFETCHES SAME FILL-ORIGIN LEVEL: 0 DIFFERENT FILL-ORIGIN LEVEL: 0

LLC TOTAL     ACCESS:    1057589  HIT:    1035827  MISS:      21762  HIT %:    97.9423  MISS %:     2.0577   MPKI: 0.43524
LLC LOAD      ACCESS:     615335  HIT:     611584  MISS:       3751  HIT %:    99.3904  MISS %:   0.609587   MPKI: 0.07502
LLC RFO       ACCESS:      66796  HIT:      64353  MISS:       2443  HIT %:    96.3426  MISS %:     3.6574   MPKI: 0.04886
LLC PREFETCH  ACCESS:     242220  HIT:     226769  MISS:      15451  HIT %:    93.6211  MISS %:    6.37891   MPKI: 0.30902
LLC WRITEBACK ACCESS:     130766  HIT:     130737  MISS:         29  HIT %:    99.9778  MISS %:   0.022177   MPKI: 0.00058
LLC LOAD TRANSLATION ACCESS:       2472  HIT:       2384  MISS:         88  HIT %:    96.4401  MISS %:    3.55987   MPKI: 0.00176
LLC PREFETCH  REQUESTED:          0  ISSUED:          0  USEFUL:       1265  USELESS:       5918
LLC USEFUL LOAD PREFETCHES:       1265 PREFETCH ISSUED TO LOWER LEVEL:      15451  ACCURACY: 8.18717
LLC TIMELY PREFETCHES:       1265 LATE PREFETCHES: 0 DROPPED PREFETCHES: 0
LLC PREFETCHES SAME FILL-ORIGIN LEVEL: 0 DIFFERENT FILL-ORIGIN LEVEL: 0
LLC AVERAGE MISS LATENCY: 256.112 cycles
LLC RQ	ACCESS:     684603	FORWARD:          0	MERGED:          0	TO_CACHE:     684603
LLC WQ	ACCESS:     130766	FORWARD:          2	MERGED:          0	TO_CACHE:     130766
LLC PQ	ACCESS:     242222	FORWARD:          0	MERGED:          0	TO_CACHE:     242220

LLC Dense regions hint to LLC: 0

RAW hits: 546257
Loads Generated: 12384220
Loads sent to L1D: 11837965
Stores Generated: 6828094
Stores sent to L1D: 6828105
Major fault: 0 Minor fault: 2024
Allocated PAGES: 2024

stream: 
stream:times selected: 1037919
stream:pref_filled: 101801
stream:pref_useful: 21805
stream:pref_late: 26458
stream:misses: 13112
stream:misses_by_poll: 0

CS: 
CS:times selected: 172998
CS:pref_filled: 126819
CS:pref_useful: 110058
CS:pref_late: 5154
CS:misses: 10918
CS:misses_by_poll: 2

CPLX: 
CPLX:times selected: 862986
CPLX:pref_filled: 361485
CPLX:pref_useful: 198627
CPLX:pref_late: 12848
CPLX:misses: 111742
CPLX:misses_by_poll: 137

NL_L1: 
NL:times selected: 1918
NL:pref_filled: 303
NL:pref_useful: 37
NL:pref_late: 5
NL:misses: 66
NL:misses_by_poll: 0

total selections: 2075821
total_filled: 500010
total_useful: 277788
total_late: 61915
total_polluted: 139
total_misses_after_warmup: 955008
conflicts: 3338992
Degree Incremented Times: 20068
Degree Decremented Times: 166674

L1 IP Table Write Accesses: 5108539
L1 IP Table Read Accesses: 1769547
L1 RST Write Accesses: 866239
L1 RST Read Accesses: 1732478
L1 CSPT Write Accesses: 866239
L1 CSPT Read Accesses: 2850391
L1 RR Filter Tag Write Accesses: 892944
L1 RR Filter Tag Read Accesses: 69777953
L1 IP Table Tag Write Accesses: 8727296
L1 IP Table Tag Read Accesses: 8727296
L1 RST Tag Write Accesses: 0
L1 RST Tag Read Accesses: 7708056
L1 RR Filter Write Accesses: 0
L1 RR Filter Read Accesses: 2475690
test: 145406
L2 IP Table Read Accesses: 2007838
L2 IP Table Write Accesses: 2562164
L2 IP Table Tag Read Accesses: 1390606
L2 IP Table Tag Write Accesses: 1390606

DRAM Statistics
 CHANNEL 0
 RQ ROW_BUFFER_HIT:      10077  ROW_BUFFER_MISS:      11656
 DBUS_CONGESTED:      14216
 WQ ROW_BUFFER_HIT:         63  ROW_BUFFER_MISS:        442  FULL:          0

 AVG_CONGESTED_CYCLE: 50
 All warmup complete: 2
Channel 0 Bank busy for read cycles: 0
Channel 0 Bank busy for write cycles: 0
Channel 0
Rank 0
0banks busy for read cycles: 126310339
0banks busy for write cycles: 306
1banks busy for read cycles: 724731
1banks busy for write cycles: 44880
2banks busy for read cycles: 427189
2banks busy for write cycles: 10297
3banks busy for read cycles: 181005
3banks busy for write cycles: 5134
4banks busy for read cycles: 130346
4banks busy for write cycles: 2874
5banks busy for read cycles: 84231
5banks busy for write cycles: 1296
6banks busy for read cycles: 55437
6banks busy for write cycles: 1989
7banks busy for read cycles: 27724
7banks busy for write cycles: 294
8banks busy for read cycles: 97529
8banks busy for write cycles: 2811

CPU 0 Branch Prediction Accuracy: 92.4998% MPKI: 14.0697 Average ROB Occupancy at Mispredict: 16.508
Branch types
NOT_BRANCH: 40620266 81.2405%
BRANCH_DIRECT_JUMP: 489855 0.97971%
BRANCH_INDIRECT: 174632 0.349264%
BRANCH_CONDITIONAL: 6320949 12.6419%
BRANCH_DIRECT_CALL: 1006426 2.01285%
BRANCH_INDIRECT_CALL: 190665 0.38133%
BRANCH_RETURN: 1197085 2.39417%
BRANCH_OTHER: 0 0%

@sumon_overall_L1D    277788     57458    222247    500010   1785682   1785682
@Sumon_Early_by_class_L1D     17348    101569    157565         1
@Sumon_Late_by_class_L1D     25494      4857      9903         1

@Sumon_Early_by_cycle_L1D    248008      7856      4020      2587       178      3289      1514      2774      3148      3953       321       140
@Sumon_Late_by_cycle_L1D     56512       650       296         0         0         0         0         0         0         0         0         0
@Sumon_Early_stream_L1D      6960      2254       959       903        94      1426       767      1023      1295      1566        99         2
@Sumon_Early_CS_L1D     99050      1354       568       559         0         1         0        33         0         1         3         0
@Sumon_Early_CPLX_L1D    141257      4149      2338      1119        82      1861       747      1686      1784      2197       207       138
@Sumon_Late_stream_L1D     25035       236       223         0         0         0         0         0         0         0         0         0
@Sumon_Late_CS_L1D      4421       375        61         0         0         0         0         0         0         0         0         0
@Sumon_Late_CPLX_L1D      9854        38        11         0         0         0         0         0         0         0         0         0
@sumon_overall_L2C     28399      3570    209879    238652   1049690   1049690
@Sumon_Early_by_class_L2C      1439       159      2261         0
@Sumon_Late_by_class_L2C         0       117         0         0

@Sumon_Early_by_cycle_L2C      2407      4142      4458      1402       749      4287      1315      1465      1161      1171      1611      4231
@Sumon_Late_by_cycle_L2C      3025       525        18         2         0         0         0         0         0         0         0         0
@Sumon_Early_stream_L2C         0         0         0         0         0         0         0         0         0        24       639       776
@Sumon_Early_CS_L2C        21         6         7         1         0         0         0         0         0         0         1       123
@Sumon_Early_CPLX_L2C         0         0         0         0         0         0         0         0         0        98       539      1624
@Sumon_Late_stream_L2C         0         0         0         0         0         0         0         0         0         0         0         0
@Sumon_Late_CS_L2C        78        23        16         0         0         0         0         0         0         0         0         0
@Sumon_Late_CPLX_L2C         0         0         0         0         0         0         0         0         0         0         0         0
DRAM PAGES: 1048576
Allocated PAGES: 2024
