
*** ChampSim Multicore Out-of-Order Simulator ***

Warmup Instructions: 10000000
Simulation Instructions: 50000000
Number of CPUs: 1
LLC sets: 2048
LLC ways: 16
Off-chip DRAM Size: 4096 MB Channels: 1 Width: 64-bit Data Rate: 533 MT/s
CPU 0 runs traces/clientserver/server_010.champsimtrace.xz
.xz
CPU 0 Bimodal branch predictor
BTB has LRU replacement policy
ITLB has LRU replacement policy
DTLB has LRU replacement policy
STLB has LRU replacement policy
L1I has LRU replacement policy
IP Table Entries: 256
L1D has LRU replacement policy
IP_Table L2 entries: 256
L2C has LRU replacement policy
LLC has LRU replacement policy
Heartbeat CPU 0 instructions: 10000001 cycles: 2774393 heartbeat IPC: 3.60439 cumulative IPC: 3.60439 (Simulation time: 0 hr 7 min 47 sec) 

Warmup complete CPU 0 instructions: 10000001 cycles: 2774393 (Simulation time: 0 hr 7 min 47 sec) 

Heartbeat CPU 0 instructions: 20000002 cycles: 23971296 heartbeat IPC: 0.471767 cumulative IPC: 0.471767 (Simulation time: 0 hr 16 min 3 sec) 
Heartbeat CPU 0 instructions: 30000001 cycles: 44893035 heartbeat IPC: 0.477972 cumulative IPC: 0.474849 (Simulation time: 0 hr 24 min 14 sec) 
Heartbeat CPU 0 instructions: 40000000 cycles: 65607638 heartbeat IPC: 0.482751 cumulative IPC: 0.477454 (Simulation time: 0 hr 32 min 35 sec) 
Heartbeat CPU 0 instructions: 50000000 cycles: 86639872 heartbeat IPC: 0.475461 cumulative IPC: 0.476954 (Simulation time: 0 hr 40 min 49 sec) 
Heartbeat CPU 0 instructions: 60000001 cycles: 107218076 heartbeat IPC: 0.485951 cumulative IPC: 0.478727 (Simulation time: 0 hr 48 min 56 sec) 
Finished CPU 0 instructions: 50000000 cycles: 104443683 cumulative IPC: 0.478727 (Simulation time: 0 hr 48 min 56 sec) 

ChampSim completed all CPUs

Region of Interest Statistics

CPU 0 cumulative IPC: 0.478727 instructions: 50000000 cycles: 104443683
ITLB TOTAL     ACCESS:    7875880  HIT:    7677931  MISS:     197949  HIT %:    97.4866  MISS %:    2.51336   MPKI: 3.95898
ITLB LOAD TRANSLATION ACCESS:    7875880  HIT:    7677931  MISS:     197949  HIT %:    97.4866  MISS %:    2.51336   MPKI: 3.95898
ITLB PREFETCH  REQUESTED:          0  ISSUED:          0  USEFUL:          0  USELESS:          0
ITLB USEFUL LOAD PREFETCHES:          0 PREFETCH ISSUED TO LOWER LEVEL:          0  ACCURACY: -nan
ITLB TIMELY PREFETCHES:          0 LATE PREFETCHES: 0 DROPPED PREFETCHES: 0
ITLB PREFETCHES SAME FILL-ORIGIN LEVEL: 0 DIFFERENT FILL-ORIGIN LEVEL: 0
ITLB AVERAGE MISS LATENCY: 17.6178 cycles
ITLB RQ	ACCESS:    9689201	FORWARD:          0	MERGED:    1762064	TO_CACHE:    7927137

DTLB TOTAL     ACCESS:   10023831  HIT:    9379643  MISS:     644188  HIT %:    93.5734  MISS %:    6.42656   MPKI: 12.8838
DTLB LOAD TRANSLATION ACCESS:   10023831  HIT:    9379643  MISS:     644188  HIT %:    93.5734  MISS %:    6.42656   MPKI: 12.8838
DTLB PREFETCH  REQUESTED:          0  ISSUED:          0  USEFUL:          0  USELESS:          0
DTLB USEFUL LOAD PREFETCHES:          0 PREFETCH ISSUED TO LOWER LEVEL:          0  ACCURACY: -nan
DTLB TIMELY PREFETCHES:          0 LATE PREFETCHES: 0 DROPPED PREFETCHES: 0
DTLB PREFETCHES SAME FILL-ORIGIN LEVEL: 0 DIFFERENT FILL-ORIGIN LEVEL: 0
DTLB AVERAGE MISS LATENCY: 15.1961 cycles
DTLB RQ	ACCESS:   12381524	FORWARD:          0	MERGED:    2320851	TO_CACHE:   10060673

STLB TOTAL     ACCESS:    1030835  HIT:     910281  MISS:     120554  HIT %:    88.3052  MISS %:    11.6948   MPKI: 2.41108
STLB LOAD TRANSLATION ACCESS:     842137  HIT:     721583  MISS:     120554  HIT %:    85.6848  MISS %:    14.3152   MPKI: 2.41108
STLB TRANSLATION FROM L1D PREFETCHER ACCESS:     188698  HIT:     188698  MISS:          0  HIT %:        100  MISS %:          0   MPKI: 0
STLB PREFETCH  REQUESTED:          0  ISSUED:          0  USEFUL:          0  USELESS:          0
STLB USEFUL LOAD PREFETCHES:          0 PREFETCH ISSUED TO LOWER LEVEL:          0  ACCURACY: -nan
STLB TIMELY PREFETCHES:          0 LATE PREFETCHES: 0 DROPPED PREFETCHES: 0
STLB PREFETCHES SAME FILL-ORIGIN LEVEL: 0 DIFFERENT FILL-ORIGIN LEVEL: 0
STLB AVERAGE MISS LATENCY: 47.146 cycles
STLB RQ	ACCESS:    1080281	FORWARD:          0	MERGED:      49446	TO_CACHE:    1030835

STLB Hit, L1D data hit: 0
STLB Hit, L2C data hit: 0
STLB Hit, LLC data hit: 0
STLB Hit, LLC data miss: 0
STLB STLB hints to L2: 0
L1D TOTAL     ACCESS:   12466482  HIT:   11735070  MISS:     731412  HIT %:     94.133  MISS %:    5.86703   MPKI: 14.6282
L1D LOAD      ACCESS:    7232128  HIT:    6691272  MISS:     540856  HIT %:    92.5215  MISS %:    7.47852   MPKI: 10.8171
L1D RFO       ACCESS:    5011919  HIT:    4919351  MISS:      92568  HIT %:     98.153  MISS %:    1.84696   MPKI: 1.85136
L1D PREFETCH  ACCESS:     222435  HIT:     124447  MISS:      97988  HIT %:    55.9476  MISS %:    44.0524   MPKI: 1.95976
L1D PREFETCH  REQUESTED:     476470  ISSUED:     476423  USEFUL:      29094  USELESS:      68857
L1D USEFUL LOAD PREFETCHES:      29094 PREFETCH ISSUED TO LOWER LEVEL:     104471  ACCURACY: 27.8489
L1D TIMELY PREFETCHES:      29094 LATE PREFETCHES: 6347 DROPPED PREFETCHES: 0
L1D PREFETCHES SAME FILL-ORIGIN LEVEL: 104471 DIFFERENT FILL-ORIGIN LEVEL: 0
L1D AVERAGE MISS LATENCY: 492738 cycles
L1D RQ	ACCESS:   10646560	FORWARD:          0	MERGED:    3308236	TO_CACHE:    7259605
L1D WQ	ACCESS:    5204839	FORWARD:      78854	MERGED:      82920	TO_CACHE:    5121919
L1D PQ	ACCESS:     238279	FORWARD:          0	MERGED:          0	TO_CACHE:     238144

L1D UNIQUE REGIONS ACCESSED: 0
L1D REGIONS CONFLICTS: 0
L1D Cross Page Prefetch Requests: 0
L1D Same Page Prefetch Requests: 284455
L1D ROI Sum of L1D PQ occupancy: 3094215
L1D PREFETCHES PUSHED FROM L2C: 0
L1I TOTAL     ACCESS:    9264105  HIT:    7960809  MISS:    1303296  HIT %:    85.9318  MISS %:    14.0682   MPKI: 26.0659
L1I LOAD      ACCESS:    9264105  HIT:    7960809  MISS:    1303296  HIT %:    85.9318  MISS %:    14.0682   MPKI: 26.0659
L1I PREFETCH  REQUESTED:          0  ISSUED:          0  USEFUL:          0  USELESS:          0
L1I USEFUL LOAD PREFETCHES:          0 PREFETCH ISSUED TO LOWER LEVEL:          0  ACCURACY: -nan
L1I TIMELY PREFETCHES:          0 LATE PREFETCHES: 0 DROPPED PREFETCHES: 0
L1I PREFETCHES SAME FILL-ORIGIN LEVEL: 0 DIFFERENT FILL-ORIGIN LEVEL: 0
L1I AVERAGE MISS LATENCY: 31.1043 cycles
L1I RQ	ACCESS:   13842020	FORWARD:          0	MERGED:    4152819	TO_CACHE:    9689201

BTB TOTAL     ACCESS:    4464599  HIT:    3665549  MISS:     799050  HIT %:    82.1025  MISS %:    17.8975   MPKI: 15.981
BTB BRANCH_DIRECT_JUMP	ACCESS:     455305  HIT:     390833  MISS:      64472
BTB BRANCH_INDIRECT	ACCESS:     153269  HIT:     119707  MISS:      33562
BTB BRANCH_CONDITIONAL	ACCESS:    2152760  HIT:    1888424  MISS:     264336
BTB BRANCH_DIRECT_CALL	ACCESS:     666812  HIT:     545280  MISS:     121532
BTB BRANCH_INDIRECT_CALL	ACCESS:     167985  HIT:     155714  MISS:      12271
BTB BRANCH_RETURN	ACCESS:     868468  HIT:     565591  MISS:     302877
BTB BRANCH_OTHER ACCESS:          0  HIT:          0  MISS:          0

L2C TOTAL     ACCESS:    2880146  HIT:    1521718  MISS:    1358428  HIT %:    52.8348  MISS %:    47.1652   MPKI: 27.1686
L2C LOAD      ACCESS:    1837788  HIT:     901378  MISS:     936410  HIT %:    49.0469  MISS %:    50.9531   MPKI: 18.7282
L2C DATA LOAD MPKI: 5.16954
L2C INSTRUCTION LOAD MPKI: 13.5587
L2C RFO       ACCESS:      92432  HIT:      37509  MISS:      54923  HIT %:    40.5801  MISS %:    59.4199   MPKI: 1.09846
L2C PREFETCH  ACCESS:     533303  HIT:     238880  MISS:     294423  HIT %:    44.7925  MISS %:    55.2075   MPKI: 5.88846
L2C DATA PREFETCH MPKI: 5.88846
L2C INSTRUCTION PREFETCH MPKI: 0
L2C WRITEBACK ACCESS:     263777  HIT:     261013  MISS:       2764  HIT %:    98.9521  MISS %:    1.04785   MPKI: 0.05528
L2C LOAD TRANSLATION ACCESS:     152846  HIT:      82938  MISS:      69908  HIT %:    54.2625  MISS %:    45.7375   MPKI: 1.39816
L2C PREFETCH  REQUESTED:     457922  ISSUED:     457922  USEFUL:      74483  USELESS:     220029
L2C USEFUL LOAD PREFETCHES:      74483 PREFETCH ISSUED TO LOWER LEVEL:     301657  ACCURACY: 24.6913
L2C TIMELY PREFETCHES:      74483 LATE PREFETCHES: 7234 DROPPED PREFETCHES: 0
L2C PREFETCHES SAME FILL-ORIGIN LEVEL: 228916 DIFFERENT FILL-ORIGIN LEVEL: 0
L2C AVERAGE MISS LATENCY: 42.4286 cycles
L2C RQ	ACCESS:    2083084	FORWARD:          0	MERGED:          0	TO_CACHE:    2083067
L2C WQ	ACCESS:     263777	FORWARD:         18	MERGED:          0	TO_CACHE:     263777
L2C PQ	ACCESS:     562393	FORWARD:          0	MERGED:       4924	TO_CACHE:     557468

L2C Instructions Evicting Data 304963
L2C Translations Evicting Data 31265
L2C Data Evicting Data 273615
L2C Instructions Evicting Instructions 337686
L2C Translations Evicting Instructions 35219
L2C Data Evicting Instructions 303084
L2C Instructions Evicting Translations 35284
L2C Translations Evicting Translations 3424
L2C Data Evicting Translations 31124
L2C Dense regions hint from L2: 0
PSCL5 TOTAL     ACCESS:     120554  HIT:     120554  MISS:          0  HIT %:        100  MISS %:          0   MPKI: 0
PSCL5 LOAD TRANSLATION ACCESS:     120554  HIT:     120554  MISS:          0  HIT %:        100  MISS %:          0   MPKI: 0
PSCL5 PREFETCH  REQUESTED:          0  ISSUED:          0  USEFUL:          0  USELESS:          0
PSCL5 USEFUL LOAD PREFETCHES:          0 PREFETCH ISSUED TO LOWER LEVEL:          0  ACCURACY: -nan
PSCL5 TIMELY PREFETCHES:          0 LATE PREFETCHES: 0 DROPPED PREFETCHES: 0
PSCL5 PREFETCHES SAME FILL-ORIGIN LEVEL: 0 DIFFERENT FILL-ORIGIN LEVEL: 0

PSCL4 TOTAL     ACCESS:     113032  HIT:     112688  MISS:        344  HIT %:    99.6957  MISS %:   0.304339   MPKI: 0.00688
PSCL4 LOAD TRANSLATION ACCESS:     113032  HIT:     112688  MISS:        344  HIT %:    99.6957  MISS %:   0.304339   MPKI: 0.00688
PSCL4 PREFETCH  REQUESTED:          0  ISSUED:          0  USEFUL:          0  USELESS:          0
PSCL4 USEFUL LOAD PREFETCHES:          0 PREFETCH ISSUED TO LOWER LEVEL:          0  ACCURACY: -nan
PSCL4 TIMELY PREFETCHES:          0 LATE PREFETCHES: 0 DROPPED PREFETCHES: 0
PSCL4 PREFETCHES SAME FILL-ORIGIN LEVEL: 0 DIFFERENT FILL-ORIGIN LEVEL: 0

PSCL3 TOTAL     ACCESS:     119622  HIT:     118623  MISS:        999  HIT %:    99.1649  MISS %:   0.835131   MPKI: 0.01998
PSCL3 LOAD TRANSLATION ACCESS:     119622  HIT:     118623  MISS:        999  HIT %:    99.1649  MISS %:   0.835131   MPKI: 0.01998
PSCL3 PREFETCH  REQUESTED:          0  ISSUED:          0  USEFUL:          0  USELESS:          0
PSCL3 USEFUL LOAD PREFETCHES:          0 PREFETCH ISSUED TO LOWER LEVEL:          0  ACCURACY: -nan
PSCL3 TIMELY PREFETCHES:          0 LATE PREFETCHES: 0 DROPPED PREFETCHES: 0
PSCL3 PREFETCHES SAME FILL-ORIGIN LEVEL: 0 DIFFERENT FILL-ORIGIN LEVEL: 0

PSCL2 TOTAL     ACCESS:     120554  HIT:      89541  MISS:      31013  HIT %:    74.2746  MISS %:    25.7254   MPKI: 0.62026
PSCL2 LOAD TRANSLATION ACCESS:     120554  HIT:      89541  MISS:      31013  HIT %:    74.2746  MISS %:    25.7254   MPKI: 0.62026
PSCL2 PREFETCH  REQUESTED:          0  ISSUED:          0  USEFUL:          0  USELESS:          0
PSCL2 USEFUL LOAD PREFETCHES:          0 PREFETCH ISSUED TO LOWER LEVEL:          0  ACCURACY: -nan
PSCL2 TIMELY PREFETCHES:          0 LATE PREFETCHES: 0 DROPPED PREFETCHES: 0
PSCL2 PREFETCHES SAME FILL-ORIGIN LEVEL: 0 DIFFERENT FILL-ORIGIN LEVEL: 0

LLC TOTAL     ACCESS:    1527846  HIT:    1437142  MISS:      90704  HIT %:    94.0633  MISS %:    5.93672   MPKI: 1.81408
LLC LOAD      ACCESS:     929449  HIT:     900910  MISS:      28539  HIT %:    96.9295  MISS %:    3.07053   MPKI: 0.57078
LLC RFO       ACCESS:      54649  HIT:      45134  MISS:       9515  HIT %:    82.5889  MISS %:    17.4111   MPKI: 0.1903
LLC PREFETCH  ACCESS:     301657  HIT:     250787  MISS:      50870  HIT %:    83.1365  MISS %:    16.8635   MPKI: 1.0174
LLC WRITEBACK ACCESS:     172183  HIT:     172135  MISS:         48  HIT %:    99.9721  MISS %:  0.0278773   MPKI: 0.00096
LLC LOAD TRANSLATION ACCESS:      69908  HIT:      68176  MISS:       1732  HIT %:    97.5225  MISS %:    2.47754   MPKI: 0.03464
LLC PREFETCH  REQUESTED:          0  ISSUED:          0  USEFUL:       3654  USELESS:      46248
LLC USEFUL LOAD PREFETCHES:       3654 PREFETCH ISSUED TO LOWER LEVEL:      50870  ACCURACY: 7.18302
LLC TIMELY PREFETCHES:       3654 LATE PREFETCHES: 0 DROPPED PREFETCHES: 0
LLC PREFETCHES SAME FILL-ORIGIN LEVEL: 0 DIFFERENT FILL-ORIGIN LEVEL: 0
LLC AVERAGE MISS LATENCY: 192.641 cycles
LLC RQ	ACCESS:    1054008	FORWARD:          0	MERGED:          0	TO_CACHE:    1054007
LLC WQ	ACCESS:     172183	FORWARD:          1	MERGED:          0	TO_CACHE:     172183
LLC PQ	ACCESS:     301657	FORWARD:          0	MERGED:          0	TO_CACHE:     301657

LLC Dense regions hint to LLC: 0

RAW hits: 787694
Loads Generated: 11434252
Loads sent to L1D: 10646560
Stores Generated: 5204832
Stores sent to L1D: 5204839
Major fault: 0 Minor fault: 4923
Allocated PAGES: 4923

stream: 
stream:times selected: 427469
stream:pref_filled: 70270
stream:pref_useful: 20190
stream:pref_late: 3351
stream:misses: 6067
stream:misses_by_poll: 0

CS: 
CS:times selected: 26107
CS:pref_filled: 13215
CS:pref_useful: 9358
CS:pref_late: 2694
CS:misses: 4619
CS:misses_by_poll: 0

CPLX: 
CPLX:times selected: 398085
CPLX:pref_filled: 28701
CPLX:pref_useful: 3870
CPLX:pref_late: 419
CPLX:misses: 32961
CPLX:misses_by_poll: 8

NL_L1: 
NL:times selected: 3118
NL:pref_filled: 1120
NL:pref_useful: 169
NL:pref_late: 23
NL:misses: 375
NL:misses_by_poll: 0

total selections: 854779
total_filled: 97988
total_useful: 29094
total_late: 6976
total_polluted: 8
total_misses_after_warmup: 568336
conflicts: 2440672
Degree Incremented Times: 6
Degree Decremented Times: 104879

L1 IP Table Write Accesses: 4296421
L1 IP Table Read Accesses: 1855749
L1 RST Write Accesses: 361458
L1 RST Read Accesses: 722916
L1 CSPT Write Accesses: 361458
L1 CSPT Read Accesses: 699234
L1 RR Filter Tag Write Accesses: 238326
L1 RR Filter Tag Read Accesses: 14686104
L1 IP Table Tag Write Accesses: 7259608
L1 IP Table Tag Read Accesses: 7259608
L1 RST Tag Write Accesses: 0
L1 RST Tag Read Accesses: 3568792
L1 RR Filter Write Accesses: 0
L1 RR Filter Read Accesses: 532532
test: 111812
L2 IP Table Read Accesses: 800216
L2 IP Table Write Accesses: 1125981
L2 IP Table Tag Read Accesses: 633513
L2 IP Table Tag Write Accesses: 633513

DRAM Statistics
 CHANNEL 0
 RQ ROW_BUFFER_HIT:      15891  ROW_BUFFER_MISS:      74765
 DBUS_CONGESTED:      55313
 WQ ROW_BUFFER_HIT:       9227  ROW_BUFFER_MISS:      43793  FULL:          0

 AVG_CONGESTED_CYCLE: 46
 All warmup complete: 2
Channel 0 Bank busy for read cycles: 0
Channel 0 Bank busy for write cycles: 0
Channel 0
Rank 0
0banks busy for read cycles: 88175216
0banks busy for write cycles: 27501
1banks busy for read cycles: 7249511
1banks busy for write cycles: 3850311
2banks busy for read cycles: 1809510
2banks busy for write cycles: 1063263
3banks busy for read cycles: 438268
3banks busy for write cycles: 385937
4banks busy for read cycles: 160399
4banks busy for write cycles: 222131
5banks busy for read cycles: 55971
5banks busy for write cycles: 158847
6banks busy for read cycles: 36450
6banks busy for write cycles: 139301
7banks busy for read cycles: 41299
7banks busy for write cycles: 174206
8banks busy for read cycles: 105221
8banks busy for write cycles: 350342

CPU 0 Branch Prediction Accuracy: 93.0092% MPKI: 12.962 Average ROB Occupancy at Mispredict: 21.5279
Branch types
NOT_BRANCH: 40728895 81.4578%
BRANCH_DIRECT_JUMP: 455305 0.91061%
BRANCH_INDIRECT: 153269 0.306538%
BRANCH_CONDITIONAL: 6958895 13.9178%
BRANCH_DIRECT_CALL: 666812 1.33362%
BRANCH_INDIRECT_CALL: 167985 0.33597%
BRANCH_RETURN: 868468 1.73694%
BRANCH_OTHER: 0 0%

@sumon_overall_L1D     29094      6347     68857     97988    476423    476470
@Sumon_Early_by_class_L1D     16624      7170      3242        21
@Sumon_Late_by_class_L1D      3137      2422       328        21

@Sumon_Early_by_cycle_L1D      6909      2378      5056      1913      1951      3725      1336      1397      2085      1630       602       112
@Sumon_Late_by_cycle_L1D      5807       529        11         0         0         0         0         0         0         0         0         0
@Sumon_Early_stream_L1D      3283      1601      1670      1372      1321      2293       989      1080      1454      1130       352        79
@Sumon_Early_CS_L1D      2884       152      2674       101       254       721       117       103        57        21        82         4
@Sumon_Early_CPLX_L1D       368       287       460       174       151       479       199       201       423       381       101        18
@Sumon_Late_stream_L1D      2824       303        10         0         0         0         0         0         0         0         0         0
@Sumon_Late_CS_L1D      2280       142         0         0         0         0         0         0         0         0         0         0
@Sumon_Late_CPLX_L1D       301        27         0         0         0         0         0         0         0         0         0         0
@sumon_overall_L2C     74483      7234    220029    294423    457922    457922
@Sumon_Early_by_class_L2C      1298       565       512         0
@Sumon_Late_by_class_L2C         0         0         0         0

@Sumon_Early_by_cycle_L2C     12455      8454      8809      5840      4429     10378      5244      3598      2695      2684      1912      7985
@Sumon_Late_by_cycle_L2C      5447      1684       101         1         1         0         0         0         0         0         0         0
@Sumon_Early_stream_L2C         0         0         0         0         0         0         0         0         1        11        80      1206
@Sumon_Early_CS_L2C         0         0         0         0         0         0         0         0         0         3        36       526
@Sumon_Early_CPLX_L2C         0         0         0         0         0         0         0         0         0         7        57       448
@Sumon_Late_stream_L2C         0         0         0         0         0         0         0         0         0         0         0         0
@Sumon_Late_CS_L2C         0         0         0         0         0         0         0         0         0         0         0         0
@Sumon_Late_CPLX_L2C         0         0         0         0         0         0         0         0         0         0         0         0
DRAM PAGES: 1048576
Allocated PAGES: 4923
