
*** ChampSim Multicore Out-of-Order Simulator ***

Warmup Instructions: 10000000
Simulation Instructions: 50000000
Number of CPUs: 1
LLC sets: 2048
LLC ways: 16
Off-chip DRAM Size: 4096 MB Channels: 1 Width: 64-bit Data Rate: 533 MT/s
CPU 0 runs traces/clientserver/server_028.champsimtrace.xz
.xz
CPU 0 Bimodal branch predictor
BTB has LRU replacement policy
ITLB has LRU replacement policy
DTLB has LRU replacement policy
STLB has LRU replacement policy
L1I has LRU replacement policy
IP Table Entries: 256
L1D has LRU replacement policy
IP_Table L2 entries: 256
L2C has LRU replacement policy
LLC has LRU replacement policy
Heartbeat CPU 0 instructions: 10000001 cycles: 2889401 heartbeat IPC: 3.46093 cumulative IPC: 3.46093 (Simulation time: 0 hr 8 min 39 sec) 

Warmup complete CPU 0 instructions: 10000001 cycles: 2889401 (Simulation time: 0 hr 8 min 39 sec) 

Heartbeat CPU 0 instructions: 20000002 cycles: 28246149 heartbeat IPC: 0.394372 cumulative IPC: 0.394372 (Simulation time: 0 hr 17 min 23 sec) 
Heartbeat CPU 0 instructions: 30000002 cycles: 53626932 heartbeat IPC: 0.393999 cumulative IPC: 0.394186 (Simulation time: 0 hr 26 min 17 sec) 
Heartbeat CPU 0 instructions: 40000000 cycles: 79102837 heartbeat IPC: 0.392528 cumulative IPC: 0.393631 (Simulation time: 0 hr 35 min 10 sec) 
Heartbeat CPU 0 instructions: 50000001 cycles: 104436125 heartbeat IPC: 0.394738 cumulative IPC: 0.393907 (Simulation time: 0 hr 43 min 59 sec) 
Heartbeat CPU 0 instructions: 60000000 cycles: 129771707 heartbeat IPC: 0.394702 cumulative IPC: 0.394066 (Simulation time: 0 hr 51 min 36 sec) 
Finished CPU 0 instructions: 50000001 cycles: 126882307 cumulative IPC: 0.394066 (Simulation time: 0 hr 51 min 36 sec) 

ChampSim completed all CPUs

Region of Interest Statistics

CPU 0 cumulative IPC: 0.394066 instructions: 50000001 cycles: 126882307
ITLB TOTAL     ACCESS:    8712850  HIT:    8180897  MISS:     531953  HIT %:    93.8946  MISS %:    6.10538   MPKI: 10.6391
ITLB LOAD TRANSLATION ACCESS:    8712850  HIT:    8180897  MISS:     531953  HIT %:    93.8946  MISS %:    6.10538   MPKI: 10.6391
ITLB PREFETCH  REQUESTED:          0  ISSUED:          0  USEFUL:          0  USELESS:          0
ITLB USEFUL LOAD PREFETCHES:          0 PREFETCH ISSUED TO LOWER LEVEL:          0  ACCURACY: -nan
ITLB TIMELY PREFETCHES:          0 LATE PREFETCHES: 0 DROPPED PREFETCHES: 0
ITLB PREFETCHES SAME FILL-ORIGIN LEVEL: 0 DIFFERENT FILL-ORIGIN LEVEL: 0
ITLB AVERAGE MISS LATENCY: 9.35715 cycles
ITLB RQ	ACCESS:   10376939	FORWARD:          0	MERGED:    1527147	TO_CACHE:    8849792

DTLB TOTAL     ACCESS:   12234084  HIT:   11691659  MISS:     542425  HIT %:    95.5663  MISS %:    4.43372   MPKI: 10.8485
DTLB LOAD TRANSLATION ACCESS:   12234084  HIT:   11691659  MISS:     542425  HIT %:    95.5663  MISS %:    4.43372   MPKI: 10.8485
DTLB PREFETCH  REQUESTED:          0  ISSUED:          0  USEFUL:          0  USELESS:          0
DTLB USEFUL LOAD PREFETCHES:          0 PREFETCH ISSUED TO LOWER LEVEL:          0  ACCURACY: -nan
DTLB TIMELY PREFETCHES:          0 LATE PREFETCHES: 0 DROPPED PREFETCHES: 0
DTLB PREFETCHES SAME FILL-ORIGIN LEVEL: 0 DIFFERENT FILL-ORIGIN LEVEL: 0
DTLB AVERAGE MISS LATENCY: 12.4957 cycles
DTLB RQ	ACCESS:   15354181	FORWARD:          0	MERGED:    3101180	TO_CACHE:   12253001

STLB TOTAL     ACCESS:    1600457  HIT:    1580257  MISS:      20200  HIT %:    98.7379  MISS %:    1.26214   MPKI: 0.404
STLB LOAD TRANSLATION ACCESS:    1074378  HIT:    1054178  MISS:      20200  HIT %:    98.1198  MISS %:    1.88016   MPKI: 0.404
STLB TRANSLATION FROM L1D PREFETCHER ACCESS:     526079  HIT:     526079  MISS:          0  HIT %:        100  MISS %:          0   MPKI: 0
STLB PREFETCH  REQUESTED:          0  ISSUED:          0  USEFUL:          0  USELESS:          0
STLB USEFUL LOAD PREFETCHES:          0 PREFETCH ISSUED TO LOWER LEVEL:          0  ACCURACY: -nan
STLB TIMELY PREFETCHES:          0 LATE PREFETCHES: 0 DROPPED PREFETCHES: 0
STLB PREFETCHES SAME FILL-ORIGIN LEVEL: 0 DIFFERENT FILL-ORIGIN LEVEL: 0
STLB AVERAGE MISS LATENCY: 102.557 cycles
STLB RQ	ACCESS:    1980505	FORWARD:          0	MERGED:     380048	TO_CACHE:    1600457

STLB Hit, L1D data hit: 0
STLB Hit, L2C data hit: 0
STLB Hit, LLC data hit: 0
STLB Hit, LLC data miss: 0
STLB STLB hints to L2: 0
L1D TOTAL     ACCESS:   15684456  HIT:   13936175  MISS:    1748281  HIT %:    88.8534  MISS %:    11.1466   MPKI: 34.9656
L1D LOAD      ACCESS:    8589939  HIT:    7662294  MISS:     927645  HIT %:    89.2008  MISS %:    10.7992   MPKI: 18.5529
L1D RFO       ACCESS:    6265919  HIT:    5962786  MISS:     303133  HIT %:    95.1622  MISS %:    4.83781   MPKI: 6.06266
L1D PREFETCH  ACCESS:     828598  HIT:     311095  MISS:     517503  HIT %:    37.5447  MISS %:    62.4553   MPKI: 10.3501
L1D PREFETCH  REQUESTED:    1812494  ISSUED:    1812470  USEFUL:     252427  USELESS:     265097
L1D USEFUL LOAD PREFETCHES:     252427 PREFETCH ISSUED TO LOWER LEVEL:     570653  ACCURACY: 44.2348
L1D TIMELY PREFETCHES:     252427 LATE PREFETCHES: 53037 DROPPED PREFETCHES: 0
L1D PREFETCHES SAME FILL-ORIGIN LEVEL: 570653 DIFFERENT FILL-ORIGIN LEVEL: 0
L1D AVERAGE MISS LATENCY: 1.98895e+06 cycles
L1D RQ	ACCESS:   11731753	FORWARD:          0	MERGED:    2980088	TO_CACHE:    8635659
L1D WQ	ACCESS:    6762627	FORWARD:     116222	MERGED:      44105	TO_CACHE:    6718522
L1D PQ	ACCESS:     906343	FORWARD:          0	MERGED:          0	TO_CACHE:     906127

L1D UNIQUE REGIONS ACCESSED: 0
L1D REGIONS CONFLICTS: 0
L1D Cross Page Prefetch Requests: 0
L1D Same Page Prefetch Requests: 1075553
L1D ROI Sum of L1D PQ occupancy: 11669986
L1D PREFETCHES PUSHED FROM L2C: 0
L1I TOTAL     ACCESS:    9849722  HIT:    6963355  MISS:    2886367  HIT %:     70.696  MISS %:     29.304   MPKI: 57.7273
L1I LOAD      ACCESS:    9849722  HIT:    6963355  MISS:    2886367  HIT %:     70.696  MISS %:     29.304   MPKI: 57.7273
L1I PREFETCH  REQUESTED:          0  ISSUED:          0  USEFUL:          0  USELESS:          0
L1I USEFUL LOAD PREFETCHES:          0 PREFETCH ISSUED TO LOWER LEVEL:          0  ACCURACY: -nan
L1I TIMELY PREFETCHES:          0 LATE PREFETCHES: 0 DROPPED PREFETCHES: 0
L1I PREFETCHES SAME FILL-ORIGIN LEVEL: 0 DIFFERENT FILL-ORIGIN LEVEL: 0
L1I AVERAGE MISS LATENCY: 18.1709 cycles
L1I RQ	ACCESS:   13995338	FORWARD:          0	MERGED:    3618399	TO_CACHE:   10376939

BTB TOTAL     ACCESS:    6128313  HIT:    4315808  MISS:    1812505  HIT %:    70.4241  MISS %:    29.5759   MPKI: 36.2501
BTB BRANCH_DIRECT_JUMP	ACCESS:     522169  HIT:     376870  MISS:     145299
BTB BRANCH_INDIRECT	ACCESS:     166479  HIT:     131760  MISS:      34719
BTB BRANCH_CONDITIONAL	ACCESS:    3081708  HIT:    2589088  MISS:     492620
BTB BRANCH_DIRECT_CALL	ACCESS:     991455  HIT:     639816  MISS:     351639
BTB BRANCH_INDIRECT_CALL	ACCESS:     187516  HIT:     119653  MISS:      67863
BTB BRANCH_RETURN	ACCESS:    1178986  HIT:     458621  MISS:     720365
BTB BRANCH_OTHER ACCESS:          0  HIT:          0  MISS:          0

L2C TOTAL     ACCESS:    6215793  HIT:    5327143  MISS:     888650  HIT %:    85.7034  MISS %:    14.2966   MPKI: 17.773
L2C LOAD      ACCESS:    3760975  HIT:    3231609  MISS:     529366  HIT %:    85.9248  MISS %:    14.0752   MPKI: 10.5873
L2C DATA LOAD MPKI: 2.9173
L2C INSTRUCTION LOAD MPKI: 7.67002
L2C RFO       ACCESS:     303020  HIT:     236369  MISS:      66651  HIT %:    78.0044  MISS %:    21.9956   MPKI: 1.33302
L2C PREFETCH  ACCESS:    1523087  HIT:    1248085  MISS:     275002  HIT %:    81.9444  MISS %:    18.0556   MPKI: 5.50004
L2C DATA PREFETCH MPKI: 5.50004
L2C INSTRUCTION PREFETCH MPKI: 0
L2C WRITEBACK ACCESS:     599835  HIT:     595370  MISS:       4465  HIT %:    99.2556  MISS %:   0.744371   MPKI: 0.0893
L2C LOAD TRANSLATION ACCESS:      28876  HIT:      15710  MISS:      13166  HIT %:     54.405  MISS %:     45.595   MPKI: 0.26332
L2C PREFETCH  REQUESTED:    1019999  ISSUED:    1019999  USEFUL:      28636  USELESS:     246320
L2C USEFUL LOAD PREFETCHES:      28636 PREFETCH ISSUED TO LOWER LEVEL:     280853  ACCURACY: 10.1961
L2C TIMELY PREFETCHES:      28636 LATE PREFETCHES: 5851 DROPPED PREFETCHES: 0
L2C PREFETCHES SAME FILL-ORIGIN LEVEL: 123682 DIFFERENT FILL-ORIGIN LEVEL: 0
L2C AVERAGE MISS LATENCY: 51.4599 cycles
L2C RQ	ACCESS:    4092872	FORWARD:          0	MERGED:          0	TO_CACHE:    4092872
L2C WQ	ACCESS:     599835	FORWARD:          8	MERGED:          0	TO_CACHE:     599835
L2C PQ	ACCESS:    1590652	FORWARD:          0	MERGED:      47135	TO_CACHE:    1543509

L2C Instructions Evicting Data 180618
L2C Translations Evicting Data 9198
L2C Data Evicting Data 299666
L2C Instructions Evicting Instructions 199379
L2C Translations Evicting Instructions 3487
L2C Data Evicting Instructions 178691
L2C Instructions Evicting Translations 3504
L2C Translations Evicting Translations 481
L2C Data Evicting Translations 9161
L2C Dense regions hint from L2: 0
PSCL5 TOTAL     ACCESS:      20200  HIT:      20200  MISS:          0  HIT %:        100  MISS %:          0   MPKI: 0
PSCL5 LOAD TRANSLATION ACCESS:      20200  HIT:      20200  MISS:          0  HIT %:        100  MISS %:          0   MPKI: 0
PSCL5 PREFETCH  REQUESTED:          0  ISSUED:          0  USEFUL:          0  USELESS:          0
PSCL5 USEFUL LOAD PREFETCHES:          0 PREFETCH ISSUED TO LOWER LEVEL:          0  ACCURACY: -nan
PSCL5 TIMELY PREFETCHES:          0 LATE PREFETCHES: 0 DROPPED PREFETCHES: 0
PSCL5 PREFETCHES SAME FILL-ORIGIN LEVEL: 0 DIFFERENT FILL-ORIGIN LEVEL: 0

PSCL4 TOTAL     ACCESS:      19725  HIT:      19545  MISS:        180  HIT %:    99.0875  MISS %:   0.912548   MPKI: 0.0036
PSCL4 LOAD TRANSLATION ACCESS:      19725  HIT:      19545  MISS:        180  HIT %:    99.0875  MISS %:   0.912548   MPKI: 0.0036
PSCL4 PREFETCH  REQUESTED:          0  ISSUED:          0  USEFUL:          0  USELESS:          0
PSCL4 USEFUL LOAD PREFETCHES:          0 PREFETCH ISSUED TO LOWER LEVEL:          0  ACCURACY: -nan
PSCL4 TIMELY PREFETCHES:          0 LATE PREFETCHES: 0 DROPPED PREFETCHES: 0
PSCL4 PREFETCHES SAME FILL-ORIGIN LEVEL: 0 DIFFERENT FILL-ORIGIN LEVEL: 0

PSCL3 TOTAL     ACCESS:      20136  HIT:      19955  MISS:        181  HIT %:    99.1011  MISS %:   0.898888   MPKI: 0.00362
PSCL3 LOAD TRANSLATION ACCESS:      20136  HIT:      19955  MISS:        181  HIT %:    99.1011  MISS %:   0.898888   MPKI: 0.00362
PSCL3 PREFETCH  REQUESTED:          0  ISSUED:          0  USEFUL:          0  USELESS:          0
PSCL3 USEFUL LOAD PREFETCHES:          0 PREFETCH ISSUED TO LOWER LEVEL:          0  ACCURACY: -nan
PSCL3 TIMELY PREFETCHES:          0 LATE PREFETCHES: 0 DROPPED PREFETCHES: 0
PSCL3 PREFETCHES SAME FILL-ORIGIN LEVEL: 0 DIFFERENT FILL-ORIGIN LEVEL: 0

PSCL2 TOTAL     ACCESS:      20200  HIT:      11878  MISS:       8322  HIT %:     58.802  MISS %:     41.198   MPKI: 0.16644
PSCL2 LOAD TRANSLATION ACCESS:      20200  HIT:      11878  MISS:       8322  HIT %:     58.802  MISS %:     41.198   MPKI: 0.16644
PSCL2 PREFETCH  REQUESTED:          0  ISSUED:          0  USEFUL:          0  USELESS:          0
PSCL2 USEFUL LOAD PREFETCHES:          0 PREFETCH ISSUED TO LOWER LEVEL:          0  ACCURACY: -nan
PSCL2 TIMELY PREFETCHES:          0 LATE PREFETCHES: 0 DROPPED PREFETCHES: 0
PSCL2 PREFETCHES SAME FILL-ORIGIN LEVEL: 0 DIFFERENT FILL-ORIGIN LEVEL: 0

LLC TOTAL     ACCESS:    1009111  HIT:     932166  MISS:      76945  HIT %:     92.375  MISS %:    7.62503   MPKI: 1.5389
LLC LOAD      ACCESS:     523690  HIT:     505854  MISS:      17836  HIT %:    96.5942  MISS %:    3.40583   MPKI: 0.35672
LLC RFO       ACCESS:      66474  HIT:      63838  MISS:       2636  HIT %:    96.0345  MISS %:    3.96546   MPKI: 0.05272
LLC PREFETCH  ACCESS:     280853  HIT:     227866  MISS:      52987  HIT %:    81.1335  MISS %:    18.8665   MPKI: 1.05974
LLC WRITEBACK ACCESS:     124928  HIT:     124577  MISS:        351  HIT %:     99.719  MISS %:   0.280962   MPKI: 0.00702
LLC LOAD TRANSLATION ACCESS:      13166  HIT:      10031  MISS:       3135  HIT %:    76.1887  MISS %:    23.8113   MPKI: 0.0627
LLC PREFETCH  REQUESTED:          0  ISSUED:          0  USEFUL:       2168  USELESS:      47994
LLC USEFUL LOAD PREFETCHES:       2168 PREFETCH ISSUED TO LOWER LEVEL:      52987  ACCURACY: 4.09157
LLC TIMELY PREFETCHES:       2168 LATE PREFETCHES: 0 DROPPED PREFETCHES: 0
LLC PREFETCHES SAME FILL-ORIGIN LEVEL: 0 DIFFERENT FILL-ORIGIN LEVEL: 0
LLC AVERAGE MISS LATENCY: 250.849 cycles
LLC RQ	ACCESS:     603332	FORWARD:          0	MERGED:          0	TO_CACHE:     603330
LLC WQ	ACCESS:     124928	FORWARD:          2	MERGED:          0	TO_CACHE:     124928
LLC PQ	ACCESS:     280853	FORWARD:          0	MERGED:          0	TO_CACHE:     280853

LLC Dense regions hint to LLC: 0

RAW hits: 558796
Loads Generated: 12290549
Loads sent to L1D: 11731753
Stores Generated: 6762620
Stores sent to L1D: 6762627
Major fault: 0 Minor fault: 5563
Allocated PAGES: 5563

stream: 
stream:times selected: 1053202
stream:pref_filled: 121290
stream:pref_useful: 22360
stream:pref_late: 25310
stream:misses: 14031
stream:misses_by_poll: 0

CS: 
CS:times selected: 165031
CS:pref_filled: 114941
CS:pref_useful: 98761
CS:pref_late: 6041
CS:misses: 12007
CS:misses_by_poll: 73

CPLX: 
CPLX:times selected: 885580
CPLX:pref_filled: 375488
CPLX:pref_useful: 178592
CPLX:pref_late: 11352
CPLX:misses: 132799
CPLX:misses_by_poll: 443

NL_L1: 
NL:times selected: 2099
NL:pref_filled: 345
NL:pref_useful: 19
NL:pref_late: 11
NL:misses: 109
NL:misses_by_poll: 0

total selections: 2105912
total_filled: 517503
total_useful: 252427
total_late: 57828
total_polluted: 516
total_misses_after_warmup: 973366
conflicts: 3263485
Degree Incremented Times: 42479
Degree Decremented Times: 127605

L1 IP Table Write Accesses: 5095978
L1 IP Table Read Accesses: 1832493
L1 RST Write Accesses: 877271
L1 RST Read Accesses: 1754542
L1 CSPT Write Accesses: 877271
L1 CSPT Read Accesses: 2930843
L1 RR Filter Tag Write Accesses: 906367
L1 RR Filter Tag Read Accesses: 69064642
L1 IP Table Tag Write Accesses: 8635660
L1 IP Table Tag Read Accesses: 8635660
L1 RST Tag Write Accesses: 0
L1 RST Tag Read Accesses: 6788806
L1 RR Filter Write Accesses: 0
L1 RR Filter Read Accesses: 2442712
test: 169766
L2 IP Table Read Accesses: 2074264
L2 IP Table Write Accesses: 2603278
L2 IP Table Tag Read Accesses: 1420300
L2 IP Table Tag Write Accesses: 1420300

DRAM Statistics
 CHANNEL 0
 RQ ROW_BUFFER_HIT:      22619  ROW_BUFFER_MISS:      53975
 DBUS_CONGESTED:      53684
 WQ ROW_BUFFER_HIT:        644  ROW_BUFFER_MISS:       2305  FULL:          0

 AVG_CONGESTED_CYCLE: 49
 All warmup complete: 2
Channel 0 Bank busy for read cycles: 0
Channel 0 Bank busy for write cycles: 0
Channel 0
Rank 0
0banks busy for read cycles: 120454676
0banks busy for write cycles: 1656
1banks busy for read cycles: 2130497
1banks busy for write cycles: 289640
2banks busy for read cycles: 1409567
2banks busy for write cycles: 107297
3banks busy for read cycles: 909889
3banks busy for write cycles: 49626
4banks busy for read cycles: 650604
4banks busy for write cycles: 20654
5banks busy for read cycles: 417164
5banks busy for write cycles: 5777
6banks busy for read cycles: 218709
6banks busy for write cycles: 3461
7banks busy for read cycles: 95752
7banks busy for write cycles: 1474
8banks busy for read cycles: 112360
8banks busy for write cycles: 3505

CPU 0 Branch Prediction Accuracy: 92.2315% MPKI: 14.6258 Average ROB Occupancy at Mispredict: 19.4451
Branch types
NOT_BRANCH: 40586087 81.1722%
BRANCH_DIRECT_JUMP: 522169 1.04434%
BRANCH_INDIRECT: 166479 0.332958%
BRANCH_CONDITIONAL: 6366960 12.7339%
BRANCH_DIRECT_CALL: 991455 1.98291%
BRANCH_INDIRECT_CALL: 187516 0.375032%
BRANCH_RETURN: 1178986 2.35797%
BRANCH_OTHER: 0 0%

@sumon_overall_L1D    252427     53037    265097    517503   1812470   1812494
@Sumon_Early_by_class_L1D     17634     90445    142625         7
@Sumon_Late_by_class_L1D     24246      5736      8131         7

@Sumon_Early_by_cycle_L1D    223313      6957      3824      2387       395      3337      1543      1951      4276      3965       474         5
@Sumon_Late_by_cycle_L1D     50563      1675       751        44         4         0         0         0         0         0         0         0
@Sumon_Early_stream_L1D      6766      2444      1340       729       280      1400       774       956      1709      1209        25         2
@Sumon_Early_CS_L1D     87294      1895      1057       111         1         0         0         0        28        59         0         0
@Sumon_Early_CPLX_L1D    128673      2535      1382      1546       111      1912       611       993      1768      2643       448         3
@Sumon_Late_stream_L1D     22857       819       540        28         2         0         0         0         0         0         0         0
@Sumon_Late_CS_L1D      5090       540       101         5         0         0         0         0         0         0         0         0
@Sumon_Late_CPLX_L1D      7771       249        99        10         2         0         0         0         0         0         0         0
@sumon_overall_L2C     28636      5851    246320    275002   1019999   1019999
@Sumon_Early_by_class_L2C      2464       202      1972         0
@Sumon_Late_by_class_L2C         0       113         0         0

@Sumon_Early_by_cycle_L2C      5964      2222      2629      1814      1801      2662      1399      2527       316      1296      2918      3088
@Sumon_Late_by_cycle_L2C      5117       686        45         3         0         0         0         0         0         0         0         0
@Sumon_Early_stream_L2C         0         0         0         0         0         0         0         0         0       302      1467       695
@Sumon_Early_CS_L2C        20        13         6         3         0         0         0         2         1         0        18       139
@Sumon_Early_CPLX_L2C         0         0         0         0         0         0         0         0         0        77       675      1220
@Sumon_Late_stream_L2C         0         0         0         0         0         0         0         0         0         0         0         0
@Sumon_Late_CS_L2C        58        32        23         0         0         0         0         0         0         0         0         0
@Sumon_Late_CPLX_L2C         0         0         0         0         0         0         0         0         0         0         0         0
DRAM PAGES: 1048576
Allocated PAGES: 5563
