
*** ChampSim Multicore Out-of-Order Simulator ***

Warmup Instructions: 10000000
Simulation Instructions: 50000000
Number of CPUs: 1
LLC sets: 2048
LLC ways: 16
Off-chip DRAM Size: 4096 MB Channels: 1 Width: 64-bit Data Rate: 533 MT/s
CPU 0 runs traces/clientserver/server_035.champsimtrace.xz
.xz
CPU 0 Bimodal branch predictor
BTB has LRU replacement policy
ITLB has LRU replacement policy
DTLB has LRU replacement policy
STLB has LRU replacement policy
L1I has LRU replacement policy
IP Table Entries: 256
L1D has LRU replacement policy
IP_Table L2 entries: 256
L2C has LRU replacement policy
LLC has LRU replacement policy
Heartbeat CPU 0 instructions: 10000001 cycles: 2770422 heartbeat IPC: 3.60956 cumulative IPC: 3.60956 (Simulation time: 0 hr 8 min 32 sec) 

Warmup complete CPU 0 instructions: 10000001 cycles: 2770422 (Simulation time: 0 hr 8 min 32 sec) 

Heartbeat CPU 0 instructions: 20000000 cycles: 25620428 heartbeat IPC: 0.437637 cumulative IPC: 0.437637 (Simulation time: 0 hr 17 min 26 sec) 
Heartbeat CPU 0 instructions: 30000000 cycles: 46921043 heartbeat IPC: 0.46947 cumulative IPC: 0.452995 (Simulation time: 0 hr 25 min 59 sec) 
Heartbeat CPU 0 instructions: 40000000 cycles: 69708736 heartbeat IPC: 0.438833 cumulative IPC: 0.448174 (Simulation time: 0 hr 35 min 0 sec) 
Heartbeat CPU 0 instructions: 50000000 cycles: 90846564 heartbeat IPC: 0.473085 cumulative IPC: 0.454152 (Simulation time: 0 hr 43 min 30 sec) 
Heartbeat CPU 0 instructions: 60000001 cycles: 113527819 heartbeat IPC: 0.440893 cumulative IPC: 0.451437 (Simulation time: 0 hr 51 min 26 sec) 
Finished CPU 0 instructions: 50000000 cycles: 110757397 cumulative IPC: 0.451437 (Simulation time: 0 hr 51 min 26 sec) 

ChampSim completed all CPUs

Region of Interest Statistics

CPU 0 cumulative IPC: 0.451437 instructions: 50000000 cycles: 110757397
ITLB TOTAL     ACCESS:    8923268  HIT:    8419604  MISS:     503664  HIT %:    94.3556  MISS %:    5.64439   MPKI: 10.0733
ITLB LOAD TRANSLATION ACCESS:    8923268  HIT:    8419604  MISS:     503664  HIT %:    94.3556  MISS %:    5.64439   MPKI: 10.0733
ITLB PREFETCH  REQUESTED:          0  ISSUED:          0  USEFUL:          0  USELESS:          0
ITLB USEFUL LOAD PREFETCHES:          0 PREFETCH ISSUED TO LOWER LEVEL:          0  ACCURACY: -nan
ITLB TIMELY PREFETCHES:          0 LATE PREFETCHES: 0 DROPPED PREFETCHES: 0
ITLB PREFETCHES SAME FILL-ORIGIN LEVEL: 0 DIFFERENT FILL-ORIGIN LEVEL: 0
ITLB AVERAGE MISS LATENCY: 9.14528 cycles
ITLB RQ	ACCESS:   10587589	FORWARD:          0	MERGED:    1540728	TO_CACHE:    9046861

DTLB TOTAL     ACCESS:   10597872  HIT:   10147926  MISS:     449946  HIT %:    95.7544  MISS %:    4.24563   MPKI: 8.99892
DTLB LOAD TRANSLATION ACCESS:   10597872  HIT:   10147926  MISS:     449946  HIT %:    95.7544  MISS %:    4.24563   MPKI: 8.99892
DTLB PREFETCH  REQUESTED:          0  ISSUED:          0  USEFUL:          0  USELESS:          0
DTLB USEFUL LOAD PREFETCHES:          0 PREFETCH ISSUED TO LOWER LEVEL:          0  ACCURACY: -nan
DTLB TIMELY PREFETCHES:          0 LATE PREFETCHES: 0 DROPPED PREFETCHES: 0
DTLB PREFETCHES SAME FILL-ORIGIN LEVEL: 0 DIFFERENT FILL-ORIGIN LEVEL: 0
DTLB AVERAGE MISS LATENCY: 11.4207 cycles
DTLB RQ	ACCESS:   14198077	FORWARD:          0	MERGED:    3588701	TO_CACHE:   10609376

STLB TOTAL     ACCESS:    1204276  HIT:    1195331  MISS:       8945  HIT %:    99.2572  MISS %:    0.74277   MPKI: 0.1789
STLB LOAD TRANSLATION ACCESS:     953610  HIT:     944665  MISS:       8945  HIT %:     99.062  MISS %:   0.938014   MPKI: 0.1789
STLB TRANSLATION FROM L1D PREFETCHER ACCESS:     250666  HIT:     250666  MISS:          0  HIT %:        100  MISS %:          0   MPKI: 0
STLB PREFETCH  REQUESTED:          0  ISSUED:          0  USEFUL:          0  USELESS:          0
STLB USEFUL LOAD PREFETCHES:          0 PREFETCH ISSUED TO LOWER LEVEL:          0  ACCURACY: -nan
STLB TIMELY PREFETCHES:          0 LATE PREFETCHES: 0 DROPPED PREFETCHES: 0
STLB PREFETCHES SAME FILL-ORIGIN LEVEL: 0 DIFFERENT FILL-ORIGIN LEVEL: 0
STLB AVERAGE MISS LATENCY: 127.536 cycles
STLB RQ	ACCESS:    1322467	FORWARD:          0	MERGED:     118191	TO_CACHE:    1204276

STLB Hit, L1D data hit: 0
STLB Hit, L2C data hit: 0
STLB Hit, LLC data hit: 0
STLB Hit, LLC data miss: 0
STLB STLB hints to L2: 0
L1D TOTAL     ACCESS:   14402911  HIT:   13463877  MISS:     939034  HIT %:    93.4802  MISS %:    6.51975   MPKI: 18.7807
L1D LOAD      ACCESS:    7743654  HIT:    7108077  MISS:     635577  HIT %:    91.7923  MISS %:    8.20771   MPKI: 12.7115
L1D RFO       ACCESS:    6306507  HIT:    6190125  MISS:     116382  HIT %:    98.1546  MISS %:    1.84543   MPKI: 2.32764
L1D PREFETCH  ACCESS:     352750  HIT:     165675  MISS:     187075  HIT %:    46.9667  MISS %:    53.0333   MPKI: 3.7415
L1D PREFETCH  REQUESTED:     738695  ISSUED:     738230  USEFUL:      25098  USELESS:     161982
L1D USEFUL LOAD PREFETCHES:      25098 PREFETCH ISSUED TO LOWER LEVEL:     190410  ACCURACY: 13.181
L1D TIMELY PREFETCHES:      25098 LATE PREFETCHES: 2875 DROPPED PREFETCHES: 0
L1D PREFETCHES SAME FILL-ORIGIN LEVEL: 190410 DIFFERENT FILL-ORIGIN LEVEL: 0
L1D AVERAGE MISS LATENCY: 265139 cycles
L1D RQ	ACCESS:   11105139	FORWARD:          0	MERGED:    3180912	TO_CACHE:    7775339
L1D WQ	ACCESS:    6513311	FORWARD:     149404	MERGED:      90573	TO_CACHE:    6422738
L1D PQ	ACCESS:     369373	FORWARD:          0	MERGED:          0	TO_CACHE:     368857

L1D UNIQUE REGIONS ACCESSED: 0
L1D REGIONS CONFLICTS: 0
L1D Cross Page Prefetch Requests: 0
L1D Same Page Prefetch Requests: 426605
L1D ROI Sum of L1D PQ occupancy: 10491994
L1D PREFETCHES PUSHED FROM L2C: 0
L1I TOTAL     ACCESS:    9855704  HIT:    6516197  MISS:    3339507  HIT %:     66.116  MISS %:     33.884   MPKI: 66.7901
L1I LOAD      ACCESS:    9855704  HIT:    6516197  MISS:    3339507  HIT %:     66.116  MISS %:     33.884   MPKI: 66.7901
L1I PREFETCH  REQUESTED:          0  ISSUED:          0  USEFUL:          0  USELESS:          0
L1I USEFUL LOAD PREFETCHES:          0 PREFETCH ISSUED TO LOWER LEVEL:          0  ACCURACY: -nan
L1I TIMELY PREFETCHES:          0 LATE PREFETCHES: 0 DROPPED PREFETCHES: 0
L1I PREFETCHES SAME FILL-ORIGIN LEVEL: 0 DIFFERENT FILL-ORIGIN LEVEL: 0
L1I AVERAGE MISS LATENCY: 14.8589 cycles
L1I RQ	ACCESS:   14703331	FORWARD:          0	MERGED:    4115742	TO_CACHE:   10587589

BTB TOTAL     ACCESS:    6340916  HIT:    5350576  MISS:     990340  HIT %:    84.3818  MISS %:    15.6182   MPKI: 19.8068
BTB BRANCH_DIRECT_JUMP	ACCESS:     773568  HIT:     696055  MISS:      77513
BTB BRANCH_INDIRECT	ACCESS:     108366  HIT:      73637  MISS:      34729
BTB BRANCH_CONDITIONAL	ACCESS:    2912413  HIT:    2697483  MISS:     214930
BTB BRANCH_DIRECT_CALL	ACCESS:    1062756  HIT:     948426  MISS:     114330
BTB BRANCH_INDIRECT_CALL	ACCESS:     210540  HIT:     143969  MISS:      66571
BTB BRANCH_RETURN	ACCESS:    1273273  HIT:     791006  MISS:     482267
BTB BRANCH_OTHER ACCESS:          0  HIT:          0  MISS:          0

L2C TOTAL     ACCESS:    5100573  HIT:    4814212  MISS:     286361  HIT %:    94.3857  MISS %:    5.61429   MPKI: 5.72722
L2C LOAD      ACCESS:    3972160  HIT:    3837075  MISS:     135085  HIT %:    96.5992  MISS %:    3.40079   MPKI: 2.7017
L2C DATA LOAD MPKI: 2.3052
L2C INSTRUCTION LOAD MPKI: 0.3965
L2C RFO       ACCESS:     115922  HIT:      95405  MISS:      20517  HIT %:     82.301  MISS %:     17.699   MPKI: 0.41034
L2C PREFETCH  ACCESS:     724421  HIT:     599434  MISS:     124987  HIT %:    82.7466  MISS %:    17.2534   MPKI: 2.49974
L2C DATA PREFETCH MPKI: 2.49974
L2C INSTRUCTION PREFETCH MPKI: 0
L2C WRITEBACK ACCESS:     278468  HIT:     276754  MISS:       1714  HIT %:    99.3845  MISS %:   0.615511   MPKI: 0.03428
L2C LOAD TRANSLATION ACCESS:       9602  HIT:       5544  MISS:       4058  HIT %:     57.738  MISS %:     42.262   MPKI: 0.08116
L2C PREFETCH  REQUESTED:     553715  ISSUED:     553715  USEFUL:      47977  USELESS:      77139
L2C USEFUL LOAD PREFETCHES:      47977 PREFETCH ISSUED TO LOWER LEVEL:     131646  ACCURACY: 36.4439
L2C TIMELY PREFETCHES:      47977 LATE PREFETCHES: 6658 DROPPED PREFETCHES: 0
L2C PREFETCHES SAME FILL-ORIGIN LEVEL: 91921 DIFFERENT FILL-ORIGIN LEVEL: 0
L2C AVERAGE MISS LATENCY: 310.731 cycles
L2C RQ	ACCESS:    4097735	FORWARD:          0	MERGED:          0	TO_CACHE:    4097685
L2C WQ	ACCESS:     278469	FORWARD:         50	MERGED:          0	TO_CACHE:     278469
L2C PQ	ACCESS:     744125	FORWARD:          0	MERGED:       4655	TO_CACHE:     739470

L2C Instructions Evicting Data 14216
L2C Translations Evicting Data 3860
L2C Data Evicting Data 243017
L2C Instructions Evicting Instructions 5437
L2C Translations Evicting Instructions 147
L2C Data Evicting Instructions 13945
L2C Instructions Evicting Translations 172
L2C Translations Evicting Translations 51
L2C Data Evicting Translations 3802
L2C Dense regions hint from L2: 0
PSCL5 TOTAL     ACCESS:       8945  HIT:       8945  MISS:          0  HIT %:        100  MISS %:          0   MPKI: 0
PSCL5 LOAD TRANSLATION ACCESS:       8945  HIT:       8945  MISS:          0  HIT %:        100  MISS %:          0   MPKI: 0
PSCL5 PREFETCH  REQUESTED:          0  ISSUED:          0  USEFUL:          0  USELESS:          0
PSCL5 USEFUL LOAD PREFETCHES:          0 PREFETCH ISSUED TO LOWER LEVEL:          0  ACCURACY: -nan
PSCL5 TIMELY PREFETCHES:          0 LATE PREFETCHES: 0 DROPPED PREFETCHES: 0
PSCL5 PREFETCHES SAME FILL-ORIGIN LEVEL: 0 DIFFERENT FILL-ORIGIN LEVEL: 0

PSCL4 TOTAL     ACCESS:       8529  HIT:       8493  MISS:         36  HIT %:    99.5779  MISS %:   0.422089   MPKI: 0.00072
PSCL4 LOAD TRANSLATION ACCESS:       8529  HIT:       8493  MISS:         36  HIT %:    99.5779  MISS %:   0.422089   MPKI: 0.00072
PSCL4 PREFETCH  REQUESTED:          0  ISSUED:          0  USEFUL:          0  USELESS:          0
PSCL4 USEFUL LOAD PREFETCHES:          0 PREFETCH ISSUED TO LOWER LEVEL:          0  ACCURACY: -nan
PSCL4 TIMELY PREFETCHES:          0 LATE PREFETCHES: 0 DROPPED PREFETCHES: 0
PSCL4 PREFETCHES SAME FILL-ORIGIN LEVEL: 0 DIFFERENT FILL-ORIGIN LEVEL: 0

PSCL3 TOTAL     ACCESS:       8697  HIT:       8661  MISS:         36  HIT %:    99.5861  MISS %:   0.413936   MPKI: 0.00072
PSCL3 LOAD TRANSLATION ACCESS:       8697  HIT:       8661  MISS:         36  HIT %:    99.5861  MISS %:   0.413936   MPKI: 0.00072
PSCL3 PREFETCH  REQUESTED:          0  ISSUED:          0  USEFUL:          0  USELESS:          0
PSCL3 USEFUL LOAD PREFETCHES:          0 PREFETCH ISSUED TO LOWER LEVEL:          0  ACCURACY: -nan
PSCL3 TIMELY PREFETCHES:          0 LATE PREFETCHES: 0 DROPPED PREFETCHES: 0
PSCL3 PREFETCHES SAME FILL-ORIGIN LEVEL: 0 DIFFERENT FILL-ORIGIN LEVEL: 0

PSCL2 TOTAL     ACCESS:       8945  HIT:       8355  MISS:        590  HIT %:    93.4041  MISS %:    6.59586   MPKI: 0.0118
PSCL2 LOAD TRANSLATION ACCESS:       8945  HIT:       8355  MISS:        590  HIT %:    93.4041  MISS %:    6.59586   MPKI: 0.0118
PSCL2 PREFETCH  REQUESTED:          0  ISSUED:          0  USEFUL:          0  USELESS:          0
PSCL2 USEFUL LOAD PREFETCHES:          0 PREFETCH ISSUED TO LOWER LEVEL:          0  ACCURACY: -nan
PSCL2 TIMELY PREFETCHES:          0 LATE PREFETCHES: 0 DROPPED PREFETCHES: 0
PSCL2 PREFETCHES SAME FILL-ORIGIN LEVEL: 0 DIFFERENT FILL-ORIGIN LEVEL: 0

LLC TOTAL     ACCESS:     383924  HIT:     154015  MISS:     229909  HIT %:     40.116  MISS %:     59.884   MPKI: 4.59818
LLC LOAD      ACCESS:     128842  HIT:      26919  MISS:     101923  HIT %:     20.893  MISS %:     79.107   MPKI: 2.03846
LLC RFO       ACCESS:      20102  HIT:       6702  MISS:      13400  HIT %:      33.34  MISS %:      66.66   MPKI: 0.268
LLC PREFETCH  ACCESS:     131645  HIT:      19829  MISS:     111816  HIT %:    15.0625  MISS %:    84.9375   MPKI: 2.23632
LLC WRITEBACK ACCESS:      99277  HIT:      98452  MISS:        825  HIT %:     99.169  MISS %:   0.831008   MPKI: 0.0165
LLC LOAD TRANSLATION ACCESS:       4058  HIT:       2113  MISS:       1945  HIT %:      52.07  MISS %:      47.93   MPKI: 0.0389
LLC PREFETCH  REQUESTED:          0  ISSUED:          0  USEFUL:       3426  USELESS:     106721
LLC USEFUL LOAD PREFETCHES:       3426 PREFETCH ISSUED TO LOWER LEVEL:     111817  ACCURACY: 3.06393
LLC TIMELY PREFETCHES:       3426 LATE PREFETCHES: 0 DROPPED PREFETCHES: 0
LLC PREFETCHES SAME FILL-ORIGIN LEVEL: 0 DIFFERENT FILL-ORIGIN LEVEL: 0
LLC AVERAGE MISS LATENCY: 353.596 cycles
LLC RQ	ACCESS:     153002	FORWARD:          0	MERGED:          0	TO_CACHE:     153002
LLC WQ	ACCESS:      99278	FORWARD:          0	MERGED:          0	TO_CACHE:      99278
LLC PQ	ACCESS:     131646	FORWARD:          0	MERGED:          0	TO_CACHE:     131646

LLC Dense regions hint to LLC: 0

RAW hits: 975750
Loads Generated: 12080891
Loads sent to L1D: 11105139
Stores Generated: 6513315
Stores sent to L1D: 6513311
Major fault: 0 Minor fault: 5429
Allocated PAGES: 5429

stream: 
stream:times selected: 451071
stream:pref_filled: 121222
stream:pref_useful: 14742
stream:pref_late: 803
stream:misses: 11901
stream:misses_by_poll: 0

CS: 
CS:times selected: 20059
CS:pref_filled: 8769
CS:pref_useful: 3473
CS:pref_late: 1374
CS:misses: 747
CS:misses_by_poll: 17

CPLX: 
CPLX:times selected: 437215
CPLX:pref_filled: 81916
CPLX:pref_useful: 8875
CPLX:pref_late: 603
CPLX:misses: 54234
CPLX:misses_by_poll: 26

NL_L1: 
NL:times selected: 2216
NL:pref_filled: 1619
NL:pref_useful: 10
NL:pref_late: 2
NL:misses: 250
NL:misses_by_poll: 0

total selections: 910561
total_filled: 187075
total_useful: 25098
total_late: 3294
total_polluted: 43
total_misses_after_warmup: 667262
conflicts: 3230977
Degree Incremented Times: 0
Degree Decremented Times: 144761

L1 IP Table Write Accesses: 4317436
L1 IP Table Read Accesses: 1086459
L1 RST Write Accesses: 394047
L1 RST Read Accesses: 788094
L1 CSPT Write Accesses: 394047
L1 CSPT Read Accesses: 777551
L1 RR Filter Tag Write Accesses: 369838
L1 RR Filter Tag Read Accesses: 17551101
L1 IP Table Tag Write Accesses: 7775339
L1 IP Table Tag Read Accesses: 7775339
L1 RST Tag Write Accesses: 0
L1 RST Tag Read Accesses: 3969551
L1 RR Filter Write Accesses: 0
L1 RR Filter Read Accesses: 612020
test: 204622
L2 IP Table Read Accesses: 1076299
L2 IP Table Write Accesses: 1465105
L2 IP Table Tag Read Accesses: 817353
L2 IP Table Tag Write Accesses: 817353

DRAM Statistics
 CHANNEL 0
 RQ ROW_BUFFER_HIT:      56024  ROW_BUFFER_MISS:     173057
 DBUS_CONGESTED:     217493
 WQ ROW_BUFFER_HIT:      21540  ROW_BUFFER_MISS:      64222  FULL:          0

 AVG_CONGESTED_CYCLE: 48
 All warmup complete: 2
Channel 0 Bank busy for read cycles: 0
Channel 0 Bank busy for write cycles: 0
Channel 0
Rank 0
0banks busy for read cycles: 83028944
0banks busy for write cycles: 19506
1banks busy for read cycles: 7437964
1banks busy for write cycles: 2643485
2banks busy for read cycles: 5253316
2banks busy for write cycles: 1340741
3banks busy for read cycles: 2386200
3banks busy for write cycles: 906688
4banks busy for read cycles: 1229704
4banks busy for write cycles: 693774
5banks busy for read cycles: 790408
5banks busy for write cycles: 529525
6banks busy for read cycles: 572219
6banks busy for write cycles: 537810
7banks busy for read cycles: 718557
7banks busy for write cycles: 790043
8banks busy for read cycles: 613116
8banks busy for write cycles: 1265398

CPU 0 Branch Prediction Accuracy: 93.023% MPKI: 13.5823 Average ROB Occupancy at Mispredict: 21.9572
Branch types
NOT_BRANCH: 40266107 80.5322%
BRANCH_DIRECT_JUMP: 773568 1.54714%
BRANCH_INDIRECT: 108366 0.216732%
BRANCH_CONDITIONAL: 6305104 12.6102%
BRANCH_DIRECT_CALL: 1062756 2.12551%
BRANCH_INDIRECT_CALL: 210540 0.42108%
BRANCH_RETURN: 1273273 2.54655%
BRANCH_OTHER: 0 0%

@sumon_overall_L1D     25098      2875    161982    187075    738230    738695
@Sumon_Early_by_class_L1D     12422      3263      7808         0
@Sumon_Late_by_class_L1D       612      1357       406         0

@Sumon_Early_by_cycle_L1D      5787      4386      3923      1700      2369      3024      1323       620       299      1133       423       111
@Sumon_Late_by_cycle_L1D      1998       624        83        18        36       110         6         0         0         0         0         0
@Sumon_Early_stream_L1D      3418      3341      3224       494        66       185       505        31        68       720       306        64
@Sumon_Early_CS_L1D       360       180       198       297       179      1362       455       187        28        13         4         0
@Sumon_Early_CPLX_L1D      1979       491       222       141      2120      1469       232       402       202       399       111        40
@Sumon_Late_stream_L1D       397        55        30        15        25        86         4         0         0         0         0         0
@Sumon_Late_CS_L1D       732       550        44         3         9        17         2         0         0         0         0         0
@Sumon_Late_CPLX_L1D       370        18         9         0         2         7         0         0         0         0         0         0
@sumon_overall_L2C     47977      6658     77139    124987    553715    553715
@Sumon_Early_by_class_L2C      1197        37      1112         0
@Sumon_Late_by_class_L2C         0         0         0         0

@Sumon_Early_by_cycle_L2C      3542      5060      4335      2481      2342      6403      1853       515      1443      5315     10574      4114
@Sumon_Late_by_cycle_L2C      3632      2162       859         5         0         0         0         0         0         0         0         0
@Sumon_Early_stream_L2C         0         0         0         0         0         0         0         0         0         0       696       501
@Sumon_Early_CS_L2C         0         0         0         0         0         0         0         0         0         0         1        36
@Sumon_Early_CPLX_L2C         0         0         0         0         0         0         0         0         0        22       217       873
@Sumon_Late_stream_L2C         0         0         0         0         0         0         0         0         0         0         0         0
@Sumon_Late_CS_L2C         0         0         0         0         0         0         0         0         0         0         0         0
@Sumon_Late_CPLX_L2C         0         0         0         0         0         0         0         0         0         0         0         0
DRAM PAGES: 1048576
Allocated PAGES: 5429
