
*** ChampSim Multicore Out-of-Order Simulator ***

Warmup Instructions: 10000000
Simulation Instructions: 50000000
Number of CPUs: 1
LLC sets: 2048
LLC ways: 16
Off-chip DRAM Size: 4096 MB Channels: 1 Width: 64-bit Data Rate: 533 MT/s
CPU 0 runs traces/clientserver/server_025.champsimtrace.xz
.xz
CPU 0 Bimodal branch predictor
BTB has LRU replacement policy
ITLB has LRU replacement policy
DTLB has LRU replacement policy
STLB has LRU replacement policy
L1I has LRU replacement policy
IP Table Entries: 256
L1D has LRU replacement policy
IP_Table L2 entries: 256
L2C has LRU replacement policy
LLC has LRU replacement policy
Heartbeat CPU 0 instructions: 10000000 cycles: 2890303 heartbeat IPC: 3.45984 cumulative IPC: 3.45984 (Simulation time: 0 hr 9 min 5 sec) 

Warmup complete CPU 0 instructions: 10000004 cycles: 2890304 (Simulation time: 0 hr 9 min 5 sec) 

Heartbeat CPU 0 instructions: 20000002 cycles: 28400295 heartbeat IPC: 0.392003 cumulative IPC: 0.392003 (Simulation time: 0 hr 17 min 48 sec) 
Heartbeat CPU 0 instructions: 30000001 cycles: 53654168 heartbeat IPC: 0.395979 cumulative IPC: 0.393981 (Simulation time: 0 hr 26 min 25 sec) 
Heartbeat CPU 0 instructions: 40000001 cycles: 79091487 heartbeat IPC: 0.393123 cumulative IPC: 0.393695 (Simulation time: 0 hr 35 min 12 sec) 
Heartbeat CPU 0 instructions: 50000002 cycles: 104468609 heartbeat IPC: 0.394056 cumulative IPC: 0.393785 (Simulation time: 0 hr 43 min 53 sec) 
Heartbeat CPU 0 instructions: 60000000 cycles: 129776140 heartbeat IPC: 0.395139 cumulative IPC: 0.394055 (Simulation time: 0 hr 51 min 25 sec) 
Finished CPU 0 instructions: 50000000 cycles: 126885866 cumulative IPC: 0.394055 (Simulation time: 0 hr 51 min 25 sec) 

ChampSim completed all CPUs

Region of Interest Statistics

CPU 0 cumulative IPC: 0.394055 instructions: 50000000 cycles: 126885866
ITLB TOTAL     ACCESS:    8423878  HIT:    7928924  MISS:     494954  HIT %:    94.1244  MISS %:    5.87561   MPKI: 9.89908
ITLB LOAD TRANSLATION ACCESS:    8423878  HIT:    7928924  MISS:     494954  HIT %:    94.1244  MISS %:    5.87561   MPKI: 9.89908
ITLB PREFETCH  REQUESTED:          0  ISSUED:          0  USEFUL:          0  USELESS:          0
ITLB USEFUL LOAD PREFETCHES:          0 PREFETCH ISSUED TO LOWER LEVEL:          0  ACCURACY: -nan
ITLB TIMELY PREFETCHES:          0 LATE PREFETCHES: 0 DROPPED PREFETCHES: 0
ITLB PREFETCHES SAME FILL-ORIGIN LEVEL: 0 DIFFERENT FILL-ORIGIN LEVEL: 0
ITLB AVERAGE MISS LATENCY: 9.07926 cycles
ITLB RQ	ACCESS:   10069580	FORWARD:          0	MERGED:    1520606	TO_CACHE:    8548974

DTLB TOTAL     ACCESS:   12653761  HIT:   12179145  MISS:     474616  HIT %:    96.2492  MISS %:    3.75079   MPKI: 9.49232
DTLB LOAD TRANSLATION ACCESS:   12653761  HIT:   12179145  MISS:     474616  HIT %:    96.2492  MISS %:    3.75079   MPKI: 9.49232
DTLB PREFETCH  REQUESTED:          0  ISSUED:          0  USEFUL:          0  USELESS:          0
DTLB USEFUL LOAD PREFETCHES:          0 PREFETCH ISSUED TO LOWER LEVEL:          0  ACCURACY: -nan
DTLB TIMELY PREFETCHES:          0 LATE PREFETCHES: 0 DROPPED PREFETCHES: 0
DTLB PREFETCHES SAME FILL-ORIGIN LEVEL: 0 DIFFERENT FILL-ORIGIN LEVEL: 0
DTLB AVERAGE MISS LATENCY: 9.42423 cycles
DTLB RQ	ACCESS:   15789996	FORWARD:          0	MERGED:    3117576	TO_CACHE:   12672420

STLB TOTAL     ACCESS:    1381547  HIT:    1379086  MISS:       2461  HIT %:    99.8219  MISS %:   0.178134   MPKI: 0.04922
STLB LOAD TRANSLATION ACCESS:     969570  HIT:     967109  MISS:       2461  HIT %:    99.7462  MISS %:   0.253824   MPKI: 0.04922
STLB TRANSLATION FROM L1D PREFETCHER ACCESS:     411977  HIT:     411977  MISS:          0  HIT %:        100  MISS %:          0   MPKI: 0
STLB PREFETCH  REQUESTED:          0  ISSUED:          0  USEFUL:          0  USELESS:          0
STLB USEFUL LOAD PREFETCHES:          0 PREFETCH ISSUED TO LOWER LEVEL:          0  ACCURACY: -nan
STLB TIMELY PREFETCHES:          0 LATE PREFETCHES: 0 DROPPED PREFETCHES: 0
STLB PREFETCHES SAME FILL-ORIGIN LEVEL: 0 DIFFERENT FILL-ORIGIN LEVEL: 0
STLB AVERAGE MISS LATENCY: 93.9439 cycles
STLB RQ	ACCESS:    1492800	FORWARD:          0	MERGED:     111253	TO_CACHE:    1381547

STLB Hit, L1D data hit: 0
STLB Hit, L2C data hit: 0
STLB Hit, LLC data hit: 0
STLB Hit, LLC data miss: 0
STLB STLB hints to L2: 0
L1D TOTAL     ACCESS:   15801538  HIT:   14635796  MISS:    1165742  HIT %:    92.6226  MISS %:     7.3774   MPKI: 23.3148
L1D LOAD      ACCESS:    8854459  HIT:    8128350  MISS:     726109  HIT %:    91.7995  MISS %:    8.20049   MPKI: 14.5222
L1D RFO       ACCESS:    6458780  HIT:    6164642  MISS:     294138  HIT %:    95.4459  MISS %:    4.55408   MPKI: 5.88276
L1D PREFETCH  ACCESS:     488299  HIT:     342804  MISS:     145495  HIT %:    70.2037  MISS %:    29.7963   MPKI: 2.9099
L1D PREFETCH  REQUESTED:    1046716  ISSUED:    1046657  USEFUL:      40925  USELESS:     104586
L1D USEFUL LOAD PREFETCHES:      40925 PREFETCH ISSUED TO LOWER LEVEL:     166567  ACCURACY: 24.5697
L1D TIMELY PREFETCHES:      40925 LATE PREFETCHES: 20674 DROPPED PREFETCHES: 0
L1D PREFETCHES SAME FILL-ORIGIN LEVEL: 166567 DIFFERENT FILL-ORIGIN LEVEL: 0
L1D AVERAGE MISS LATENCY: 1.1838e+06 cycles
L1D RQ	ACCESS:   12116515	FORWARD:          0	MERGED:    3116510	TO_CACHE:    8884168
L1D WQ	ACCESS:    6952503	FORWARD:     116034	MERGED:      46675	TO_CACHE:    6905828
L1D PQ	ACCESS:     523427	FORWARD:          0	MERGED:          0	TO_CACHE:     523230

L1D UNIQUE REGIONS ACCESSED: 0
L1D REGIONS CONFLICTS: 0
L1D Cross Page Prefetch Requests: 0
L1D Same Page Prefetch Requests: 621104
L1D ROI Sum of L1D PQ occupancy: 7571694
L1D PREFETCHES PUSHED FROM L2C: 0
L1I TOTAL     ACCESS:    9600704  HIT:    6831903  MISS:    2768801  HIT %:    71.1604  MISS %:    28.8396   MPKI: 55.376
L1I LOAD      ACCESS:    9600704  HIT:    6831903  MISS:    2768801  HIT %:    71.1604  MISS %:    28.8396   MPKI: 55.376
L1I PREFETCH  REQUESTED:          0  ISSUED:          0  USEFUL:          0  USELESS:          0
L1I USEFUL LOAD PREFETCHES:          0 PREFETCH ISSUED TO LOWER LEVEL:          0  ACCURACY: -nan
L1I TIMELY PREFETCHES:          0 LATE PREFETCHES: 0 DROPPED PREFETCHES: 0
L1I PREFETCHES SAME FILL-ORIGIN LEVEL: 0 DIFFERENT FILL-ORIGIN LEVEL: 0
L1I AVERAGE MISS LATENCY: 19.1143 cycles
L1I RQ	ACCESS:   13833723	FORWARD:          0	MERGED:    3764143	TO_CACHE:   10069580

BTB TOTAL     ACCESS:    5985589  HIT:    3971316  MISS:    2014273  HIT %:     66.348  MISS %:     33.652   MPKI: 40.2855
BTB BRANCH_DIRECT_JUMP	ACCESS:     527165  HIT:     349603  MISS:     177562
BTB BRANCH_INDIRECT	ACCESS:     205601  HIT:     168171  MISS:      37430
BTB BRANCH_CONDITIONAL	ACCESS:    3024529  HIT:    2460439  MISS:     564090
BTB BRANCH_DIRECT_CALL	ACCESS:     939434  HIT:     530321  MISS:     409113
BTB BRANCH_INDIRECT_CALL	ACCESS:     174709  HIT:      95732  MISS:      78977
BTB BRANCH_RETURN	ACCESS:    1114151  HIT:     367050  MISS:     747101
BTB BRANCH_OTHER ACCESS:          0  HIT:          0  MISS:          0

L2C TOTAL     ACCESS:    5067916  HIT:    4241187  MISS:     826729  HIT %:     83.687  MISS %:     16.313   MPKI: 16.5346
L2C LOAD      ACCESS:    3474225  HIT:    2897814  MISS:     576411  HIT %:    83.4089  MISS %:    16.5911   MPKI: 11.5282
L2C DATA LOAD MPKI: 2.341
L2C INSTRUCTION LOAD MPKI: 9.18722
L2C RFO       ACCESS:     293730  HIT:     202133  MISS:      91597  HIT %:    68.8159  MISS %:    31.1841   MPKI: 1.83194
L2C PREFETCH  ACCESS:     764630  HIT:     617137  MISS:     147493  HIT %:    80.7105  MISS %:    19.2895   MPKI: 2.94986
L2C DATA PREFETCH MPKI: 2.94986
L2C INSTRUCTION PREFETCH MPKI: 0
L2C WRITEBACK ACCESS:     532698  HIT:     523456  MISS:       9242  HIT %:    98.2651  MISS %:    1.73494   MPKI: 0.18484
L2C LOAD TRANSLATION ACCESS:       2633  HIT:        647  MISS:       1986  HIT %:    24.5727  MISS %:    75.4273   MPKI: 0.03972
L2C PREFETCH  REQUESTED:     613361  ISSUED:     613361  USEFUL:      24258  USELESS:     123246
L2C USEFUL LOAD PREFETCHES:      24258 PREFETCH ISSUED TO LOWER LEVEL:     149960  ACCURACY: 16.1763
L2C TIMELY PREFETCHES:      24258 LATE PREFETCHES: 2467 DROPPED PREFETCHES: 0
L2C PREFETCHES SAME FILL-ORIGIN LEVEL: 96539 DIFFERENT FILL-ORIGIN LEVEL: 0
L2C AVERAGE MISS LATENCY: 43.9631 cycles
L2C RQ	ACCESS:    3770608	FORWARD:          0	MERGED:          0	TO_CACHE:    3770588
L2C WQ	ACCESS:     532698	FORWARD:         20	MERGED:          0	TO_CACHE:     532698
L2C PQ	ACCESS:     779928	FORWARD:          0	MERGED:       5730	TO_CACHE:     774198

L2C Instructions Evicting Data 190432
L2C Translations Evicting Data 1232
L2C Data Evicting Data 170232
L2C Instructions Evicting Instructions 268154
L2C Translations Evicting Instructions 737
L2C Data Evicting Instructions 184693
L2C Instructions Evicting Translations 773
L2C Translations Evicting Translations 17
L2C Data Evicting Translations 1192
L2C Dense regions hint from L2: 0
PSCL5 TOTAL     ACCESS:       2461  HIT:       2461  MISS:          0  HIT %:        100  MISS %:          0   MPKI: 0
PSCL5 LOAD TRANSLATION ACCESS:       2461  HIT:       2461  MISS:          0  HIT %:        100  MISS %:          0   MPKI: 0
PSCL5 PREFETCH  REQUESTED:          0  ISSUED:          0  USEFUL:          0  USELESS:          0
PSCL5 USEFUL LOAD PREFETCHES:          0 PREFETCH ISSUED TO LOWER LEVEL:          0  ACCURACY: -nan
PSCL5 TIMELY PREFETCHES:          0 LATE PREFETCHES: 0 DROPPED PREFETCHES: 0
PSCL5 PREFETCHES SAME FILL-ORIGIN LEVEL: 0 DIFFERENT FILL-ORIGIN LEVEL: 0

PSCL4 TOTAL     ACCESS:       2291  HIT:       2277  MISS:         14  HIT %:    99.3889  MISS %:   0.611087   MPKI: 0.00028
PSCL4 LOAD TRANSLATION ACCESS:       2291  HIT:       2277  MISS:         14  HIT %:    99.3889  MISS %:   0.611087   MPKI: 0.00028
PSCL4 PREFETCH  REQUESTED:          0  ISSUED:          0  USEFUL:          0  USELESS:          0
PSCL4 USEFUL LOAD PREFETCHES:          0 PREFETCH ISSUED TO LOWER LEVEL:          0  ACCURACY: -nan
PSCL4 TIMELY PREFETCHES:          0 LATE PREFETCHES: 0 DROPPED PREFETCHES: 0
PSCL4 PREFETCHES SAME FILL-ORIGIN LEVEL: 0 DIFFERENT FILL-ORIGIN LEVEL: 0

PSCL3 TOTAL     ACCESS:       2388  HIT:       2360  MISS:         28  HIT %:    98.8275  MISS %:    1.17253   MPKI: 0.00056
PSCL3 LOAD TRANSLATION ACCESS:       2388  HIT:       2360  MISS:         28  HIT %:    98.8275  MISS %:    1.17253   MPKI: 0.00056
PSCL3 PREFETCH  REQUESTED:          0  ISSUED:          0  USEFUL:          0  USELESS:          0
PSCL3 USEFUL LOAD PREFETCHES:          0 PREFETCH ISSUED TO LOWER LEVEL:          0  ACCURACY: -nan
PSCL3 TIMELY PREFETCHES:          0 LATE PREFETCHES: 0 DROPPED PREFETCHES: 0
PSCL3 PREFETCHES SAME FILL-ORIGIN LEVEL: 0 DIFFERENT FILL-ORIGIN LEVEL: 0

PSCL2 TOTAL     ACCESS:       2461  HIT:       2318  MISS:        143  HIT %:    94.1894  MISS %:    5.81065   MPKI: 0.00286
PSCL2 LOAD TRANSLATION ACCESS:       2461  HIT:       2318  MISS:        143  HIT %:    94.1894  MISS %:    5.81065   MPKI: 0.00286
PSCL2 PREFETCH  REQUESTED:          0  ISSUED:          0  USEFUL:          0  USELESS:          0
PSCL2 USEFUL LOAD PREFETCHES:          0 PREFETCH ISSUED TO LOWER LEVEL:          0  ACCURACY: -nan
PSCL2 TIMELY PREFETCHES:          0 LATE PREFETCHES: 0 DROPPED PREFETCHES: 0
PSCL2 PREFETCHES SAME FILL-ORIGIN LEVEL: 0 DIFFERENT FILL-ORIGIN LEVEL: 0

LLC TOTAL     ACCESS:     960590  HIT:     930517  MISS:      30073  HIT %:    96.8693  MISS %:    3.13068   MPKI: 0.60146
LLC LOAD      ACCESS:     574085  HIT:     569711  MISS:       4374  HIT %:    99.2381  MISS %:   0.761908   MPKI: 0.08748
LLC RFO       ACCESS:      91454  HIT:      77482  MISS:      13972  HIT %:    84.7224  MISS %:    15.2776   MPKI: 0.27944
LLC PREFETCH  ACCESS:     149960  HIT:     138456  MISS:      11504  HIT %:    92.3286  MISS %:    7.67138   MPKI: 0.23008
LLC WRITEBACK ACCESS:     143105  HIT:     143062  MISS:         43  HIT %:      99.97  MISS %:  0.0300479   MPKI: 0.00086
LLC LOAD TRANSLATION ACCESS:       1986  HIT:       1806  MISS:        180  HIT %:    90.9366  MISS %:    9.06344   MPKI: 0.0036
LLC PREFETCH  REQUESTED:          0  ISSUED:          0  USEFUL:        892  USELESS:       6122
LLC USEFUL LOAD PREFETCHES:        892 PREFETCH ISSUED TO LOWER LEVEL:      11504  ACCURACY: 7.75382
LLC TIMELY PREFETCHES:        892 LATE PREFETCHES: 0 DROPPED PREFETCHES: 0
LLC PREFETCHES SAME FILL-ORIGIN LEVEL: 0 DIFFERENT FILL-ORIGIN LEVEL: 0
LLC AVERAGE MISS LATENCY: 394.826 cycles
LLC RQ	ACCESS:     667527	FORWARD:          0	MERGED:          0	TO_CACHE:     667525
LLC WQ	ACCESS:     143105	FORWARD:          2	MERGED:          0	TO_CACHE:     143105
LLC PQ	ACCESS:     149960	FORWARD:          0	MERGED:          0	TO_CACHE:     149960

LLC Dense regions hint to LLC: 0

RAW hits: 524838
Loads Generated: 12641353
Loads sent to L1D: 12116515
Stores Generated: 6952498
Stores sent to L1D: 6952503
Major fault: 0 Minor fault: 2266
Allocated PAGES: 2266

stream: 
stream:times selected: 1001460
stream:pref_filled: 102900
stream:pref_useful: 18942
stream:pref_late: 15341
stream:misses: 4874
stream:misses_by_poll: 0

CS: 
CS:times selected: 124837
CS:pref_filled: 45676
CS:pref_useful: 26409
CS:pref_late: 4418
CS:misses: 9891
CS:misses_by_poll: 5

CPLX: 
CPLX:times selected: 874292
CPLX:pref_filled: 21559
CPLX:pref_useful: 3783
CPLX:pref_late: 1102
CPLX:misses: 63445
CPLX:misses_by_poll: 1

NL_L1: 
NL:times selected: 5782
NL:pref_filled: 401
NL:pref_useful: 71
NL:pref_late: 20
NL:misses: 100
NL:misses_by_poll: 0

total selections: 2006371
total_filled: 145495
total_useful: 40925
total_late: 22059
total_polluted: 6
total_misses_after_warmup: 755820
conflicts: 3283701
Degree Incremented Times: 0
Degree Decremented Times: 143247

L1 IP Table Write Accesses: 5303667
L1 IP Table Read Accesses: 2019966
L1 RST Write Accesses: 844882
L1 RST Read Accesses: 1689764
L1 CSPT Write Accesses: 844882
L1 CSPT Read Accesses: 1582318
L1 RR Filter Tag Write Accesses: 523486
L1 RR Filter Tag Read Accesses: 37293967
L1 IP Table Tag Write Accesses: 8884170
L1 IP Table Tag Read Accesses: 8884170
L1 RST Tag Write Accesses: 0
L1 RST Tag Read Accesses: 7618230
L1 RR Filter Write Accesses: 0
L1 RR Filter Read Accesses: 1376604
test: 144253
L2 IP Table Read Accesses: 1113366
L2 IP Table Write Accesses: 1560038
L2 IP Table Tag Read Accesses: 866647
L2 IP Table Tag Write Accesses: 866647

DRAM Statistics
 CHANNEL 0
 RQ ROW_BUFFER_HIT:      16158  ROW_BUFFER_MISS:      13866
 DBUS_CONGESTED:      25552
 WQ ROW_BUFFER_HIT:        544  ROW_BUFFER_MISS:       4967  FULL:          0

 AVG_CONGESTED_CYCLE: 51
 All warmup complete: 2
Channel 0 Bank busy for read cycles: 0
Channel 0 Bank busy for write cycles: 0
Channel 0
Rank 0
0banks busy for read cycles: 124153375
0banks busy for write cycles: 1767
1banks busy for read cycles: 732117
1banks busy for write cycles: 222630
2banks busy for read cycles: 472168
2banks busy for write cycles: 88268
3banks busy for read cycles: 166612
3banks busy for write cycles: 48897
4banks busy for read cycles: 108124
4banks busy for write cycles: 35978
5banks busy for read cycles: 71094
5banks busy for write cycles: 29666
6banks busy for read cycles: 55662
6banks busy for write cycles: 31003
7banks busy for read cycles: 74365
7banks busy for write cycles: 25932
8banks busy for read cycles: 511779
8banks busy for write cycles: 56430

CPU 0 Branch Prediction Accuracy: 91.5878% MPKI: 15.3805 Average ROB Occupancy at Mispredict: 17.2148
Branch types
NOT_BRANCH: 40857901 81.7158%
BRANCH_DIRECT_JUMP: 527165 1.05433%
BRANCH_INDIRECT: 205601 0.411202%
BRANCH_CONDITIONAL: 6180687 12.3614%
BRANCH_DIRECT_CALL: 939434 1.87887%
BRANCH_INDIRECT_CALL: 174709 0.349418%
BRANCH_RETURN: 1114151 2.2283%
BRANCH_OTHER: 0 0%

@sumon_overall_L1D     40925     20674    104586    145495   1046657   1046716
@Sumon_Early_by_class_L1D     15314     21742      2952        16
@Sumon_Late_by_class_L1D     14558      4108       878        16

@Sumon_Early_by_cycle_L1D     26892      2618      1842      1036       262      1183       943      1756      1220      2194       809       170
@Sumon_Late_by_cycle_L1D     19779       602       262        13        15         3         0         0         0         0         0         0
@Sumon_Early_stream_L1D      5220      1671      1255       869       169       988       710      1316       841      1439       676       160
@Sumon_Early_CS_L1D     20136       700       441        87        28        39         4       270         7        28         2         0
@Sumon_Early_CPLX_L1D      1360       166       101        62        63       145       220       151       212       336       126        10
@Sumon_Late_stream_L1D     14127       330       101         0         0         0         0         0         0         0         0         0
@Sumon_Late_CS_L1D      3663       256       158        13        15         3         0         0         0         0         0         0
@Sumon_Late_CPLX_L1D       863        12         3         0         0         0         0         0         0         0         0         0
@sumon_overall_L2C     24258      2467    123246    147493    613361    613361
@Sumon_Early_by_class_L2C      1902       209       399         0
@Sumon_Late_by_class_L2C         0         0         0         0

@Sumon_Early_by_cycle_L2C      4083      3081      2258      1358       387      2400      1995      1395       836      1180       966      4319
@Sumon_Late_by_cycle_L2C      2170       296         1         0         0         0         0         0         0         0         0         0
@Sumon_Early_stream_L2C         0         0         0         0         0         0         0         0         0         6       281      1615
@Sumon_Early_CS_L2C         0         0         0         0         0         0         0         0         0         0         3       206
@Sumon_Early_CPLX_L2C         0         0         0         0         0         0         0         0         0         0        25       374
@Sumon_Late_stream_L2C         0         0         0         0         0         0         0         0         0         0         0         0
@Sumon_Late_CS_L2C         0         0         0         0         0         0         0         0         0         0         0         0
@Sumon_Late_CPLX_L2C         0         0         0         0         0         0         0         0         0         0         0         0
DRAM PAGES: 1048576
Allocated PAGES: 2266
