
*** ChampSim Multicore Out-of-Order Simulator ***

Warmup Instructions: 10000000
Simulation Instructions: 50000000
Number of CPUs: 1
LLC sets: 2048
LLC ways: 16
Off-chip DRAM Size: 4096 MB Channels: 1 Width: 64-bit Data Rate: 533 MT/s
CPU 0 runs traces/clientserver/server_033.champsimtrace.xz
.xz
CPU 0 Bimodal branch predictor
BTB has LRU replacement policy
ITLB has LRU replacement policy
DTLB has LRU replacement policy
STLB has LRU replacement policy
L1I has LRU replacement policy
IP Table Entries: 256
L1D has LRU replacement policy
IP_Table L2 entries: 256
L2C has LRU replacement policy
LLC has LRU replacement policy
Heartbeat CPU 0 instructions: 10000001 cycles: 2769691 heartbeat IPC: 3.61051 cumulative IPC: 3.61051 (Simulation time: 0 hr 8 min 33 sec) 

Warmup complete CPU 0 instructions: 10000001 cycles: 2769691 (Simulation time: 0 hr 8 min 33 sec) 

Heartbeat CPU 0 instructions: 20000003 cycles: 23058222 heartbeat IPC: 0.492889 cumulative IPC: 0.492889 (Simulation time: 0 hr 16 min 39 sec) 
Heartbeat CPU 0 instructions: 30000000 cycles: 44089949 heartbeat IPC: 0.475472 cumulative IPC: 0.484024 (Simulation time: 0 hr 25 min 4 sec) 
Heartbeat CPU 0 instructions: 40000001 cycles: 64311134 heartbeat IPC: 0.494531 cumulative IPC: 0.487476 (Simulation time: 0 hr 33 min 14 sec) 
Heartbeat CPU 0 instructions: 50000000 cycles: 84649545 heartbeat IPC: 0.49168 cumulative IPC: 0.488521 (Simulation time: 0 hr 41 min 28 sec) 
Heartbeat CPU 0 instructions: 60000003 cycles: 104893046 heartbeat IPC: 0.493986 cumulative IPC: 0.489604 (Simulation time: 0 hr 49 min 16 sec) 
Finished CPU 0 instructions: 50000002 cycles: 102123355 cumulative IPC: 0.489604 (Simulation time: 0 hr 49 min 16 sec) 

ChampSim completed all CPUs

Region of Interest Statistics

CPU 0 cumulative IPC: 0.489604 instructions: 50000002 cycles: 102123355
ITLB TOTAL     ACCESS:    8927632  HIT:    8425125  MISS:     502507  HIT %:    94.3713  MISS %:    5.62867   MPKI: 10.0501
ITLB LOAD TRANSLATION ACCESS:    8927632  HIT:    8425125  MISS:     502507  HIT %:    94.3713  MISS %:    5.62867   MPKI: 10.0501
ITLB PREFETCH  REQUESTED:          0  ISSUED:          0  USEFUL:          0  USELESS:          0
ITLB USEFUL LOAD PREFETCHES:          0 PREFETCH ISSUED TO LOWER LEVEL:          0  ACCURACY: -nan
ITLB TIMELY PREFETCHES:          0 LATE PREFETCHES: 0 DROPPED PREFETCHES: 0
ITLB PREFETCHES SAME FILL-ORIGIN LEVEL: 0 DIFFERENT FILL-ORIGIN LEVEL: 0
ITLB AVERAGE MISS LATENCY: 9.06214 cycles
ITLB RQ	ACCESS:   10599617	FORWARD:          0	MERGED:    1547988	TO_CACHE:    9051629

DTLB TOTAL     ACCESS:   10738634  HIT:   10293634  MISS:     445000  HIT %:    95.8561  MISS %:    4.14392   MPKI: 8.9
DTLB LOAD TRANSLATION ACCESS:   10738634  HIT:   10293634  MISS:     445000  HIT %:    95.8561  MISS %:    4.14392   MPKI: 8.9
DTLB PREFETCH  REQUESTED:          0  ISSUED:          0  USEFUL:          0  USELESS:          0
DTLB USEFUL LOAD PREFETCHES:          0 PREFETCH ISSUED TO LOWER LEVEL:          0  ACCURACY: -nan
DTLB TIMELY PREFETCHES:          0 LATE PREFETCHES: 0 DROPPED PREFETCHES: 0
DTLB PREFETCHES SAME FILL-ORIGIN LEVEL: 0 DIFFERENT FILL-ORIGIN LEVEL: 0
DTLB AVERAGE MISS LATENCY: 9.72531 cycles
DTLB RQ	ACCESS:   14286336	FORWARD:          0	MERGED:    3534175	TO_CACHE:   10752161

STLB TOTAL     ACCESS:    1197204  HIT:    1192701  MISS:       4503  HIT %:    99.6239  MISS %:   0.376126   MPKI: 0.09006
STLB LOAD TRANSLATION ACCESS:     947507  HIT:     943004  MISS:       4503  HIT %:    99.5248  MISS %:   0.475247   MPKI: 0.09006
STLB TRANSLATION FROM L1D PREFETCHER ACCESS:     249697  HIT:     249697  MISS:          0  HIT %:        100  MISS %:          0   MPKI: 0
STLB PREFETCH  REQUESTED:          0  ISSUED:          0  USEFUL:          0  USELESS:          0
STLB USEFUL LOAD PREFETCHES:          0 PREFETCH ISSUED TO LOWER LEVEL:          0  ACCURACY: -nan
STLB TIMELY PREFETCHES:          0 LATE PREFETCHES: 0 DROPPED PREFETCHES: 0
STLB PREFETCHES SAME FILL-ORIGIN LEVEL: 0 DIFFERENT FILL-ORIGIN LEVEL: 0
STLB AVERAGE MISS LATENCY: 74.606 cycles
STLB RQ	ACCESS:    1314299	FORWARD:          0	MERGED:     117095	TO_CACHE:    1197204

STLB Hit, L1D data hit: 0
STLB Hit, L2C data hit: 0
STLB Hit, LLC data hit: 0
STLB Hit, LLC data miss: 0
STLB STLB hints to L2: 0
L1D TOTAL     ACCESS:   14499240  HIT:   13583785  MISS:     915455  HIT %:    93.6862  MISS %:    6.31381   MPKI: 18.3091
L1D LOAD      ACCESS:    7838009  HIT:    7218701  MISS:     619308  HIT %:    92.0987  MISS %:    7.90134   MPKI: 12.3862
L1D RFO       ACCESS:    6310092  HIT:    6190713  MISS:     119379  HIT %:    98.1081  MISS %:    1.89187   MPKI: 2.38758
L1D PREFETCH  ACCESS:     351139  HIT:     174371  MISS:     176768  HIT %:    49.6587  MISS %:    50.3413   MPKI: 3.53536
L1D PREFETCH  REQUESTED:     734284  ISSUED:     734250  USEFUL:      22738  USELESS:     153988
L1D USEFUL LOAD PREFETCHES:      22738 PREFETCH ISSUED TO LOWER LEVEL:     178945  ACCURACY: 12.7067
L1D TIMELY PREFETCHES:      22738 LATE PREFETCHES: 1997 DROPPED PREFETCHES: 0
L1D PREFETCHES SAME FILL-ORIGIN LEVEL: 178945 DIFFERENT FILL-ORIGIN LEVEL: 0
L1D AVERAGE MISS LATENCY: 100435 cycles
L1D RQ	ACCESS:   11157997	FORWARD:          0	MERGED:    3150770	TO_CACHE:    7861814
L1D WQ	ACCESS:    6511082	FORWARD:     146079	MERGED:      86560	TO_CACHE:    6424522
L1D PQ	ACCESS:     367458	FORWARD:          0	MERGED:          0	TO_CACHE:     366792

L1D UNIQUE REGIONS ACCESSED: 0
L1D REGIONS CONFLICTS: 0
L1D Cross Page Prefetch Requests: 0
L1D Same Page Prefetch Requests: 429967
L1D ROI Sum of L1D PQ occupancy: 4923062
L1D PREFETCHES PUSHED FROM L2C: 0
L1I TOTAL     ACCESS:    9860914  HIT:    6561477  MISS:    3299437  HIT %:    66.5403  MISS %:    33.4597   MPKI: 65.9887
L1I LOAD      ACCESS:    9860914  HIT:    6561477  MISS:    3299437  HIT %:    66.5403  MISS %:    33.4597   MPKI: 65.9887
L1I PREFETCH  REQUESTED:          0  ISSUED:          0  USEFUL:          0  USELESS:          0
L1I USEFUL LOAD PREFETCHES:          0 PREFETCH ISSUED TO LOWER LEVEL:          0  ACCURACY: -nan
L1I TIMELY PREFETCHES:          0 LATE PREFETCHES: 0 DROPPED PREFETCHES: 0
L1I PREFETCHES SAME FILL-ORIGIN LEVEL: 0 DIFFERENT FILL-ORIGIN LEVEL: 0
L1I AVERAGE MISS LATENCY: 14.8399 cycles
L1I RQ	ACCESS:   14717430	FORWARD:          0	MERGED:    4117813	TO_CACHE:   10599617

BTB TOTAL     ACCESS:    6383750  HIT:    5391163  MISS:     992587  HIT %:    84.4513  MISS %:    15.5487   MPKI: 19.8517
BTB BRANCH_DIRECT_JUMP	ACCESS:     773784  HIT:     695908  MISS:      77876
BTB BRANCH_INDIRECT	ACCESS:     108782  HIT:      73994  MISS:      34788
BTB BRANCH_CONDITIONAL	ACCESS:    2979726  HIT:    2766987  MISS:     212739
BTB BRANCH_DIRECT_CALL	ACCESS:    1049282  HIT:     930755  MISS:     118527
BTB BRANCH_INDIRECT_CALL	ACCESS:     211458  HIT:     142846  MISS:      68612
BTB BRANCH_RETURN	ACCESS:    1260718  HIT:     780673  MISS:     480045
BTB BRANCH_OTHER ACCESS:          0  HIT:          0  MISS:          0

L2C TOTAL     ACCESS:    5042537  HIT:    4691705  MISS:     350832  HIT %:    93.0425  MISS %:    6.95745   MPKI: 7.01664
L2C LOAD      ACCESS:    3916715  HIT:    3726521  MISS:     190194  HIT %:     95.144  MISS %:    4.85596   MPKI: 3.80388
L2C DATA LOAD MPKI: 2.37916
L2C INSTRUCTION LOAD MPKI: 1.42472
L2C RFO       ACCESS:     119198  HIT:      95824  MISS:      23374  HIT %:    80.3906  MISS %:    19.6094   MPKI: 0.46748
L2C PREFETCH  ACCESS:     716924  HIT:     586746  MISS:     130178  HIT %:    81.8421  MISS %:    18.1579   MPKI: 2.60356
L2C DATA PREFETCH MPKI: 2.60356
L2C INSTRUCTION PREFETCH MPKI: 0
L2C WRITEBACK ACCESS:     284662  HIT:     280349  MISS:       4313  HIT %:    98.4849  MISS %:    1.51513   MPKI: 0.08626
L2C LOAD TRANSLATION ACCESS:       5038  HIT:       2265  MISS:       2773  HIT %:    44.9583  MISS %:    55.0417   MPKI: 0.05546
L2C PREFETCH  REQUESTED:     550751  ISSUED:     550751  USEFUL:      49465  USELESS:      80422
L2C USEFUL LOAD PREFETCHES:      49465 PREFETCH ISSUED TO LOWER LEVEL:     132147  ACCURACY: 37.4318
L2C TIMELY PREFETCHES:      49465 LATE PREFETCHES: 1969 DROPPED PREFETCHES: 0
L2C PREFETCHES SAME FILL-ORIGIN LEVEL: 95619 DIFFERENT FILL-ORIGIN LEVEL: 0
L2C AVERAGE MISS LATENCY: 53.445 cycles
L2C RQ	ACCESS:    4040985	FORWARD:          0	MERGED:          0	TO_CACHE:    4040951
L2C WQ	ACCESS:     284662	FORWARD:         35	MERGED:          0	TO_CACHE:     284662
L2C PQ	ACCESS:     729696	FORWARD:          0	MERGED:       4605	TO_CACHE:     725090

L2C Instructions Evicting Data 30950
L2C Translations Evicting Data 2517
L2C Data Evicting Data 241807
L2C Instructions Evicting Instructions 40004
L2C Translations Evicting Instructions 234
L2C Data Evicting Instructions 28253
L2C Instructions Evicting Translations 282
L2C Translations Evicting Translations 22
L2C Data Evicting Translations 2450
L2C Dense regions hint from L2: 0
PSCL5 TOTAL     ACCESS:       4503  HIT:       4503  MISS:          0  HIT %:        100  MISS %:          0   MPKI: 0
PSCL5 LOAD TRANSLATION ACCESS:       4503  HIT:       4503  MISS:          0  HIT %:        100  MISS %:          0   MPKI: 0
PSCL5 PREFETCH  REQUESTED:          0  ISSUED:          0  USEFUL:          0  USELESS:          0
PSCL5 USEFUL LOAD PREFETCHES:          0 PREFETCH ISSUED TO LOWER LEVEL:          0  ACCURACY: -nan
PSCL5 TIMELY PREFETCHES:          0 LATE PREFETCHES: 0 DROPPED PREFETCHES: 0
PSCL5 PREFETCHES SAME FILL-ORIGIN LEVEL: 0 DIFFERENT FILL-ORIGIN LEVEL: 0

PSCL4 TOTAL     ACCESS:       4461  HIT:       4451  MISS:         10  HIT %:    99.7758  MISS %:   0.224165   MPKI: 0.0002
PSCL4 LOAD TRANSLATION ACCESS:       4461  HIT:       4451  MISS:         10  HIT %:    99.7758  MISS %:   0.224165   MPKI: 0.0002
PSCL4 PREFETCH  REQUESTED:          0  ISSUED:          0  USEFUL:          0  USELESS:          0
PSCL4 USEFUL LOAD PREFETCHES:          0 PREFETCH ISSUED TO LOWER LEVEL:          0  ACCURACY: -nan
PSCL4 TIMELY PREFETCHES:          0 LATE PREFETCHES: 0 DROPPED PREFETCHES: 0
PSCL4 PREFETCHES SAME FILL-ORIGIN LEVEL: 0 DIFFERENT FILL-ORIGIN LEVEL: 0

PSCL3 TOTAL     ACCESS:       4483  HIT:       4473  MISS:         10  HIT %:    99.7769  MISS %:   0.223065   MPKI: 0.0002
PSCL3 LOAD TRANSLATION ACCESS:       4483  HIT:       4473  MISS:         10  HIT %:    99.7769  MISS %:   0.223065   MPKI: 0.0002
PSCL3 PREFETCH  REQUESTED:          0  ISSUED:          0  USEFUL:          0  USELESS:          0
PSCL3 USEFUL LOAD PREFETCHES:          0 PREFETCH ISSUED TO LOWER LEVEL:          0  ACCURACY: -nan
PSCL3 TIMELY PREFETCHES:          0 LATE PREFETCHES: 0 DROPPED PREFETCHES: 0
PSCL3 PREFETCHES SAME FILL-ORIGIN LEVEL: 0 DIFFERENT FILL-ORIGIN LEVEL: 0

PSCL2 TOTAL     ACCESS:       4503  HIT:       3984  MISS:        519  HIT %:    88.4744  MISS %:    11.5256   MPKI: 0.01038
PSCL2 LOAD TRANSLATION ACCESS:       4503  HIT:       3984  MISS:        519  HIT %:    88.4744  MISS %:    11.5256   MPKI: 0.01038
PSCL2 PREFETCH  REQUESTED:          0  ISSUED:          0  USEFUL:          0  USELESS:          0
PSCL2 USEFUL LOAD PREFETCHES:          0 PREFETCH ISSUED TO LOWER LEVEL:          0  ACCURACY: -nan
PSCL2 TIMELY PREFETCHES:          0 LATE PREFETCHES: 0 DROPPED PREFETCHES: 0
PSCL2 PREFETCHES SAME FILL-ORIGIN LEVEL: 0 DIFFERENT FILL-ORIGIN LEVEL: 0

LLC TOTAL     ACCESS:     453885  HIT:     414979  MISS:      38906  HIT %:    91.4282  MISS %:    8.57177   MPKI: 0.77812
LLC LOAD      ACCESS:     188361  HIT:     173732  MISS:      14629  HIT %:    92.2335  MISS %:    7.76647   MPKI: 0.29258
LLC RFO       ACCESS:      23238  HIT:      19484  MISS:       3754  HIT %:    83.8454  MISS %:    16.1546   MPKI: 0.07508
LLC PREFETCH  ACCESS:     132147  HIT:     112090  MISS:      20057  HIT %:    84.8222  MISS %:    15.1778   MPKI: 0.40114
LLC WRITEBACK ACCESS:     107366  HIT:     107253  MISS:        113  HIT %:    99.8948  MISS %:   0.105247   MPKI: 0.00226
LLC LOAD TRANSLATION ACCESS:       2773  HIT:       2420  MISS:        353  HIT %:    87.2701  MISS %:    12.7299   MPKI: 0.00706
LLC PREFETCH  REQUESTED:          0  ISSUED:          0  USEFUL:       2822  USELESS:      12501
LLC USEFUL LOAD PREFETCHES:       2822 PREFETCH ISSUED TO LOWER LEVEL:      20057  ACCURACY: 14.0699
LLC TIMELY PREFETCHES:       2822 LATE PREFETCHES: 0 DROPPED PREFETCHES: 0
LLC PREFETCHES SAME FILL-ORIGIN LEVEL: 0 DIFFERENT FILL-ORIGIN LEVEL: 0
LLC AVERAGE MISS LATENCY: 218.039 cycles
LLC RQ	ACCESS:     214372	FORWARD:          0	MERGED:          0	TO_CACHE:     214372
LLC WQ	ACCESS:     107366	FORWARD:          0	MERGED:          0	TO_CACHE:     107366
LLC PQ	ACCESS:     132147	FORWARD:          0	MERGED:          0	TO_CACHE:     132147

LLC Dense regions hint to LLC: 0

RAW hits: 903098
Loads Generated: 12061095
Loads sent to L1D: 11157997
Stores Generated: 6511091
Stores sent to L1D: 6511082
Major fault: 0 Minor fault: 2442
Allocated PAGES: 2442

stream: 
stream:times selected: 468772
stream:pref_filled: 118824
stream:pref_useful: 15123
stream:pref_late: 523
stream:misses: 11922
stream:misses_by_poll: 0

CS: 
CS:times selected: 8499
CS:pref_filled: 1710
CS:pref_useful: 1152
CS:pref_late: 1011
CS:misses: 150
CS:misses_by_poll: 11

CPLX: 
CPLX:times selected: 454018
CPLX:pref_filled: 83718
CPLX:pref_useful: 8977
CPLX:pref_late: 566
CPLX:misses: 52374
CPLX:misses_by_poll: 18

NL_L1: 
NL:times selected: 2111
NL:pref_filled: 1412
NL:pref_useful: 25
NL:pref_late: 8
NL:misses: 190
NL:misses_by_poll: 0

total selections: 933400
total_filled: 176768
total_useful: 22738
total_late: 2567
total_polluted: 29
total_misses_after_warmup: 643116
conflicts: 3265092
Degree Incremented Times: 0
Degree Decremented Times: 122175

L1 IP Table Write Accesses: 4364370
L1 IP Table Read Accesses: 1099278
L1 RST Write Accesses: 406307
L1 RST Read Accesses: 812614
L1 CSPT Write Accesses: 406307
L1 CSPT Read Accesses: 798987
L1 RR Filter Tag Write Accesses: 367492
L1 RR Filter Tag Read Accesses: 17674586
L1 IP Table Tag Write Accesses: 7861817
L1 IP Table Tag Read Accesses: 7861817
L1 RST Tag Write Accesses: 0
L1 RST Tag Read Accesses: 4307993
L1 RR Filter Write Accesses: 0
L1 RR Filter Read Accesses: 616871
test: 221795
L2 IP Table Read Accesses: 1026919
L2 IP Table Write Accesses: 1418067
L2 IP Table Tag Read Accesses: 790868
L2 IP Table Tag Write Accesses: 790868

DRAM Statistics
 CHANNEL 0
 RQ ROW_BUFFER_HIT:       9391  ROW_BUFFER_MISS:      29402
 DBUS_CONGESTED:      24695
 WQ ROW_BUFFER_HIT:       1893  ROW_BUFFER_MISS:      10160  FULL:          0

 AVG_CONGESTED_CYCLE: 47
 All warmup complete: 2
Channel 0 Bank busy for read cycles: 0
Channel 0 Bank busy for write cycles: 0
Channel 0
Rank 0
0banks busy for read cycles: 96964666
0banks busy for write cycles: 6242
1banks busy for read cycles: 2006101
1banks busy for write cycles: 912431
2banks busy for read cycles: 977080
2banks busy for write cycles: 243007
3banks busy for read cycles: 328946
3banks busy for write cycles: 125073
4banks busy for read cycles: 152152
4banks busy for write cycles: 79788
5banks busy for read cycles: 70386
5banks busy for write cycles: 48343
6banks busy for read cycles: 35561
6banks busy for write cycles: 31170
7banks busy for read cycles: 30524
7banks busy for write cycles: 23675
8banks busy for read cycles: 26876
8banks busy for write cycles: 61335

CPU 0 Branch Prediction Accuracy: 93.323% MPKI: 13.056 Average ROB Occupancy at Mispredict: 19.2742
Branch types
NOT_BRANCH: 40222847 80.4457%
BRANCH_DIRECT_JUMP: 773784 1.54757%
BRANCH_INDIRECT: 108782 0.217564%
BRANCH_CONDITIONAL: 6372831 12.7457%
BRANCH_DIRECT_CALL: 1049282 2.09856%
BRANCH_INDIRECT_CALL: 211458 0.422916%
BRANCH_RETURN: 1260718 2.52144%
BRANCH_OTHER: 0 0%

@sumon_overall_L1D     22738      1997    153988    176768    734250    734284
@Sumon_Early_by_class_L1D     12633      1042      7946         0
@Sumon_Late_by_class_L1D       193      1007       360         0

@Sumon_Early_by_cycle_L1D      5714      3894      3179      2008      1566      2182      1326       853       146      1285       503        82
@Sumon_Late_by_cycle_L1D      1536       436        24         0         1         0         0         0         0         0         0         0
@Sumon_Early_stream_L1D      3429      2884      2789      1066        22       334       843       246        83       514       373        50
@Sumon_Early_CS_L1D       261       414        82       126        37        30        10        16        29        32         5         0
@Sumon_Early_CPLX_L1D      1629       541       228       395      1500      1807       328       589        34       739       124        32
@Sumon_Late_stream_L1D       186         4         2         0         1         0         0         0         0         0         0         0
@Sumon_Late_CS_L1D       587       403        17         0         0         0         0         0         0         0         0         0
@Sumon_Late_CPLX_L1D       326        29         5         0         0         0         0         0         0         0         0         0
@sumon_overall_L2C     49465      1969     80422    130178    550751    550751
@Sumon_Early_by_class_L2C      1935        33      1391         0
@Sumon_Late_by_class_L2C         0         0         0         0

@Sumon_Early_by_cycle_L2C      7039      5230      5705      3736      1726      6373      1783       101      1460      4526      6521      5265
@Sumon_Late_by_cycle_L2C      1720       220        29         0         0         0         0         0         0         0         0         0
@Sumon_Early_stream_L2C         0         0         0         0         0         0         0         1         4        19       638      1273
@Sumon_Early_CS_L2C         0         0         0         0         0         0         0         0         0         5        16        12
@Sumon_Early_CPLX_L2C         0         0         0         0         0         0         0         0         0        31       229      1131
@Sumon_Late_stream_L2C         0         0         0         0         0         0         0         0         0         0         0         0
@Sumon_Late_CS_L2C         0         0         0         0         0         0         0         0         0         0         0         0
@Sumon_Late_CPLX_L2C         0         0         0         0         0         0         0         0         0         0         0         0
DRAM PAGES: 1048576
Allocated PAGES: 2442
