
*** ChampSim Multicore Out-of-Order Simulator ***

Warmup Instructions: 10000000
Simulation Instructions: 50000000
Number of CPUs: 1
LLC sets: 2048
LLC ways: 16
Off-chip DRAM Size: 4096 MB Channels: 1 Width: 64-bit Data Rate: 6400 MT/s
CPU 0 runs traces/clientserver/server_027.champsimtrace.xz
.xz
CPU 0 Bimodal branch predictor
BTB has LRU replacement policy
ITLB has LRU replacement policy
DTLB has LRU replacement policy
STLB has LRU replacement policy
L1I has LRU replacement policy
IP Table Entries: 256
L1D has LRU replacement policy
IP_Table L2 entries: 256
Initialize SRRIP state for L2C
LLC has LRU replacement policy
Heartbeat CPU 0 instructions: 10000000 cycles: 2886003 heartbeat IPC: 3.465 cumulative IPC: 3.465 (Simulation time: 0 hr 18 min 13 sec) 

Warmup complete CPU 0 instructions: 10000004 cycles: 2886004 (Simulation time: 0 hr 18 min 13 sec) 

Heartbeat CPU 0 instructions: 20000001 cycles: 27524979 heartbeat IPC: 0.405861 cumulative IPC: 0.405861 (Simulation time: 0 hr 35 min 11 sec) 
Heartbeat CPU 0 instructions: 30000001 cycles: 51998453 heartbeat IPC: 0.408606 cumulative IPC: 0.407229 (Simulation time: 0 hr 52 min 17 sec) 
Heartbeat CPU 0 instructions: 40000001 cycles: 76519309 heartbeat IPC: 0.407816 cumulative IPC: 0.407424 (Simulation time: 1 hr 9 min 22 sec) 
Heartbeat CPU 0 instructions: 50000000 cycles: 100980392 heartbeat IPC: 0.408813 cumulative IPC: 0.40777 (Simulation time: 1 hr 26 min 53 sec) 
Heartbeat CPU 0 instructions: 60000002 cycles: 125575303 heartbeat IPC: 0.406588 cumulative IPC: 0.407533 (Simulation time: 3 hr 28 min 34 sec) 
Finished CPU 0 instructions: 50000001 cycles: 122689305 cumulative IPC: 0.407533 (Simulation time: 3 hr 28 min 34 sec) 

ChampSim completed all CPUs

Region of Interest Statistics

CPU 0 cumulative IPC: 0.407533 instructions: 50000001 cycles: 122689305
ITLB TOTAL     ACCESS:    8414887  HIT:    7924067  MISS:     490820  HIT %:    94.1672  MISS %:    5.83276   MPKI: 9.8164
ITLB LOAD TRANSLATION ACCESS:    8414887  HIT:    7924067  MISS:     490820  HIT %:    94.1672  MISS %:    5.83276   MPKI: 9.8164
ITLB PREFETCH  REQUESTED:          0  ISSUED:          0  USEFUL:          0  USELESS:          0
ITLB USEFUL LOAD PREFETCHES:          0 PREFETCH ISSUED TO LOWER LEVEL:          0  ACCURACY: -nan
ITLB TIMELY PREFETCHES:          0 LATE PREFETCHES: 0 DROPPED PREFETCHES: 0
ITLB PREFETCHES SAME FILL-ORIGIN LEVEL: 0 DIFFERENT FILL-ORIGIN LEVEL: 0
ITLB AVERAGE MISS LATENCY: 9.06351 cycles
ITLB RQ	ACCESS:   10050910	FORWARD:          0	MERGED:    1512031	TO_CACHE:    8538879

DTLB TOTAL     ACCESS:   12616152  HIT:   12140897  MISS:     475255  HIT %:     96.233  MISS %:    3.76704   MPKI: 9.5051
DTLB LOAD TRANSLATION ACCESS:   12616152  HIT:   12140897  MISS:     475255  HIT %:     96.233  MISS %:    3.76704   MPKI: 9.5051
DTLB PREFETCH  REQUESTED:          0  ISSUED:          0  USEFUL:          0  USELESS:          0
DTLB USEFUL LOAD PREFETCHES:          0 PREFETCH ISSUED TO LOWER LEVEL:          0  ACCURACY: -nan
DTLB TIMELY PREFETCHES:          0 LATE PREFETCHES: 0 DROPPED PREFETCHES: 0
DTLB PREFETCHES SAME FILL-ORIGIN LEVEL: 0 DIFFERENT FILL-ORIGIN LEVEL: 0
DTLB AVERAGE MISS LATENCY: 9.39726 cycles
DTLB RQ	ACCESS:   15738623	FORWARD:          0	MERGED:    3102288	TO_CACHE:   12636335

STLB TOTAL     ACCESS:    1384207  HIT:    1381898  MISS:       2309  HIT %:    99.8332  MISS %:    0.16681   MPKI: 0.04618
STLB LOAD TRANSLATION ACCESS:     966075  HIT:     963766  MISS:       2309  HIT %:     99.761  MISS %:   0.239008   MPKI: 0.04618
STLB TRANSLATION FROM L1D PREFETCHER ACCESS:     418132  HIT:     418132  MISS:          0  HIT %:        100  MISS %:          0   MPKI: 0
STLB PREFETCH  REQUESTED:          0  ISSUED:          0  USEFUL:          0  USELESS:          0
STLB USEFUL LOAD PREFETCHES:          0 PREFETCH ISSUED TO LOWER LEVEL:          0  ACCURACY: -nan
STLB TIMELY PREFETCHES:          0 LATE PREFETCHES: 0 DROPPED PREFETCHES: 0
STLB PREFETCHES SAME FILL-ORIGIN LEVEL: 0 DIFFERENT FILL-ORIGIN LEVEL: 0
STLB AVERAGE MISS LATENCY: 91.3053 cycles
STLB RQ	ACCESS:    1500593	FORWARD:          0	MERGED:     116386	TO_CACHE:    1384207

STLB Hit, L1D data hit: 0
STLB Hit, L2C data hit: 0
STLB Hit, LLC data hit: 0
STLB Hit, LLC data miss: 0
STLB STLB hints to L2: 0
L1D TOTAL     ACCESS:   15769264  HIT:   14612758  MISS:    1156506  HIT %:    92.6661  MISS %:    7.33393   MPKI: 23.1301
L1D LOAD      ACCESS:    8819179  HIT:    8107068  MISS:     712111  HIT %:    91.9254  MISS %:    8.07457   MPKI: 14.2422
L1D RFO       ACCESS:    6449074  HIT:    6154526  MISS:     294548  HIT %:    95.4327  MISS %:    4.56729   MPKI: 5.89096
L1D PREFETCH  ACCESS:     501011  HIT:     351164  MISS:     149847  HIT %:    70.0911  MISS %:    29.9089   MPKI: 2.99694
L1D PREFETCH  REQUESTED:    1069232  ISSUED:    1069232  USEFUL:      46164  USELESS:     103709
L1D USEFUL LOAD PREFETCHES:      46164 PREFETCH ISSUED TO LOWER LEVEL:     171456  ACCURACY: 26.9247
L1D TIMELY PREFETCHES:      46164 LATE PREFETCHES: 21120 DROPPED PREFETCHES: 0
L1D PREFETCHES SAME FILL-ORIGIN LEVEL: 171456 DIFFERENT FILL-ORIGIN LEVEL: 0
L1D AVERAGE MISS LATENCY: 1.18683e+06 cycles
L1D RQ	ACCESS:   12113129	FORWARD:          0	MERGED:    3151982	TO_CACHE:    8846768
L1D WQ	ACCESS:    6938884	FORWARD:     114575	MERGED:      47029	TO_CACHE:    6891855
L1D PQ	ACCESS:     534714	FORWARD:          0	MERGED:          0	TO_CACHE:     534518

L1D UNIQUE REGIONS ACCESSED: 0
L1D REGIONS CONFLICTS: 0
L1D Cross Page Prefetch Requests: 0
L1D Same Page Prefetch Requests: 638239
L1D ROI Sum of L1D PQ occupancy: 6869828
L1D PREFETCHES PUSHED FROM L2C: 0
L1I TOTAL     ACCESS:    9596563  HIT:    6848001  MISS:    2748562  HIT %:    71.3589  MISS %:    28.6411   MPKI: 54.9712
L1I LOAD      ACCESS:    9596563  HIT:    6848001  MISS:    2748562  HIT %:    71.3589  MISS %:    28.6411   MPKI: 54.9712
L1I PREFETCH  REQUESTED:          0  ISSUED:          0  USEFUL:          0  USELESS:          0
L1I USEFUL LOAD PREFETCHES:          0 PREFETCH ISSUED TO LOWER LEVEL:          0  ACCURACY: -nan
L1I TIMELY PREFETCHES:          0 LATE PREFETCHES: 0 DROPPED PREFETCHES: 0
L1I PREFETCHES SAME FILL-ORIGIN LEVEL: 0 DIFFERENT FILL-ORIGIN LEVEL: 0
L1I AVERAGE MISS LATENCY: 17.5034 cycles
L1I RQ	ACCESS:   13820700	FORWARD:          0	MERGED:    3769790	TO_CACHE:   10050910

BTB TOTAL     ACCESS:    5994310  HIT:    3988077  MISS:    2006233  HIT %:     66.531  MISS %:     33.469   MPKI: 40.1247
BTB BRANCH_DIRECT_JUMP	ACCESS:     527013  HIT:     350195  MISS:     176818
BTB BRANCH_INDIRECT	ACCESS:     206168  HIT:     168860  MISS:      37308
BTB BRANCH_CONDITIONAL	ACCESS:    3044122  HIT:    2482259  MISS:     561863
BTB BRANCH_DIRECT_CALL	ACCESS:     934907  HIT:     527457  MISS:     407450
BTB BRANCH_INDIRECT_CALL	ACCESS:     173595  HIT:      94867  MISS:      78728
BTB BRANCH_RETURN	ACCESS:    1108505  HIT:     364439  MISS:     744066
BTB BRANCH_OTHER ACCESS:          0  HIT:          0  MISS:          0

L2C TOTAL     ACCESS:    5023369  HIT:    4448270  MISS:     575099  HIT %:    88.5515  MISS %:    11.4485   MPKI: 11.502
L2C LOAD      ACCESS:    3439547  HIT:    3056257  MISS:     383290  HIT %:    88.8564  MISS %:    11.1436   MPKI: 7.6658
L2C DATA LOAD MPKI: 1.50536
L2C INSTRUCTION LOAD MPKI: 6.16044
L2C RFO       ACCESS:     294057  HIT:     236836  MISS:      57221  HIT %:    80.5408  MISS %:    19.4592   MPKI: 1.14442
L2C PREFETCH  ACCESS:     762176  HIT:     644083  MISS:     118093  HIT %:    84.5058  MISS %:    15.4942   MPKI: 2.36186
L2C DATA PREFETCH MPKI: 2.36186
L2C INSTRUCTION PREFETCH MPKI: 0
L2C WRITEBACK ACCESS:     525106  HIT:     510491  MISS:      14615  HIT %:    97.2168  MISS %:    2.78325   MPKI: 0.2923
L2C LOAD TRANSLATION ACCESS:       2483  HIT:        603  MISS:       1880  HIT %:    24.2851  MISS %:    75.7149   MPKI: 0.0376
L2C PREFETCH  REQUESTED:     601449  ISSUED:     601449  USEFUL:      13951  USELESS:     104249
L2C USEFUL LOAD PREFETCHES:      13951 PREFETCH ISSUED TO LOWER LEVEL:     120294  ACCURACY: 11.5974
L2C TIMELY PREFETCHES:      13951 LATE PREFETCHES: 2201 DROPPED PREFETCHES: 0
L2C PREFETCHES SAME FILL-ORIGIN LEVEL: 69738 DIFFERENT FILL-ORIGIN LEVEL: 0
L2C AVERAGE MISS LATENCY: 36.2634 cycles
L2C RQ	ACCESS:    3736096	FORWARD:          0	MERGED:          0	TO_CACHE:    3736088
L2C WQ	ACCESS:     525106	FORWARD:         13	MERGED:          0	TO_CACHE:     525106
L2C PQ	ACCESS:     772905	FORWARD:          0	MERGED:       5633	TO_CACHE:     767267

L2C Instructions Evicting Data 126724
L2C Translations Evicting Data 1198
L2C Data Evicting Data 130137
L2C Instructions Evicting Instructions 180645
L2C Translations Evicting Instructions 671
L2C Data Evicting Instructions 119249
L2C Instructions Evicting Translations 653
L2C Translations Evicting Translations 11
L2C Data Evicting Translations 1192
L2C Dense regions hint from L2: 0
PSCL5 TOTAL     ACCESS:       2309  HIT:       2309  MISS:          0  HIT %:        100  MISS %:          0   MPKI: 0
PSCL5 LOAD TRANSLATION ACCESS:       2309  HIT:       2309  MISS:          0  HIT %:        100  MISS %:          0   MPKI: 0
PSCL5 PREFETCH  REQUESTED:          0  ISSUED:          0  USEFUL:          0  USELESS:          0
PSCL5 USEFUL LOAD PREFETCHES:          0 PREFETCH ISSUED TO LOWER LEVEL:          0  ACCURACY: -nan
PSCL5 TIMELY PREFETCHES:          0 LATE PREFETCHES: 0 DROPPED PREFETCHES: 0
PSCL5 PREFETCHES SAME FILL-ORIGIN LEVEL: 0 DIFFERENT FILL-ORIGIN LEVEL: 0

PSCL4 TOTAL     ACCESS:       2073  HIT:       2050  MISS:         23  HIT %:    98.8905  MISS %:     1.1095   MPKI: 0.00046
PSCL4 LOAD TRANSLATION ACCESS:       2073  HIT:       2050  MISS:         23  HIT %:    98.8905  MISS %:     1.1095   MPKI: 0.00046
PSCL4 PREFETCH  REQUESTED:          0  ISSUED:          0  USEFUL:          0  USELESS:          0
PSCL4 USEFUL LOAD PREFETCHES:          0 PREFETCH ISSUED TO LOWER LEVEL:          0  ACCURACY: -nan
PSCL4 TIMELY PREFETCHES:          0 LATE PREFETCHES: 0 DROPPED PREFETCHES: 0
PSCL4 PREFETCHES SAME FILL-ORIGIN LEVEL: 0 DIFFERENT FILL-ORIGIN LEVEL: 0

PSCL3 TOTAL     ACCESS:       2129  HIT:       2105  MISS:         24  HIT %:    98.8727  MISS %:    1.12729   MPKI: 0.00048
PSCL3 LOAD TRANSLATION ACCESS:       2129  HIT:       2105  MISS:         24  HIT %:    98.8727  MISS %:    1.12729   MPKI: 0.00048
PSCL3 PREFETCH  REQUESTED:          0  ISSUED:          0  USEFUL:          0  USELESS:          0
PSCL3 USEFUL LOAD PREFETCHES:          0 PREFETCH ISSUED TO LOWER LEVEL:          0  ACCURACY: -nan
PSCL3 TIMELY PREFETCHES:          0 LATE PREFETCHES: 0 DROPPED PREFETCHES: 0
PSCL3 PREFETCHES SAME FILL-ORIGIN LEVEL: 0 DIFFERENT FILL-ORIGIN LEVEL: 0

PSCL2 TOTAL     ACCESS:       2309  HIT:       2174  MISS:        135  HIT %:    94.1533  MISS %:    5.84669   MPKI: 0.0027
PSCL2 LOAD TRANSLATION ACCESS:       2309  HIT:       2174  MISS:        135  HIT %:    94.1533  MISS %:    5.84669   MPKI: 0.0027
PSCL2 PREFETCH  REQUESTED:          0  ISSUED:          0  USEFUL:          0  USELESS:          0
PSCL2 USEFUL LOAD PREFETCHES:          0 PREFETCH ISSUED TO LOWER LEVEL:          0  ACCURACY: -nan
PSCL2 TIMELY PREFETCHES:          0 LATE PREFETCHES: 0 DROPPED PREFETCHES: 0
PSCL2 PREFETCHES SAME FILL-ORIGIN LEVEL: 0 DIFFERENT FILL-ORIGIN LEVEL: 0

LLC TOTAL     ACCESS:     643386  HIT:     612255  MISS:      31131  HIT %:    95.1614  MISS %:    4.83862   MPKI: 0.62262
LLC LOAD      ACCESS:     381180  HIT:     376756  MISS:       4424  HIT %:    98.8394  MISS %:    1.16061   MPKI: 0.08848
LLC RFO       ACCESS:      57129  HIT:      41628  MISS:      15501  HIT %:    72.8667  MISS %:    27.1333   MPKI: 0.31002
LLC PREFETCH  ACCESS:     120283  HIT:     109409  MISS:      10874  HIT %:    90.9597  MISS %:    9.04035   MPKI: 0.21748
LLC WRITEBACK ACCESS:      82914  HIT:      82750  MISS:        164  HIT %:    99.8022  MISS %:   0.197795   MPKI: 0.00328
LLC LOAD TRANSLATION ACCESS:       1880  HIT:       1712  MISS:        168  HIT %:    91.0638  MISS %:    8.93617   MPKI: 0.00336
LLC PREFETCH  REQUESTED:          0  ISSUED:          0  USEFUL:       1059  USELESS:       6032
LLC USEFUL LOAD PREFETCHES:       1059 PREFETCH ISSUED TO LOWER LEVEL:      10874  ACCURACY: 9.73883
LLC TIMELY PREFETCHES:       1059 LATE PREFETCHES: 0 DROPPED PREFETCHES: 0
LLC PREFETCHES SAME FILL-ORIGIN LEVEL: 0 DIFFERENT FILL-ORIGIN LEVEL: 0
LLC AVERAGE MISS LATENCY: 128.848 cycles
LLC RQ	ACCESS:     440190	FORWARD:          0	MERGED:          0	TO_CACHE:     440189
LLC WQ	ACCESS:      82914	FORWARD:         12	MERGED:          0	TO_CACHE:      82914
LLC PQ	ACCESS:     120294	FORWARD:          0	MERGED:          0	TO_CACHE:     120283

LLC Dense regions hint to LLC: 0

RAW hits: 527458
Loads Generated: 12640584
Loads sent to L1D: 12113129
Stores Generated: 6938885
Stores sent to L1D: 6938884
Major fault: 0 Minor fault: 2251
Allocated PAGES: 2251

stream: 
stream:times selected: 1024629
stream:pref_filled: 102331
stream:pref_useful: 18682
stream:pref_late: 15809
stream:misses: 5602
stream:misses_by_poll: 0

CS: 
CS:times selected: 132713
CS:pref_filled: 49654
CS:pref_useful: 31297
CS:pref_late: 3732
CS:misses: 7179
CS:misses_by_poll: 14

CPLX: 
CPLX:times selected: 889801
CPLX:pref_filled: 22596
CPLX:pref_useful: 4085
CPLX:pref_late: 1398
CPLX:misses: 63716
CPLX:misses_by_poll: 1

NL_L1: 
NL:times selected: 5718
NL:pref_filled: 613
NL:pref_useful: 103
NL:pref_late: 5
NL:misses: 114
NL:misses_by_poll: 0

total selections: 2052861
total_filled: 149847
total_useful: 46164
total_late: 22441
total_polluted: 15
total_misses_after_warmup: 739702
conflicts: 3249485
Degree Incremented Times: 0
Degree Decremented Times: 126067

L1 IP Table Write Accesses: 5299306
L1 IP Table Read Accesses: 2049821
L1 RST Write Accesses: 862266
L1 RST Read Accesses: 1724532
L1 CSPT Write Accesses: 862266
L1 CSPT Read Accesses: 1609963
L1 RR Filter Tag Write Accesses: 534714
L1 RR Filter Tag Read Accesses: 38434960
L1 IP Table Tag Write Accesses: 8846770
L1 IP Table Tag Read Accesses: 8846770
L1 RST Tag Write Accesses: 0
L1 RST Tag Read Accesses: 7591071
L1 RR Filter Write Accesses: 0
L1 RR Filter Read Accesses: 1416382
test: 149428
L2 IP Table Read Accesses: 1106244
L2 IP Table Write Accesses: 1543379
L2 IP Table Tag Read Accesses: 857196
L2 IP Table Tag Write Accesses: 857196

DRAM Statistics
 CHANNEL 0
 RQ ROW_BUFFER_HIT:      16336  ROW_BUFFER_MISS:      14628
 DBUS_CONGESTED:          4
 WQ ROW_BUFFER_HIT:        650  ROW_BUFFER_MISS:       5772  FULL:          0

 AVG_CONGESTED_CYCLE: 4
 All warmup complete: 2
Channel 0 Bank busy for read cycles: 0
Channel 0 Bank busy for write cycles: 0
Channel 0
Rank 0
0banks busy for read cycles: 120839700
0banks busy for write cycles: 2004
1banks busy for read cycles: 636670
1banks busy for write cycles: 241236
2banks busy for read cycles: 449494
2banks busy for write cycles: 81103
3banks busy for read cycles: 89702
3banks busy for write cycles: 35539
4banks busy for read cycles: 70752
4banks busy for write cycles: 23002
5banks busy for read cycles: 35112
5banks busy for write cycles: 16552
6banks busy for read cycles: 29087
6banks busy for write cycles: 15820
7banks busy for read cycles: 23705
7banks busy for write cycles: 15983
8banks busy for read cycles: 51465
8banks busy for write cycles: 32380

CPU 0 Branch Prediction Accuracy: 91.5131% MPKI: 15.508 Average ROB Occupancy at Mispredict: 17.2417
Branch types
NOT_BRANCH: 40863273 81.7265%
BRANCH_DIRECT_JUMP: 527013 1.05403%
BRANCH_INDIRECT: 206168 0.412336%
BRANCH_CONDITIONAL: 6186185 12.3724%
BRANCH_DIRECT_CALL: 934907 1.86981%
BRANCH_INDIRECT_CALL: 173595 0.34719%
BRANCH_RETURN: 1108505 2.21701%
BRANCH_OTHER: 0 0%

@sumon_overall_L1D     46164     21120    103709    149847   1069232   1069232
@Sumon_Early_by_class_L1D     15137     26639      3319         3
@Sumon_Late_by_class_L1D     15062      3464      1166         3

@Sumon_Early_by_cycle_L1D     31493      3567      2063       805       279      1360       886      1476      1245      2232       661        97
@Sumon_Late_by_cycle_L1D     20334       776        10         0         0         0         0         0         0         0         0         0
@Sumon_Early_stream_L1D      6123      1609      1330       678       154       942       569       910       835      1353       540        94
@Sumon_Early_CS_L1D     24015      1648       576        47         2        35         7       278         0        27         4         0
@Sumon_Early_CPLX_L1D      1190       219       132        63       120       372       207       253       239       406       115         3
@Sumon_Late_stream_L1D     14727       335         0         0         0         0         0         0         0         0         0         0
@Sumon_Late_CS_L1D      3021       433        10         0         0         0         0         0         0         0         0         0
@Sumon_Late_CPLX_L1D      1160         6         0         0         0         0         0         0         0         0         0         0
@sumon_overall_L2C     13951      2201    104249    118093    601449    601449
@Sumon_Early_by_class_L2C      1038       119       346         0
@Sumon_Late_by_class_L2C         0         0         0         0

@Sumon_Early_by_cycle_L2C      2675      1509      1053       854       408      1619      1308       550       452       190       593      2740
@Sumon_Late_by_cycle_L2C      1891       310         0         0         0         0         0         0         0         0         0         0
@Sumon_Early_stream_L2C         0         0         0         0         0         0         0         0         0         6        47       985
@Sumon_Early_CS_L2C         0         0         0         0         0         0         0         0         0         0         1       118
@Sumon_Early_CPLX_L2C         0         0         0         0         0         0         0         0         0         1        13       332
@Sumon_Late_stream_L2C         0         0         0         0         0         0         0         0         0         0         0         0
@Sumon_Late_CS_L2C         0         0         0         0         0         0         0         0         0         0         0         0
@Sumon_Late_CPLX_L2C         0         0         0         0         0         0         0         0         0         0         0         0
DRAM PAGES: 1048576
Allocated PAGES: 2251
