
*** ChampSim Multicore Out-of-Order Simulator ***

Warmup Instructions: 10000000
Simulation Instructions: 50000000
Number of CPUs: 1
LLC sets: 2048
LLC ways: 16
Off-chip DRAM Size: 4096 MB Channels: 1 Width: 64-bit Data Rate: 6400 MT/s
CPU 0 runs traces/clientserver/server_028.champsimtrace.xz
.xz
CPU 0 Bimodal branch predictor
BTB has LRU replacement policy
ITLB has LRU replacement policy
DTLB has LRU replacement policy
STLB has LRU replacement policy
L1I has LRU replacement policy
IP Table Entries: 256
L1D has LRU replacement policy
IP_Table L2 entries: 256
Initialize SRRIP state for L2C
LLC has LRU replacement policy
Heartbeat CPU 0 instructions: 10000001 cycles: 2887640 heartbeat IPC: 3.46304 cumulative IPC: 3.46304 (Simulation time: 0 hr 17 min 57 sec) 

Warmup complete CPU 0 instructions: 10000001 cycles: 2887640 (Simulation time: 0 hr 17 min 57 sec) 

Heartbeat CPU 0 instructions: 20000002 cycles: 27517974 heartbeat IPC: 0.406003 cumulative IPC: 0.406003 (Simulation time: 0 hr 35 min 18 sec) 
Heartbeat CPU 0 instructions: 30000002 cycles: 52178362 heartbeat IPC: 0.405509 cumulative IPC: 0.405756 (Simulation time: 0 hr 52 min 42 sec) 
Heartbeat CPU 0 instructions: 40000000 cycles: 76856034 heartbeat IPC: 0.405225 cumulative IPC: 0.405579 (Simulation time: 1 hr 10 min 4 sec) 
Heartbeat CPU 0 instructions: 50000001 cycles: 101464047 heartbeat IPC: 0.406372 cumulative IPC: 0.405777 (Simulation time: 1 hr 27 min 47 sec) 
Heartbeat CPU 0 instructions: 60000000 cycles: 126015033 heartbeat IPC: 0.407316 cumulative IPC: 0.406083 (Simulation time: 3 hr 26 min 26 sec) 
Finished CPU 0 instructions: 50000001 cycles: 123127394 cumulative IPC: 0.406083 (Simulation time: 3 hr 26 min 26 sec) 

ChampSim completed all CPUs

Region of Interest Statistics

CPU 0 cumulative IPC: 0.406083 instructions: 50000001 cycles: 123127394
ITLB TOTAL     ACCESS:    8704359  HIT:    8172406  MISS:     531953  HIT %:    93.8887  MISS %:    6.11134   MPKI: 10.6391
ITLB LOAD TRANSLATION ACCESS:    8704359  HIT:    8172406  MISS:     531953  HIT %:    93.8887  MISS %:    6.11134   MPKI: 10.6391
ITLB PREFETCH  REQUESTED:          0  ISSUED:          0  USEFUL:          0  USELESS:          0
ITLB USEFUL LOAD PREFETCHES:          0 PREFETCH ISSUED TO LOWER LEVEL:          0  ACCURACY: -nan
ITLB TIMELY PREFETCHES:          0 LATE PREFETCHES: 0 DROPPED PREFETCHES: 0
ITLB PREFETCHES SAME FILL-ORIGIN LEVEL: 0 DIFFERENT FILL-ORIGIN LEVEL: 0
ITLB AVERAGE MISS LATENCY: 9.34855 cycles
ITLB RQ	ACCESS:   10368309	FORWARD:          0	MERGED:    1527413	TO_CACHE:    8840896

DTLB TOTAL     ACCESS:   12226615  HIT:   11684101  MISS:     542514  HIT %:    95.5628  MISS %:    4.43716   MPKI: 10.8503
DTLB LOAD TRANSLATION ACCESS:   12226615  HIT:   11684101  MISS:     542514  HIT %:    95.5628  MISS %:    4.43716   MPKI: 10.8503
DTLB PREFETCH  REQUESTED:          0  ISSUED:          0  USEFUL:          0  USELESS:          0
DTLB USEFUL LOAD PREFETCHES:          0 PREFETCH ISSUED TO LOWER LEVEL:          0  ACCURACY: -nan
DTLB TIMELY PREFETCHES:          0 LATE PREFETCHES: 0 DROPPED PREFETCHES: 0
DTLB PREFETCHES SAME FILL-ORIGIN LEVEL: 0 DIFFERENT FILL-ORIGIN LEVEL: 0
DTLB AVERAGE MISS LATENCY: 12.0964 cycles
DTLB RQ	ACCESS:   15345081	FORWARD:          0	MERGED:    3099903	TO_CACHE:   12245178

STLB TOTAL     ACCESS:    1601377  HIT:    1581184  MISS:      20193  HIT %:     98.739  MISS %:    1.26098   MPKI: 0.40386
STLB LOAD TRANSLATION ACCESS:    1074467  HIT:    1054274  MISS:      20193  HIT %:    98.1206  MISS %:    1.87935   MPKI: 0.40386
STLB TRANSLATION FROM L1D PREFETCHER ACCESS:     526910  HIT:     526910  MISS:          0  HIT %:        100  MISS %:          0   MPKI: 0
STLB PREFETCH  REQUESTED:          0  ISSUED:          0  USEFUL:          0  USELESS:          0
STLB USEFUL LOAD PREFETCHES:          0 PREFETCH ISSUED TO LOWER LEVEL:          0  ACCURACY: -nan
STLB TIMELY PREFETCHES:          0 LATE PREFETCHES: 0 DROPPED PREFETCHES: 0
STLB PREFETCHES SAME FILL-ORIGIN LEVEL: 0 DIFFERENT FILL-ORIGIN LEVEL: 0
STLB AVERAGE MISS LATENCY: 91.6793 cycles
STLB RQ	ACCESS:    1974769	FORWARD:          0	MERGED:     373392	TO_CACHE:    1601377

STLB Hit, L1D data hit: 0
STLB Hit, L2C data hit: 0
STLB Hit, LLC data hit: 0
STLB Hit, LLC data miss: 0
STLB STLB hints to L2: 0
L1D TOTAL     ACCESS:   15694690  HIT:   13951493  MISS:    1743197  HIT %:    88.8931  MISS %:    11.1069   MPKI: 34.8639
L1D LOAD      ACCESS:    8586471  HIT:    7667199  MISS:     919272  HIT %:    89.2939  MISS %:    10.7061   MPKI: 18.3854
L1D RFO       ACCESS:    6276835  HIT:    5973841  MISS:     302994  HIT %:    95.1728  MISS %:    4.82718   MPKI: 6.05988
L1D PREFETCH  ACCESS:     831384  HIT:     310453  MISS:     520931  HIT %:    37.3417  MISS %:    62.6583   MPKI: 10.4186
L1D PREFETCH  REQUESTED:    1800902  ISSUED:    1800885  USEFUL:     260857  USELESS:     260085
L1D USEFUL LOAD PREFETCHES:     260857 PREFETCH ISSUED TO LOWER LEVEL:     567963  ACCURACY: 45.9285
L1D TIMELY PREFETCHES:     260857 LATE PREFETCHES: 46935 DROPPED PREFETCHES: 0
L1D PREFETCHES SAME FILL-ORIGIN LEVEL: 567963 DIFFERENT FILL-ORIGIN LEVEL: 0
L1D AVERAGE MISS LATENCY: 1.72324e+06 cycles
L1D RQ	ACCESS:   11732664	FORWARD:          0	MERGED:    2989075	TO_CACHE:    8626758
L1D WQ	ACCESS:    6762627	FORWARD:     117112	MERGED:      44304	TO_CACHE:    6718323
L1D PQ	ACCESS:     900583	FORWARD:          0	MERGED:          0	TO_CACHE:     900302

L1D UNIQUE REGIONS ACCESSED: 0
L1D REGIONS CONFLICTS: 0
L1D Cross Page Prefetch Requests: 0
L1D Same Page Prefetch Requests: 1069826
L1D ROI Sum of L1D PQ occupancy: 11590040
L1D PREFETCHES PUSHED FROM L2C: 0
L1I TOTAL     ACCESS:    9848599  HIT:    6962232  MISS:    2886367  HIT %:    70.6926  MISS %:    29.3074   MPKI: 57.7273
L1I LOAD      ACCESS:    9848599  HIT:    6962232  MISS:    2886367  HIT %:    70.6926  MISS %:    29.3074   MPKI: 57.7273
L1I PREFETCH  REQUESTED:          0  ISSUED:          0  USEFUL:          0  USELESS:          0
L1I USEFUL LOAD PREFETCHES:          0 PREFETCH ISSUED TO LOWER LEVEL:          0  ACCURACY: -nan
L1I TIMELY PREFETCHES:          0 LATE PREFETCHES: 0 DROPPED PREFETCHES: 0
L1I PREFETCHES SAME FILL-ORIGIN LEVEL: 0 DIFFERENT FILL-ORIGIN LEVEL: 0
L1I AVERAGE MISS LATENCY: 17.0032 cycles
L1I RQ	ACCESS:   13987667	FORWARD:          0	MERGED:    3619358	TO_CACHE:   10368309

BTB TOTAL     ACCESS:    6128312  HIT:    4315807  MISS:    1812505  HIT %:    70.4241  MISS %:    29.5759   MPKI: 36.2501
BTB BRANCH_DIRECT_JUMP	ACCESS:     522168  HIT:     376869  MISS:     145299
BTB BRANCH_INDIRECT	ACCESS:     166479  HIT:     131760  MISS:      34719
BTB BRANCH_CONDITIONAL	ACCESS:    3081708  HIT:    2589088  MISS:     492620
BTB BRANCH_DIRECT_CALL	ACCESS:     991455  HIT:     639816  MISS:     351639
BTB BRANCH_INDIRECT_CALL	ACCESS:     187516  HIT:     119653  MISS:      67863
BTB BRANCH_RETURN	ACCESS:    1178986  HIT:     458621  MISS:     720365
BTB BRANCH_OTHER ACCESS:          0  HIT:          0  MISS:          0

L2C TOTAL     ACCESS:    6222588  HIT:    5600201  MISS:     622387  HIT %:    89.9979  MISS %:    10.0021   MPKI: 12.4477
L2C LOAD      ACCESS:    3758704  HIT:    3400204  MISS:     358500  HIT %:    90.4621  MISS %:    9.53786   MPKI: 7.17
L2C DATA LOAD MPKI: 1.77972
L2C INSTRUCTION LOAD MPKI: 5.39028
L2C RFO       ACCESS:     302897  HIT:     274666  MISS:      28231  HIT %:    90.6797  MISS %:    9.32033   MPKI: 0.56462
L2C PREFETCH  ACCESS:    1532225  HIT:    1317166  MISS:     215059  HIT %:    85.9643  MISS %:    14.0357   MPKI: 4.30118
L2C DATA PREFETCH MPKI: 4.30118
L2C INSTRUCTION PREFETCH MPKI: 0
L2C WRITEBACK ACCESS:     599900  HIT:     591852  MISS:       8048  HIT %:    98.6584  MISS %:    1.34156   MPKI: 0.16096
L2C LOAD TRANSLATION ACCESS:      28862  HIT:      16313  MISS:      12549  HIT %:    56.5207  MISS %:    43.4793   MPKI: 0.25098
L2C PREFETCH  REQUESTED:    1021523  ISSUED:    1021523  USEFUL:       9743  USELESS:     205292
L2C USEFUL LOAD PREFETCHES:       9743 PREFETCH ISSUED TO LOWER LEVEL:     216924  ACCURACY: 4.49143
L2C TIMELY PREFETCHES:       9743 LATE PREFETCHES: 1865 DROPPED PREFETCHES: 0
L2C PREFETCHES SAME FILL-ORIGIN LEVEL: 76986 DIFFERENT FILL-ORIGIN LEVEL: 0
L2C AVERAGE MISS LATENCY: 48.3135 cycles
L2C RQ	ACCESS:    4090463	FORWARD:          0	MERGED:          0	TO_CACHE:    4090463
L2C WQ	ACCESS:     599900	FORWARD:          5	MERGED:          0	TO_CACHE:     599900
L2C PQ	ACCESS:    1589486	FORWARD:          0	MERGED:      47499	TO_CACHE:    1541982

L2C Instructions Evicting Data 120979
L2C Translations Evicting Data 8893
L2C Data Evicting Data 206971
L2C Instructions Evicting Instructions 145193
L2C Translations Evicting Instructions 3170
L2C Data Evicting Instructions 116660
L2C Instructions Evicting Translations 3342
L2C Translations Evicting Translations 486
L2C Data Evicting Translations 8645
L2C Dense regions hint from L2: 0
PSCL5 TOTAL     ACCESS:      20193  HIT:      20193  MISS:          0  HIT %:        100  MISS %:          0   MPKI: 0
PSCL5 LOAD TRANSLATION ACCESS:      20193  HIT:      20193  MISS:          0  HIT %:        100  MISS %:          0   MPKI: 0
PSCL5 PREFETCH  REQUESTED:          0  ISSUED:          0  USEFUL:          0  USELESS:          0
PSCL5 USEFUL LOAD PREFETCHES:          0 PREFETCH ISSUED TO LOWER LEVEL:          0  ACCURACY: -nan
PSCL5 TIMELY PREFETCHES:          0 LATE PREFETCHES: 0 DROPPED PREFETCHES: 0
PSCL5 PREFETCHES SAME FILL-ORIGIN LEVEL: 0 DIFFERENT FILL-ORIGIN LEVEL: 0

PSCL4 TOTAL     ACCESS:      19722  HIT:      19542  MISS:        180  HIT %:    99.0873  MISS %:   0.912686   MPKI: 0.0036
PSCL4 LOAD TRANSLATION ACCESS:      19722  HIT:      19542  MISS:        180  HIT %:    99.0873  MISS %:   0.912686   MPKI: 0.0036
PSCL4 PREFETCH  REQUESTED:          0  ISSUED:          0  USEFUL:          0  USELESS:          0
PSCL4 USEFUL LOAD PREFETCHES:          0 PREFETCH ISSUED TO LOWER LEVEL:          0  ACCURACY: -nan
PSCL4 TIMELY PREFETCHES:          0 LATE PREFETCHES: 0 DROPPED PREFETCHES: 0
PSCL4 PREFETCHES SAME FILL-ORIGIN LEVEL: 0 DIFFERENT FILL-ORIGIN LEVEL: 0

PSCL3 TOTAL     ACCESS:      20129  HIT:      19948  MISS:        181  HIT %:    99.1008  MISS %:     0.8992   MPKI: 0.00362
PSCL3 LOAD TRANSLATION ACCESS:      20129  HIT:      19948  MISS:        181  HIT %:    99.1008  MISS %:     0.8992   MPKI: 0.00362
PSCL3 PREFETCH  REQUESTED:          0  ISSUED:          0  USEFUL:          0  USELESS:          0
PSCL3 USEFUL LOAD PREFETCHES:          0 PREFETCH ISSUED TO LOWER LEVEL:          0  ACCURACY: -nan
PSCL3 TIMELY PREFETCHES:          0 LATE PREFETCHES: 0 DROPPED PREFETCHES: 0
PSCL3 PREFETCHES SAME FILL-ORIGIN LEVEL: 0 DIFFERENT FILL-ORIGIN LEVEL: 0

PSCL2 TOTAL     ACCESS:      20193  HIT:      11878  MISS:       8315  HIT %:    58.8224  MISS %:    41.1776   MPKI: 0.1663
PSCL2 LOAD TRANSLATION ACCESS:      20193  HIT:      11878  MISS:       8315  HIT %:    58.8224  MISS %:    41.1776   MPKI: 0.1663
PSCL2 PREFETCH  REQUESTED:          0  ISSUED:          0  USEFUL:          0  USELESS:          0
PSCL2 USEFUL LOAD PREFETCHES:          0 PREFETCH ISSUED TO LOWER LEVEL:          0  ACCURACY: -nan
PSCL2 TIMELY PREFETCHES:          0 LATE PREFETCHES: 0 DROPPED PREFETCHES: 0
PSCL2 PREFETCHES SAME FILL-ORIGIN LEVEL: 0 DIFFERENT FILL-ORIGIN LEVEL: 0

LLC TOTAL     ACCESS:     656241  HIT:     579697  MISS:      76544  HIT %:     88.336  MISS %:     11.664   MPKI: 1.53088
LLC LOAD      ACCESS:     356648  HIT:     338338  MISS:      18310  HIT %:    94.8661  MISS %:    5.13391   MPKI: 0.3662
LLC RFO       ACCESS:      28218  HIT:      25568  MISS:       2650  HIT %:    90.6088  MISS %:    9.39117   MPKI: 0.053
LLC PREFETCH  ACCESS:     216924  HIT:     164848  MISS:      52076  HIT %:    75.9934  MISS %:    24.0066   MPKI: 1.04152
LLC WRITEBACK ACCESS:      41902  HIT:      41362  MISS:        540  HIT %:    98.7113  MISS %:    1.28872   MPKI: 0.0108
LLC LOAD TRANSLATION ACCESS:      12549  HIT:       9581  MISS:       2968  HIT %:    76.3487  MISS %:    23.6513   MPKI: 0.05936
LLC PREFETCH  REQUESTED:          0  ISSUED:          0  USEFUL:       2183  USELESS:      46598
LLC USEFUL LOAD PREFETCHES:       2183 PREFETCH ISSUED TO LOWER LEVEL:      52076  ACCURACY: 4.19195
LLC TIMELY PREFETCHES:       2183 LATE PREFETCHES: 0 DROPPED PREFETCHES: 0
LLC PREFETCHES SAME FILL-ORIGIN LEVEL: 0 DIFFERENT FILL-ORIGIN LEVEL: 0
LLC AVERAGE MISS LATENCY: 150.93 cycles
LLC RQ	ACCESS:     397414	FORWARD:          0	MERGED:          0	TO_CACHE:     397414
LLC WQ	ACCESS:      41902	FORWARD:          0	MERGED:          0	TO_CACHE:      41902
LLC PQ	ACCESS:     216924	FORWARD:          0	MERGED:          0	TO_CACHE:     216924

LLC Dense regions hint to LLC: 0

RAW hits: 557885
Loads Generated: 12290549
Loads sent to L1D: 11732664
Stores Generated: 6762616
Stores sent to L1D: 6762627
Major fault: 0 Minor fault: 5563
Allocated PAGES: 5563

stream: 
stream:times selected: 1055711
stream:pref_filled: 122380
stream:pref_useful: 22937
stream:pref_late: 24436
stream:misses: 13947
stream:misses_by_poll: 0

CS: 
CS:times selected: 164946
CS:pref_filled: 117832
CS:pref_useful: 101531
CS:pref_late: 3549
CS:misses: 9352
CS:misses_by_poll: 69

CPLX: 
CPLX:times selected: 888167
CPLX:pref_filled: 375042
CPLX:pref_useful: 183376
CPLX:pref_late: 10736
CPLX:misses: 127066
CPLX:misses_by_poll: 408

NL_L1: 
NL:times selected: 2146
NL:pref_filled: 290
NL:pref_useful: 22
NL:pref_late: 9
NL:misses: 94
NL:misses_by_poll: 0

total selections: 2110970
total_filled: 520931
total_useful: 260857
total_late: 51743
total_polluted: 477
total_misses_after_warmup: 959560
conflicts: 3255193
Degree Incremented Times: 30260
Degree Decremented Times: 58183

L1 IP Table Write Accesses: 5091710
L1 IP Table Read Accesses: 1836517
L1 RST Write Accesses: 879907
L1 RST Read Accesses: 1759814
L1 CSPT Write Accesses: 879907
L1 CSPT Read Accesses: 2940123
L1 RR Filter Tag Write Accesses: 900600
L1 RR Filter Tag Read Accesses: 69105218
L1 IP Table Tag Write Accesses: 8626759
L1 IP Table Tag Read Accesses: 8626759
L1 RST Tag Write Accesses: 0
L1 RST Tag Read Accesses: 6808781
L1 RR Filter Write Accesses: 0
L1 RR Filter Read Accesses: 2445168
test: 170081
L2 IP Table Read Accesses: 2066109
L2 IP Table Write Accesses: 2599004
L2 IP Table Tag Read Accesses: 1416069
L2 IP Table Tag Write Accesses: 1416069

DRAM Statistics
 CHANNEL 0
 RQ ROW_BUFFER_HIT:      21970  ROW_BUFFER_MISS:      54034
 DBUS_CONGESTED:         42
 WQ ROW_BUFFER_HIT:        724  ROW_BUFFER_MISS:       2528  FULL:          0

 AVG_CONGESTED_CYCLE: 4
 All warmup complete: 2
Channel 0 Bank busy for read cycles: 0
Channel 0 Bank busy for write cycles: 0
Channel 0
Rank 0
0banks busy for read cycles: 118196317
0banks busy for write cycles: 2017
1banks busy for read cycles: 2002055
1banks busy for write cycles: 354061
2banks busy for read cycles: 1153090
2banks busy for write cycles: 106285
3banks busy for read cycles: 606008
3banks busy for write cycles: 38367
4banks busy for read cycles: 360057
4banks busy for write cycles: 10253
5banks busy for read cycles: 171764
5banks busy for write cycles: 3687
6banks busy for read cycles: 74476
6banks busy for write cycles: 2011
7banks busy for read cycles: 29700
7banks busy for write cycles: 276
8banks busy for read cycles: 15490
8banks busy for write cycles: 1481

CPU 0 Branch Prediction Accuracy: 92.2315% MPKI: 14.6258 Average ROB Occupancy at Mispredict: 19.1981
Branch types
NOT_BRANCH: 40586081 81.1722%
BRANCH_DIRECT_JUMP: 522168 1.04434%
BRANCH_INDIRECT: 166479 0.332958%
BRANCH_CONDITIONAL: 6366960 12.7339%
BRANCH_DIRECT_CALL: 991455 1.98291%
BRANCH_INDIRECT_CALL: 187516 0.375032%
BRANCH_RETURN: 1178986 2.35797%
BRANCH_OTHER: 0 0%

@sumon_overall_L1D    260857     46935    260085    520931   1800885   1800902
@Sumon_Early_by_class_L1D     18298     93104    147682         4
@Sumon_Late_by_class_L1D     23330      3250      7559         4

@Sumon_Early_by_cycle_L1D    232030      7651      3254      2358       458      3209      1445      1942      4329      3850       326         5
@Sumon_Late_by_cycle_L1D     45341      1562        32         0         0         0         0         0         0         0         0         0
@Sumon_Early_stream_L1D      7311      2552      1283       830       351      1321       775       923      1855      1079        17         1
@Sumon_Early_CS_L1D     89952      2299       673       113         0         0         0         0         8        59         0         0
@Sumon_Early_CPLX_L1D    134201      2684      1281      1412       103      1874       510      1012      1682      2610       309         4
@Sumon_Late_stream_L1D     22222      1084        24         0         0         0         0         0         0         0         0         0
@Sumon_Late_CS_L1D      3072       177         1         0         0         0         0         0         0         0         0         0
@Sumon_Late_CPLX_L1D      7308       245         6         0         0         0         0         0         0         0         0         0
@sumon_overall_L2C      9743      1865    205292    215059   1021523   1021523
@Sumon_Early_by_class_L2C       742       148      1080         0
@Sumon_Late_by_class_L2C         0        93         0         0

@Sumon_Early_by_cycle_L2C      2039       839       357       537       491      1342       372       913       122       248       752      1731
@Sumon_Late_by_cycle_L2C      1197       661         7         0         0         0         0         0         0         0         0         0
@Sumon_Early_stream_L2C         0         0         0         0         0         0         0         0         0        62       328       352
@Sumon_Early_CS_L2C        37        15         5         0         0         0         0         0         1         0         4        86
@Sumon_Early_CPLX_L2C         0         0         0         0         0         0         0         0         0        22       259       799
@Sumon_Late_stream_L2C         0         0         0         0         0         0         0         0         0         0         0         0
@Sumon_Late_CS_L2C        92         1         0         0         0         0         0         0         0         0         0         0
@Sumon_Late_CPLX_L2C         0         0         0         0         0         0         0         0         0         0         0         0
DRAM PAGES: 1048576
Allocated PAGES: 5563
