
*** ChampSim Multicore Out-of-Order Simulator ***

Warmup Instructions: 10000000
Simulation Instructions: 50000000
Number of CPUs: 1
LLC sets: 2048
LLC ways: 16
Off-chip DRAM Size: 4096 MB Channels: 1 Width: 64-bit Data Rate: 6400 MT/s
CPU 0 runs traces/clientserver/server_013.champsimtrace.xz
.xz
CPU 0 Bimodal branch predictor
BTB has LRU replacement policy
ITLB has LRU replacement policy
DTLB has LRU replacement policy
STLB has LRU replacement policy
L1I has LRU replacement policy
IP Table Entries: 256
L1D has LRU replacement policy
IP_Table L2 entries: 256
Initialize SRRIP state for L2C
LLC has LRU replacement policy
Heartbeat CPU 0 instructions: 10000000 cycles: 2772556 heartbeat IPC: 3.60678 cumulative IPC: 3.60678 (Simulation time: 0 hr 16 min 27 sec) 

Warmup complete CPU 0 instructions: 10000004 cycles: 2772557 (Simulation time: 0 hr 16 min 27 sec) 

Heartbeat CPU 0 instructions: 20000001 cycles: 23779718 heartbeat IPC: 0.476028 cumulative IPC: 0.476028 (Simulation time: 0 hr 32 min 59 sec) 
Heartbeat CPU 0 instructions: 30000002 cycles: 44667427 heartbeat IPC: 0.47875 cumulative IPC: 0.477385 (Simulation time: 0 hr 49 min 21 sec) 
Heartbeat CPU 0 instructions: 40000002 cycles: 65560443 heartbeat IPC: 0.478629 cumulative IPC: 0.477799 (Simulation time: 1 hr 5 min 53 sec) 
Heartbeat CPU 0 instructions: 50000000 cycles: 86862982 heartbeat IPC: 0.469428 cumulative IPC: 0.475678 (Simulation time: 1 hr 22 min 30 sec) 
Killed
*** Reached end of trace for Core: 0 Repeating trace: traces/clientserver/server_013.champsimtrace.xz
Heartbeat CPU 0 instructions: 60000001 cycles: 107951786 heartbeat IPC: 0.474185 cumulative IPC: 0.475379 (Simulation time: 2 hr 50 min 33 sec) 
Finished CPU 0 instructions: 50000001 cycles: 105179230 cumulative IPC: 0.475379 (Simulation time: 2 hr 52 min 7 sec) 

ChampSim completed all CPUs

Region of Interest Statistics

CPU 0 cumulative IPC: 0.475379 instructions: 50000001 cycles: 105179230
ITLB TOTAL     ACCESS:    7877978  HIT:    7676525  MISS:     201453  HIT %:    97.4428  MISS %:    2.55717   MPKI: 4.02906
ITLB LOAD TRANSLATION ACCESS:    7877978  HIT:    7676525  MISS:     201453  HIT %:    97.4428  MISS %:    2.55717   MPKI: 4.02906
ITLB PREFETCH  REQUESTED:          0  ISSUED:          0  USEFUL:          0  USELESS:          0
ITLB USEFUL LOAD PREFETCHES:          0 PREFETCH ISSUED TO LOWER LEVEL:          0  ACCURACY: -nan
ITLB TIMELY PREFETCHES:          0 LATE PREFETCHES: 0 DROPPED PREFETCHES: 0
ITLB PREFETCHES SAME FILL-ORIGIN LEVEL: 0 DIFFERENT FILL-ORIGIN LEVEL: 0
ITLB AVERAGE MISS LATENCY: 17.4728 cycles
ITLB RQ	ACCESS:    9668413	FORWARD:          0	MERGED:    1737951	TO_CACHE:    7930462

DTLB TOTAL     ACCESS:   10075802  HIT:    9418118  MISS:     657684  HIT %:    93.4726  MISS %:    6.52736   MPKI: 13.1537
DTLB LOAD TRANSLATION ACCESS:   10075802  HIT:    9418118  MISS:     657684  HIT %:    93.4726  MISS %:    6.52736   MPKI: 13.1537
DTLB PREFETCH  REQUESTED:          0  ISSUED:          0  USEFUL:          0  USELESS:          0
DTLB USEFUL LOAD PREFETCHES:          0 PREFETCH ISSUED TO LOWER LEVEL:          0  ACCURACY: -nan
DTLB TIMELY PREFETCHES:          0 LATE PREFETCHES: 0 DROPPED PREFETCHES: 0
DTLB PREFETCHES SAME FILL-ORIGIN LEVEL: 0 DIFFERENT FILL-ORIGIN LEVEL: 0
DTLB AVERAGE MISS LATENCY: 14.9757 cycles
DTLB RQ	ACCESS:   12424212	FORWARD:          0	MERGED:    2310734	TO_CACHE:   10113478

STLB TOTAL     ACCESS:    1047012  HIT:     926612  MISS:     120400  HIT %:    88.5006  MISS %:    11.4994   MPKI: 2.408
STLB LOAD TRANSLATION ACCESS:     859137  HIT:     738737  MISS:     120400  HIT %:    85.9859  MISS %:    14.0141   MPKI: 2.408
STLB TRANSLATION FROM L1D PREFETCHER ACCESS:     187875  HIT:     187875  MISS:          0  HIT %:        100  MISS %:          0   MPKI: 0
STLB PREFETCH  REQUESTED:          0  ISSUED:          0  USEFUL:          0  USELESS:          0
STLB USEFUL LOAD PREFETCHES:          0 PREFETCH ISSUED TO LOWER LEVEL:          0  ACCURACY: -nan
STLB TIMELY PREFETCHES:          0 LATE PREFETCHES: 0 DROPPED PREFETCHES: 0
STLB PREFETCHES SAME FILL-ORIGIN LEVEL: 0 DIFFERENT FILL-ORIGIN LEVEL: 0
STLB AVERAGE MISS LATENCY: 46.6797 cycles
STLB RQ	ACCESS:    1096793	FORWARD:          0	MERGED:      49781	TO_CACHE:    1047012

STLB Hit, L1D data hit: 0
STLB Hit, L2C data hit: 0
STLB Hit, LLC data hit: 0
STLB Hit, LLC data miss: 0
STLB STLB hints to L2: 0
L1D TOTAL     ACCESS:   12524178  HIT:   11790894  MISS:     733284  HIT %:    94.1451  MISS %:    5.85495   MPKI: 14.6657
L1D LOAD      ACCESS:    7283630  HIT:    6737716  MISS:     545914  HIT %:    92.5049  MISS %:    7.49508   MPKI: 10.9183
L1D RFO       ACCESS:    5018175  HIT:    4927787  MISS:      90388  HIT %:    98.1988  MISS %:    1.80121   MPKI: 1.80776
L1D PREFETCH  ACCESS:     222373  HIT:     125391  MISS:      96982  HIT %:    56.3877  MISS %:    43.6123   MPKI: 1.93964
L1D PREFETCH  REQUESTED:     475603  ISSUED:     475445  USEFUL:      28085  USELESS:      68865
L1D USEFUL LOAD PREFETCHES:      28085 PREFETCH ISSUED TO LOWER LEVEL:     103780  ACCURACY: 27.0621
L1D TIMELY PREFETCHES:      28085 LATE PREFETCHES: 6616 DROPPED PREFETCHES: 0
L1D PREFETCHES SAME FILL-ORIGIN LEVEL: 103780 DIFFERENT FILL-ORIGIN LEVEL: 0
L1D AVERAGE MISS LATENCY: 497494 cycles
L1D RQ	ACCESS:   10683243	FORWARD:          0	MERGED:    3291967	TO_CACHE:    7307441
L1D WQ	ACCESS:    5206575	FORWARD:      83968	MERGED:      89804	TO_CACHE:    5116771
L1D PQ	ACCESS:     237789	FORWARD:          0	MERGED:          0	TO_CACHE:     237656

L1D UNIQUE REGIONS ACCESSED: 0
L1D REGIONS CONFLICTS: 0
L1D Cross Page Prefetch Requests: 0
L1D Same Page Prefetch Requests: 288619
L1D ROI Sum of L1D PQ occupancy: 3178841
L1D PREFETCHES PUSHED FROM L2C: 0
L1I TOTAL     ACCESS:    9223011  HIT:    7866890  MISS:    1356121  HIT %:    85.2963  MISS %:    14.7037   MPKI: 27.1224
L1I LOAD      ACCESS:    9223011  HIT:    7866890  MISS:    1356121  HIT %:    85.2963  MISS %:    14.7037   MPKI: 27.1224
L1I PREFETCH  REQUESTED:          0  ISSUED:          0  USEFUL:          0  USELESS:          0
L1I USEFUL LOAD PREFETCHES:          0 PREFETCH ISSUED TO LOWER LEVEL:          0  ACCURACY: -nan
L1I TIMELY PREFETCHES:          0 LATE PREFETCHES: 0 DROPPED PREFETCHES: 0
L1I PREFETCHES SAME FILL-ORIGIN LEVEL: 0 DIFFERENT FILL-ORIGIN LEVEL: 0
L1I AVERAGE MISS LATENCY: 30.3926 cycles
L1I RQ	ACCESS:   13846175	FORWARD:          0	MERGED:    4177762	TO_CACHE:    9668413

BTB TOTAL     ACCESS:    4456853  HIT:    3625357  MISS:     831496  HIT %:    81.3434  MISS %:    18.6566   MPKI: 16.6299
BTB BRANCH_DIRECT_JUMP	ACCESS:     468554  HIT:     402189  MISS:      66365
BTB BRANCH_INDIRECT	ACCESS:     146668  HIT:     112797  MISS:      33871
BTB BRANCH_CONDITIONAL	ACCESS:    2145076  HIT:    1868440  MISS:     276636
BTB BRANCH_DIRECT_CALL	ACCESS:     666801  HIT:     540939  MISS:     125862
BTB BRANCH_INDIRECT_CALL	ACCESS:     164452  HIT:     151325  MISS:      13127
BTB BRANCH_RETURN	ACCESS:     865302  HIT:     549667  MISS:     315635
BTB BRANCH_OTHER ACCESS:          0  HIT:          0  MISS:          0

L2C TOTAL     ACCESS:    2944919  HIT:    1641475  MISS:    1303444  HIT %:    55.7392  MISS %:    44.2608   MPKI: 26.0689
L2C LOAD      ACCESS:    1895392  HIT:     985284  MISS:     910108  HIT %:    51.9831  MISS %:    48.0169   MPKI: 18.2022
L2C DATA LOAD MPKI: 4.59548
L2C INSTRUCTION LOAD MPKI: 13.6067
L2C RFO       ACCESS:      90189  HIT:      49781  MISS:      40408  HIT %:    55.1963  MISS %:    44.8037   MPKI: 0.80816
L2C PREFETCH  ACCESS:     543674  HIT:     266328  MISS:     277346  HIT %:    48.9867  MISS %:    51.0133   MPKI: 5.54692
L2C DATA PREFETCH MPKI: 5.54692
L2C INSTRUCTION PREFETCH MPKI: 0
L2C WRITEBACK ACCESS:     263133  HIT:     252463  MISS:      10670  HIT %:     95.945  MISS %:    4.05498   MPKI: 0.2134
L2C LOAD TRANSLATION ACCESS:     152531  HIT:      87619  MISS:      64912  HIT %:    57.4434  MISS %:    42.5566   MPKI: 1.29824
L2C PREFETCH  REQUESTED:     463563  ISSUED:     463563  USEFUL:      60307  USELESS:     217143
L2C USEFUL LOAD PREFETCHES:      60307 PREFETCH ISSUED TO LOWER LEVEL:     283046  ACCURACY: 21.3064
L2C TIMELY PREFETCHES:      60307 LATE PREFETCHES: 5700 DROPPED PREFETCHES: 0
L2C PREFETCHES SAME FILL-ORIGIN LEVEL: 211087 DIFFERENT FILL-ORIGIN LEVEL: 0
L2C AVERAGE MISS LATENCY: 41.7348 cycles
L2C RQ	ACCESS:    2138156	FORWARD:          0	MERGED:          0	TO_CACHE:    2138112
L2C WQ	ACCESS:     263133	FORWARD:         45	MERGED:          0	TO_CACHE:     263133
L2C PQ	ACCESS:     567343	FORWARD:          0	MERGED:       5068	TO_CACHE:     562274

L2C Instructions Evicting Data 290251
L2C Translations Evicting Data 28401
L2C Data Evicting Data 234907
L2C Instructions Evicting Instructions 355727
L2C Translations Evicting Instructions 33585
L2C Data Evicting Instructions 285515
L2C Instructions Evicting Translations 34356
L2C Translations Evicting Translations 2926
L2C Data Evicting Translations 27106
L2C Dense regions hint from L2: 0
PSCL5 TOTAL     ACCESS:     120400  HIT:     120400  MISS:          0  HIT %:        100  MISS %:          0   MPKI: 0
PSCL5 LOAD TRANSLATION ACCESS:     120400  HIT:     120400  MISS:          0  HIT %:        100  MISS %:          0   MPKI: 0
PSCL5 PREFETCH  REQUESTED:          0  ISSUED:          0  USEFUL:          0  USELESS:          0
PSCL5 USEFUL LOAD PREFETCHES:          0 PREFETCH ISSUED TO LOWER LEVEL:          0  ACCURACY: -nan
PSCL5 TIMELY PREFETCHES:          0 LATE PREFETCHES: 0 DROPPED PREFETCHES: 0
PSCL5 PREFETCHES SAME FILL-ORIGIN LEVEL: 0 DIFFERENT FILL-ORIGIN LEVEL: 0

PSCL4 TOTAL     ACCESS:     113149  HIT:     112820  MISS:        329  HIT %:    99.7092  MISS %:   0.290767   MPKI: 0.00658
PSCL4 LOAD TRANSLATION ACCESS:     113149  HIT:     112820  MISS:        329  HIT %:    99.7092  MISS %:   0.290767   MPKI: 0.00658
PSCL4 PREFETCH  REQUESTED:          0  ISSUED:          0  USEFUL:          0  USELESS:          0
PSCL4 USEFUL LOAD PREFETCHES:          0 PREFETCH ISSUED TO LOWER LEVEL:          0  ACCURACY: -nan
PSCL4 TIMELY PREFETCHES:          0 LATE PREFETCHES: 0 DROPPED PREFETCHES: 0
PSCL4 PREFETCHES SAME FILL-ORIGIN LEVEL: 0 DIFFERENT FILL-ORIGIN LEVEL: 0

PSCL3 TOTAL     ACCESS:     119554  HIT:     118547  MISS:       1007  HIT %:    99.1577  MISS %:   0.842297   MPKI: 0.02014
PSCL3 LOAD TRANSLATION ACCESS:     119554  HIT:     118547  MISS:       1007  HIT %:    99.1577  MISS %:   0.842297   MPKI: 0.02014
PSCL3 PREFETCH  REQUESTED:          0  ISSUED:          0  USEFUL:          0  USELESS:          0
PSCL3 USEFUL LOAD PREFETCHES:          0 PREFETCH ISSUED TO LOWER LEVEL:          0  ACCURACY: -nan
PSCL3 TIMELY PREFETCHES:          0 LATE PREFETCHES: 0 DROPPED PREFETCHES: 0
PSCL3 PREFETCHES SAME FILL-ORIGIN LEVEL: 0 DIFFERENT FILL-ORIGIN LEVEL: 0

PSCL2 TOTAL     ACCESS:     120400  HIT:      89508  MISS:      30892  HIT %:    74.3422  MISS %:    25.6578   MPKI: 0.61784
PSCL2 LOAD TRANSLATION ACCESS:     120400  HIT:      89508  MISS:      30892  HIT %:    74.3422  MISS %:    25.6578   MPKI: 0.61784
PSCL2 PREFETCH  REQUESTED:          0  ISSUED:          0  USEFUL:          0  USELESS:          0
PSCL2 USEFUL LOAD PREFETCHES:          0 PREFETCH ISSUED TO LOWER LEVEL:          0  ACCURACY: -nan
PSCL2 TIMELY PREFETCHES:          0 LATE PREFETCHES: 0 DROPPED PREFETCHES: 0
PSCL2 PREFETCHES SAME FILL-ORIGIN LEVEL: 0 DIFFERENT FILL-ORIGIN LEVEL: 0

LLC TOTAL     ACCESS:    1422496  HIT:    1321714  MISS:     100782  HIT %:    92.9151  MISS %:    7.08487   MPKI: 2.01564
LLC LOAD      ACCESS:     904569  HIT:     873494  MISS:      31075  HIT %:    96.5647  MISS %:    3.43534   MPKI: 0.6215
LLC RFO       ACCESS:      40245  HIT:      29757  MISS:      10488  HIT %:    73.9396  MISS %:    26.0604   MPKI: 0.20976
LLC PREFETCH  ACCESS:     283046  HIT:     226704  MISS:      56342  HIT %:    80.0944  MISS %:    19.9056   MPKI: 1.12684
LLC WRITEBACK ACCESS:     129724  HIT:     129120  MISS:        604  HIT %:    99.5344  MISS %:   0.465604   MPKI: 0.01208
LLC LOAD TRANSLATION ACCESS:      64912  HIT:      62639  MISS:       2273  HIT %:    96.4983  MISS %:    3.50166   MPKI: 0.04546
LLC PREFETCH  REQUESTED:          0  ISSUED:          0  USEFUL:       2647  USELESS:      53364
LLC USEFUL LOAD PREFETCHES:       2647 PREFETCH ISSUED TO LOWER LEVEL:      56342  ACCURACY: 4.69809
LLC TIMELY PREFETCHES:       2647 LATE PREFETCHES: 0 DROPPED PREFETCHES: 0
LLC PREFETCHES SAME FILL-ORIGIN LEVEL: 0 DIFFERENT FILL-ORIGIN LEVEL: 0
LLC AVERAGE MISS LATENCY: 157.534 cycles
LLC RQ	ACCESS:    1009728	FORWARD:          0	MERGED:          0	TO_CACHE:    1009726
LLC WQ	ACCESS:     129724	FORWARD:          2	MERGED:          0	TO_CACHE:     129724
LLC PQ	ACCESS:     283046	FORWARD:          0	MERGED:          0	TO_CACHE:     283046

LLC Dense regions hint to LLC: 0

RAW hits: 777369
Loads Generated: 11460612
Loads sent to L1D: 10683243
Stores Generated: 5206582
Stores sent to L1D: 5206575
Major fault: 0 Minor fault: 5143
Allocated PAGES: 5143

stream: 
stream:times selected: 433475
stream:pref_filled: 70119
stream:pref_useful: 20095
stream:pref_late: 3088
stream:misses: 5947
stream:misses_by_poll: 0

CS: 
CS:times selected: 24587
CS:pref_filled: 13585
CS:pref_useful: 9271
CS:pref_late: 3247
CS:misses: 5215
CS:misses_by_poll: 65

CPLX: 
CPLX:times selected: 405500
CPLX:pref_filled: 28745
CPLX:pref_useful: 4056
CPLX:pref_late: 406
CPLX:misses: 32164
CPLX:misses_by_poll: 4

NL_L1: 
NL:times selected: 3506
NL:pref_filled: 1191
NL:pref_useful: 103
NL:pref_late: 19
NL:misses: 362
NL:misses_by_poll: 0

total selections: 867068
total_filled: 96982
total_useful: 28085
total_late: 7174
total_polluted: 69
total_misses_after_warmup: 569728
conflicts: 2499610
Degree Incremented Times: 1
Degree Decremented Times: 119892

L1 IP Table Write Accesses: 4322739
L1 IP Table Read Accesses: 1823129
L1 RST Write Accesses: 362734
L1 RST Read Accesses: 725468
L1 CSPT Write Accesses: 362734
L1 CSPT Read Accesses: 703999
L1 RR Filter Tag Write Accesses: 237947
L1 RR Filter Tag Read Accesses: 14831932
L1 IP Table Tag Write Accesses: 7307444
L1 IP Table Tag Read Accesses: 7307444
L1 RST Tag Write Accesses: 0
L1 RST Tag Read Accesses: 3495832
L1 RR Filter Write Accesses: 0
L1 RR Filter Read Accesses: 534580
test: 121701
L2 IP Table Read Accesses: 803398
L2 IP Table Write Accesses: 1135178
L2 IP Table Tag Read Accesses: 637627
L2 IP Table Tag Write Accesses: 637627

DRAM Statistics
 CHANNEL 0
 RQ ROW_BUFFER_HIT:      18484  ROW_BUFFER_MISS:      81694
 DBUS_CONGESTED:         60
 WQ ROW_BUFFER_HIT:       7678  ROW_BUFFER_MISS:      49882  FULL:          0

 AVG_CONGESTED_CYCLE: 4
 All warmup complete: 2
Channel 0 Bank busy for read cycles: 0
Channel 0 Bank busy for write cycles: 0
Channel 0
Rank 0
0banks busy for read cycles: 89502333
0banks busy for write cycles: 30227
1banks busy for read cycles: 7082539
1banks busy for write cycles: 3996101
2banks busy for read cycles: 1860509
2banks busy for write cycles: 1061027
3banks busy for read cycles: 439995
3banks busy for write cycles: 386842
4banks busy for read cycles: 144407
4banks busy for write cycles: 202232
5banks busy for read cycles: 36866
5banks busy for write cycles: 131335
6banks busy for read cycles: 15249
6banks busy for write cycles: 91834
7banks busy for read cycles: 9204
7banks busy for write cycles: 77266
8banks busy for read cycles: 17862
8banks busy for write cycles: 93403

CPU 0 Branch Prediction Accuracy: 92.9973% MPKI: 13.0091 Average ROB Occupancy at Mispredict: 20.9735
Branch types
NOT_BRANCH: 40711078 81.4222%
BRANCH_DIRECT_JUMP: 468554 0.937108%
BRANCH_INDIRECT: 146668 0.293336%
BRANCH_CONDITIONAL: 6976896 13.9538%
BRANCH_DIRECT_CALL: 666801 1.3336%
BRANCH_INDIRECT_CALL: 164452 0.328904%
BRANCH_RETURN: 865302 1.7306%
BRANCH_OTHER: 0 0%

@sumon_overall_L1D     28085      6616     68865     96982    475445    475603
@Sumon_Early_by_class_L1D     16351      6489      3314        17
@Sumon_Late_by_class_L1D      2852      3013       356        17

@Sumon_Early_by_cycle_L1D      6630      2486      5335      1955      1367      3472      1454      1391      1604      1687       543       161
@Sumon_Late_by_cycle_L1D      5945       662         9         0         0         0         0         0         0         0         0         0
@Sumon_Early_stream_L1D      3391      1751      2127      1353       832      2176      1020      1012      1105      1133       358        93
@Sumon_Early_CS_L1D      2394       184      2596       186       141       539       198       110        68        28        36         9
@Sumon_Early_CPLX_L1D       432       278       363       231       167       502       210       247       321       407       113        43
@Sumon_Late_stream_L1D      2382       464         6         0         0         0         0         0         0         0         0         0
@Sumon_Late_CS_L1D      2903       110         0         0         0         0         0         0         0         0         0         0
@Sumon_Late_CPLX_L1D       321        33         2         0         0         0         0         0         0         0         0         0
@sumon_overall_L2C     60307      5700    217143    277346    463563    463563
@Sumon_Early_by_class_L2C       779       353       392         0
@Sumon_Late_by_class_L2C         0         0         0         0

@Sumon_Early_by_cycle_L2C      9312      7240      7853      4834      3571      9468      4653      2855      2135      2252      1298      4836
@Sumon_Late_by_cycle_L2C      4068      1628         4         0         0         0         0         0         0         0         0         0
@Sumon_Early_stream_L2C         0         0         0         0         0         0         0         0         0        11        73       695
@Sumon_Early_CS_L2C         0         0         0         0         0         0         0         0         0         4        50       299
@Sumon_Early_CPLX_L2C         0         0         0         0         0         0         0         0         2         3        23       364
@Sumon_Late_stream_L2C         0         0         0         0         0         0         0         0         0         0         0         0
@Sumon_Late_CS_L2C         0         0         0         0         0         0         0         0         0         0         0         0
@Sumon_Late_CPLX_L2C         0         0         0         0         0         0         0         0         0         0         0         0
DRAM PAGES: 1048576
Allocated PAGES: 5143
