
*** ChampSim Multicore Out-of-Order Simulator ***

Warmup Instructions: 10000000
Simulation Instructions: 50000000
Number of CPUs: 1
LLC sets: 2048
LLC ways: 16
Off-chip DRAM Size: 4096 MB Channels: 1 Width: 64-bit Data Rate: 6400 MT/s
CPU 0 runs traces/clientserver/server_017.champsimtrace.xz
.xz
CPU 0 Bimodal branch predictor
BTB has LRU replacement policy
ITLB has LRU replacement policy
DTLB has LRU replacement policy
STLB has LRU replacement policy
L1I has LRU replacement policy
IP Table Entries: 256
L1D has LRU replacement policy
IP_Table L2 entries: 256
Initialize SRRIP state for L2C
LLC has LRU replacement policy
Heartbeat CPU 0 instructions: 10000000 cycles: 3152457 heartbeat IPC: 3.17213 cumulative IPC: 3.17213 (Simulation time: 0 hr 19 min 25 sec) 

Warmup complete CPU 0 instructions: 10000004 cycles: 3152459 (Simulation time: 0 hr 19 min 25 sec) 

Heartbeat CPU 0 instructions: 20000000 cycles: 27769398 heartbeat IPC: 0.406224 cumulative IPC: 0.406224 (Simulation time: 0 hr 44 min 38 sec) 
Heartbeat CPU 0 instructions: 30000001 cycles: 52263563 heartbeat IPC: 0.408261 cumulative IPC: 0.40724 (Simulation time: 1 hr 9 min 20 sec) 
Killed
*** Reached end of trace for Core: 0 Repeating trace: traces/clientserver/server_017.champsimtrace.xz
Heartbeat CPU 0 instructions: 40000000 cycles: 76835515 heartbeat IPC: 0.406968 cumulative IPC: 0.407149 (Simulation time: 2 hr 49 min 26 sec) 
Heartbeat CPU 0 instructions: 50000003 cycles: 101313699 heartbeat IPC: 0.408527 cumulative IPC: 0.407493 (Simulation time: 2 hr 53 min 54 sec) 
Heartbeat CPU 0 instructions: 60000002 cycles: 125668177 heartbeat IPC: 0.410602 cumulative IPC: 0.408111 (Simulation time: 3 hr 2 min 36 sec) 
Finished CPU 0 instructions: 50000000 cycles: 122515722 cumulative IPC: 0.408111 (Simulation time: 3 hr 2 min 37 sec) 

ChampSim completed all CPUs

Region of Interest Statistics

CPU 0 cumulative IPC: 0.408111 instructions: 50000000 cycles: 122515722
ITLB TOTAL     ACCESS:    8942998  HIT:    8571732  MISS:     371266  HIT %:    95.8485  MISS %:    4.15147   MPKI: 7.42532
ITLB LOAD TRANSLATION ACCESS:    8942998  HIT:    8571732  MISS:     371266  HIT %:    95.8485  MISS %:    4.15147   MPKI: 7.42532
ITLB PREFETCH  REQUESTED:          0  ISSUED:          0  USEFUL:          0  USELESS:          0
ITLB USEFUL LOAD PREFETCHES:          0 PREFETCH ISSUED TO LOWER LEVEL:          0  ACCURACY: -nan
ITLB TIMELY PREFETCHES:          0 LATE PREFETCHES: 0 DROPPED PREFETCHES: 0
ITLB PREFETCHES SAME FILL-ORIGIN LEVEL: 0 DIFFERENT FILL-ORIGIN LEVEL: 0
ITLB AVERAGE MISS LATENCY: 9.5578 cycles
ITLB RQ	ACCESS:   10520061	FORWARD:          0	MERGED:    1456950	TO_CACHE:    9063111

DTLB TOTAL     ACCESS:   11678337  HIT:   11250126  MISS:     428211  HIT %:    96.3333  MISS %:    3.66671   MPKI: 8.56422
DTLB LOAD TRANSLATION ACCESS:   11678337  HIT:   11250126  MISS:     428211  HIT %:    96.3333  MISS %:    3.66671   MPKI: 8.56422
DTLB PREFETCH  REQUESTED:          0  ISSUED:          0  USEFUL:          0  USELESS:          0
DTLB USEFUL LOAD PREFETCHES:          0 PREFETCH ISSUED TO LOWER LEVEL:          0  ACCURACY: -nan
DTLB TIMELY PREFETCHES:          0 LATE PREFETCHES: 0 DROPPED PREFETCHES: 0
DTLB PREFETCHES SAME FILL-ORIGIN LEVEL: 0 DIFFERENT FILL-ORIGIN LEVEL: 0
DTLB AVERAGE MISS LATENCY: 23.0555 cycles
DTLB RQ	ACCESS:   16666053	FORWARD:          0	MERGED:    4911294	TO_CACHE:   11754759

STLB TOTAL     ACCESS:    1474581  HIT:    1435592  MISS:      38989  HIT %:    97.3559  MISS %:    2.64407   MPKI: 0.77978
STLB LOAD TRANSLATION ACCESS:     799477  HIT:     760488  MISS:      38989  HIT %:    95.1232  MISS %:    4.87681   MPKI: 0.77978
STLB TRANSLATION FROM L1D PREFETCHER ACCESS:     675104  HIT:     675104  MISS:          0  HIT %:        100  MISS %:          0   MPKI: 0
STLB PREFETCH  REQUESTED:          0  ISSUED:          0  USEFUL:          0  USELESS:          0
STLB USEFUL LOAD PREFETCHES:          0 PREFETCH ISSUED TO LOWER LEVEL:          0  ACCURACY: -nan
STLB TIMELY PREFETCHES:          0 LATE PREFETCHES: 0 DROPPED PREFETCHES: 0
STLB PREFETCHES SAME FILL-ORIGIN LEVEL: 0 DIFFERENT FILL-ORIGIN LEVEL: 0
STLB AVERAGE MISS LATENCY: 159.532 cycles
STLB RQ	ACCESS:    1562747	FORWARD:          0	MERGED:      88166	TO_CACHE:    1474581

STLB Hit, L1D data hit: 0
STLB Hit, L2C data hit: 0
STLB Hit, LLC data hit: 0
STLB Hit, LLC data miss: 0
STLB STLB hints to L2: 0
L1D TOTAL     ACCESS:   14712645  HIT:   12798295  MISS:    1914350  HIT %:    86.9884  MISS %:    13.0116   MPKI: 38.287
L1D LOAD      ACCESS:    7980897  HIT:    7403835  MISS:     577062  HIT %:    92.7695  MISS %:    7.23054   MPKI: 11.5412
L1D RFO       ACCESS:    6036705  HIT:    5073330  MISS:     963375  HIT %:    84.0414  MISS %:    15.9586   MPKI: 19.2675
L1D PREFETCH  ACCESS:     695043  HIT:     321130  MISS:     373913  HIT %:    46.2029  MISS %:    53.7971   MPKI: 7.47826
L1D PREFETCH  REQUESTED:    1528459  ISSUED:    1526564  USEFUL:     270375  USELESS:     103554
L1D USEFUL LOAD PREFETCHES:     270375 PREFETCH ISSUED TO LOWER LEVEL:     428099  ACCURACY: 63.1571
L1D TIMELY PREFETCHES:     270375 LATE PREFETCHES: 54166 DROPPED PREFETCHES: 0
L1D PREFETCHES SAME FILL-ORIGIN LEVEL: 428099 DIFFERENT FILL-ORIGIN LEVEL: 0
L1D AVERAGE MISS LATENCY: 1.8209e+06 cycles
L1D RQ	ACCESS:   11514082	FORWARD:          0	MERGED:    3366800	TO_CACHE:    8025057
L1D WQ	ACCESS:    8706852	FORWARD:     122249	MERGED:      65856	TO_CACHE:    8640996
L1D PQ	ACCESS:     763294	FORWARD:          0	MERGED:          0	TO_CACHE:     763270

L1D UNIQUE REGIONS ACCESSED: 0
L1D REGIONS CONFLICTS: 0
L1D Cross Page Prefetch Requests: 0
L1D Same Page Prefetch Requests: 917266
L1D ROI Sum of L1D PQ occupancy: 11692690
L1D PREFETCHES PUSHED FROM L2C: 0
L1I TOTAL     ACCESS:    9801271  HIT:    7417037  MISS:    2384234  HIT %:    75.6742  MISS %:    24.3258   MPKI: 47.6847
L1I LOAD      ACCESS:    9801271  HIT:    7417037  MISS:    2384234  HIT %:    75.6742  MISS %:    24.3258   MPKI: 47.6847
L1I PREFETCH  REQUESTED:          0  ISSUED:          0  USEFUL:          0  USELESS:          0
L1I USEFUL LOAD PREFETCHES:          0 PREFETCH ISSUED TO LOWER LEVEL:          0  ACCURACY: -nan
L1I TIMELY PREFETCHES:          0 LATE PREFETCHES: 0 DROPPED PREFETCHES: 0
L1I PREFETCHES SAME FILL-ORIGIN LEVEL: 0 DIFFERENT FILL-ORIGIN LEVEL: 0
L1I AVERAGE MISS LATENCY: 17.0742 cycles
L1I RQ	ACCESS:   14477523	FORWARD:          0	MERGED:    3957462	TO_CACHE:   10520061

BTB TOTAL     ACCESS:    5346180  HIT:    5081817  MISS:     264363  HIT %:    95.0551  MISS %:     4.9449   MPKI: 5.28726
BTB BRANCH_DIRECT_JUMP	ACCESS:     457018  HIT:     455333  MISS:       1685
BTB BRANCH_INDIRECT	ACCESS:      50307  HIT:      50135  MISS:        172
BTB BRANCH_CONDITIONAL	ACCESS:    3017216  HIT:    3011698  MISS:       5518
BTB BRANCH_DIRECT_CALL	ACCESS:     743142  HIT:     739592  MISS:       3550
BTB BRANCH_INDIRECT_CALL	ACCESS:     167664  HIT:     138918  MISS:      28746
BTB BRANCH_RETURN	ACCESS:     910833  HIT:     686141  MISS:     224692
BTB BRANCH_OTHER ACCESS:          0  HIT:          0  MISS:          0

L2C TOTAL     ACCESS:    5926209  HIT:    3968416  MISS:    1957793  HIT %:    66.9638  MISS %:    33.0362   MPKI: 39.1559
L2C LOAD      ACCESS:    2907113  HIT:    2443277  MISS:     463836  HIT %:    84.0448  MISS %:    15.9552   MPKI: 9.27672
L2C DATA LOAD MPKI: 6.1072
L2C INSTRUCTION LOAD MPKI: 3.16952
L2C RFO       ACCESS:     963332  HIT:      42435  MISS:     920897  HIT %:    4.40502  MISS %:     95.595   MPKI: 18.4179
L2C PREFETCH  ACCESS:     848731  HIT:     354380  MISS:     494351  HIT %:    41.7541  MISS %:    58.2459   MPKI: 9.88702
L2C DATA PREFETCH MPKI: 9.88702
L2C INSTRUCTION PREFETCH MPKI: 0
L2C WRITEBACK ACCESS:    1155226  HIT:    1109460  MISS:      45766  HIT %:    96.0384  MISS %:    3.96165   MPKI: 0.91532
L2C LOAD TRANSLATION ACCESS:      51807  HIT:      18864  MISS:      32943  HIT %:    36.4121  MISS %:    63.5879   MPKI: 0.65886
L2C PREFETCH  REQUESTED:     695664  ISSUED:     695664  USEFUL:      52535  USELESS:     441853
L2C USEFUL LOAD PREFETCHES:      52535 PREFETCH ISSUED TO LOWER LEVEL:     497205  ACCURACY: 10.5661
L2C TIMELY PREFETCHES:      52535 LATE PREFETCHES: 2854 DROPPED PREFETCHES: 0
L2C PREFETCHES SAME FILL-ORIGIN LEVEL: 373133 DIFFERENT FILL-ORIGIN LEVEL: 0
L2C AVERAGE MISS LATENCY: 188.457 cycles
L2C RQ	ACCESS:    3922293	FORWARD:          0	MERGED:          0	TO_CACHE:    3922252
L2C WQ	ACCESS:    1155226	FORWARD:         42	MERGED:          0	TO_CACHE:    1155226
L2C PQ	ACCESS:    1123763	FORWARD:          0	MERGED:      50839	TO_CACHE:    1072923

L2C Instructions Evicting Data 143169
L2C Translations Evicting Data 29611
L2C Data Evicting Data 1551919
L2C Instructions Evicting Instructions 12414
L2C Translations Evicting Instructions 2920
L2C Data Evicting Instructions 139611
L2C Instructions Evicting Translations 2893
L2C Translations Evicting Translations 412
L2C Data Evicting Translations 29078
L2C Dense regions hint from L2: 0
PSCL5 TOTAL     ACCESS:      38989  HIT:      38989  MISS:          0  HIT %:        100  MISS %:          0   MPKI: 0
PSCL5 LOAD TRANSLATION ACCESS:      38989  HIT:      38989  MISS:          0  HIT %:        100  MISS %:          0   MPKI: 0
PSCL5 PREFETCH  REQUESTED:          0  ISSUED:          0  USEFUL:          0  USELESS:          0
PSCL5 USEFUL LOAD PREFETCHES:          0 PREFETCH ISSUED TO LOWER LEVEL:          0  ACCURACY: -nan
PSCL5 TIMELY PREFETCHES:          0 LATE PREFETCHES: 0 DROPPED PREFETCHES: 0
PSCL5 PREFETCHES SAME FILL-ORIGIN LEVEL: 0 DIFFERENT FILL-ORIGIN LEVEL: 0

PSCL4 TOTAL     ACCESS:      38130  HIT:      38017  MISS:        113  HIT %:    99.7036  MISS %:   0.296355   MPKI: 0.00226
PSCL4 LOAD TRANSLATION ACCESS:      38130  HIT:      38017  MISS:        113  HIT %:    99.7036  MISS %:   0.296355   MPKI: 0.00226
PSCL4 PREFETCH  REQUESTED:          0  ISSUED:          0  USEFUL:          0  USELESS:          0
PSCL4 USEFUL LOAD PREFETCHES:          0 PREFETCH ISSUED TO LOWER LEVEL:          0  ACCURACY: -nan
PSCL4 TIMELY PREFETCHES:          0 LATE PREFETCHES: 0 DROPPED PREFETCHES: 0
PSCL4 PREFETCHES SAME FILL-ORIGIN LEVEL: 0 DIFFERENT FILL-ORIGIN LEVEL: 0

PSCL3 TOTAL     ACCESS:      38705  HIT:      38179  MISS:        526  HIT %:     98.641  MISS %:      1.359   MPKI: 0.01052
PSCL3 LOAD TRANSLATION ACCESS:      38705  HIT:      38179  MISS:        526  HIT %:     98.641  MISS %:      1.359   MPKI: 0.01052
PSCL3 PREFETCH  REQUESTED:          0  ISSUED:          0  USEFUL:          0  USELESS:          0
PSCL3 USEFUL LOAD PREFETCHES:          0 PREFETCH ISSUED TO LOWER LEVEL:          0  ACCURACY: -nan
PSCL3 TIMELY PREFETCHES:          0 LATE PREFETCHES: 0 DROPPED PREFETCHES: 0
PSCL3 PREFETCHES SAME FILL-ORIGIN LEVEL: 0 DIFFERENT FILL-ORIGIN LEVEL: 0

PSCL2 TOTAL     ACCESS:      38989  HIT:      26795  MISS:      12194  HIT %:    68.7245  MISS %:    31.2755   MPKI: 0.24388
PSCL2 LOAD TRANSLATION ACCESS:      38989  HIT:      26795  MISS:      12194  HIT %:    68.7245  MISS %:    31.2755   MPKI: 0.24388
PSCL2 PREFETCH  REQUESTED:          0  ISSUED:          0  USEFUL:          0  USELESS:          0
PSCL2 USEFUL LOAD PREFETCHES:          0 PREFETCH ISSUED TO LOWER LEVEL:          0  ACCURACY: -nan
PSCL2 TIMELY PREFETCHES:          0 LATE PREFETCHES: 0 DROPPED PREFETCHES: 0
PSCL2 PREFETCHES SAME FILL-ORIGIN LEVEL: 0 DIFFERENT FILL-ORIGIN LEVEL: 0

LLC TOTAL     ACCESS:    2992806  HIT:    1676072  MISS:    1316734  HIT %:    56.0034  MISS %:    43.9966   MPKI: 26.3347
LLC LOAD      ACCESS:     461296  HIT:     327582  MISS:     133714  HIT %:    71.0134  MISS %:    28.9866   MPKI: 2.67428
LLC RFO       ACCESS:     920583  HIT:     128451  MISS:     792132  HIT %:    13.9532  MISS %:    86.0468   MPKI: 15.8426
LLC PREFETCH  ACCESS:     497205  HIT:     123990  MISS:     373215  HIT %:    24.9374  MISS %:    75.0626   MPKI: 7.4643
LLC WRITEBACK ACCESS:    1080779  HIT:    1079452  MISS:       1327  HIT %:    99.8772  MISS %:   0.122782   MPKI: 0.02654
LLC LOAD TRANSLATION ACCESS:      32943  HIT:      16597  MISS:      16346  HIT %:     50.381  MISS %:     49.619   MPKI: 0.32692
LLC PREFETCH  REQUESTED:          0  ISSUED:          0  USEFUL:       6918  USELESS:     366431
LLC USEFUL LOAD PREFETCHES:       6918 PREFETCH ISSUED TO LOWER LEVEL:     373215  ACCURACY: 1.85362
LLC TIMELY PREFETCHES:       6918 LATE PREFETCHES: 0 DROPPED PREFETCHES: 0
LLC PREFETCHES SAME FILL-ORIGIN LEVEL: 0 DIFFERENT FILL-ORIGIN LEVEL: 0
LLC AVERAGE MISS LATENCY: 235.767 cycles
LLC RQ	ACCESS:    1414822	FORWARD:          0	MERGED:          0	TO_CACHE:    1414822
LLC WQ	ACCESS:    1080778	FORWARD:          0	MERGED:          0	TO_CACHE:    1080778
LLC PQ	ACCESS:     497205	FORWARD:          0	MERGED:          0	TO_CACHE:     497205

LLC Dense regions hint to LLC: 0

RAW hits: 891335
Loads Generated: 12405418
Loads sent to L1D: 11514082
Stores Generated: 8706828
Stores sent to L1D: 8706852
Major fault: 0 Minor fault: 13243
Allocated PAGES: 13243

stream: 
stream:times selected: 2332245
stream:pref_filled: 91032
stream:pref_useful: 13260
stream:pref_late: 2436
stream:misses: 19425
stream:misses_by_poll: 0

CS: 
CS:times selected: 2010078
CS:pref_filled: 332258
CS:pref_useful: 319569
CS:pref_late: 50869
CS:misses: 55998
CS:misses_by_poll: 527

CPLX: 
CPLX:times selected: 315322
CPLX:pref_filled: 32698
CPLX:pref_useful: 1458
CPLX:pref_late: 175
CPLX:misses: 59414
CPLX:misses_by_poll: 30

NL_L1: 
NL:times selected: 1013
NL:pref_filled: 364
NL:pref_useful: 19
NL:pref_late: 11
NL:misses: 427
NL:misses_by_poll: 0

total selections: 4658658
total_filled: 373913
total_useful: 270375
total_late: 54826
total_polluted: 557
total_misses_after_warmup: 621222
conflicts: 2653379
Degree Incremented Times: 63647
Degree Decremented Times: 125625

L1 IP Table Write Accesses: 5198533
L1 IP Table Read Accesses: 2545154
L1 RST Write Accesses: 1940053
L1 RST Read Accesses: 3880106
L1 CSPT Write Accesses: 1940053
L1 CSPT Read Accesses: 2200283
L1 RR Filter Tag Write Accesses: 765189
L1 RR Filter Tag Read Accesses: 214204766
L1 IP Table Tag Write Accesses: 8025057
L1 IP Table Tag Read Accesses: 8025057
L1 RST Tag Write Accesses: 0
L1 RST Tag Read Accesses: 17780980
L1 RR Filter Write Accesses: 0
L1 RR Filter Read Accesses: 6980361
test: 162828
L2 IP Table Read Accesses: 1160261
L2 IP Table Write Accesses: 1240847
L2 IP Table Tag Read Accesses: 747403
L2 IP Table Tag Write Accesses: 747403

DRAM Statistics
 CHANNEL 0
 RQ ROW_BUFFER_HIT:     441417  ROW_BUFFER_MISS:     873941
 DBUS_CONGESTED:        446
 WQ ROW_BUFFER_HIT:     280562  ROW_BUFFER_MISS:     596732  FULL:          0

 AVG_CONGESTED_CYCLE: 3
 All warmup complete: 2
Channel 0 Bank busy for read cycles: 0
Channel 0 Bank busy for write cycles: 0
Channel 0
Rank 0
0banks busy for read cycles: 40902281
0banks busy for write cycles: 51176
1banks busy for read cycles: 16015767
1banks busy for write cycles: 6490847
2banks busy for read cycles: 9748957
2banks busy for write cycles: 3789972
3banks busy for read cycles: 6421883
3banks busy for write cycles: 2605313
4banks busy for read cycles: 6900970
4banks busy for write cycles: 2046779
5banks busy for read cycles: 2190326
5banks busy for write cycles: 1664446
6banks busy for read cycles: 1962045
6banks busy for write cycles: 1495944
7banks busy for read cycles: 1587400
7banks busy for write cycles: 2093322
8banks busy for read cycles: 5031419
8banks busy for write cycles: 11516876

CPU 0 Branch Prediction Accuracy: 96.2297% MPKI: 6.24394 Average ROB Occupancy at Mispredict: 51.9244
Branch types
NOT_BRANCH: 41719324 83.4386%
BRANCH_DIRECT_JUMP: 457018 0.914036%
BRANCH_INDIRECT: 50307 0.100614%
BRANCH_CONDITIONAL: 5951379 11.9028%
BRANCH_DIRECT_CALL: 743142 1.48628%
BRANCH_INDIRECT_CALL: 167664 0.335328%
BRANCH_RETURN: 910833 1.82167%
BRANCH_OTHER: 0 0%

@sumon_overall_L1D    270375     54166    103554    373913   1526564   1528459
@Sumon_Early_by_class_L1D     10342    257603      1173        11
@Sumon_Late_by_class_L1D      1915     50803       126        11

@Sumon_Early_by_cycle_L1D    106089    144163     13395      1063       212       912       411       258      1838      1852        97        85
@Sumon_Late_by_cycle_L1D     34330     15575      4087       174         0         0         0         0         0         0         0         0
@Sumon_Early_stream_L1D      7606       230       170        27        42       541       123        75        98      1259        91        80
@Sumon_Early_CS_L1D     97190    143741     13154       959       105       119       113        65      1699       458         0         0
@Sumon_Early_CPLX_L1D       304        83        31        71        61       231       156        80        37       109         5         5
@Sumon_Late_stream_L1D       691      1216         8         0         0         0         0         0         0         0         0         0
@Sumon_Late_CS_L1D     32709     13841      4079       174         0         0         0         0         0         0         0         0
@Sumon_Late_CPLX_L1D        42        84         0         0         0         0         0         0         0         0         0         0
@sumon_overall_L2C     52535      2854    441853    494351    695664    695664
@Sumon_Early_by_class_L2C      1485      1695       268         0
@Sumon_Late_by_class_L2C         0       564         0         0

@Sumon_Early_by_cycle_L2C      7163      6552      5581      2109      1596     11681      3286       574      3738      2241      2436      5578
@Sumon_Late_by_cycle_L2C      1797      1045        12         0         0         0         0         0         0         0         0         0
@Sumon_Early_stream_L2C         0         0         0         0         0         0         0        12        10       213       551       699
@Sumon_Early_CS_L2C       652       129        38        25         7        54        25        53       117       100       180       315
@Sumon_Early_CPLX_L2C         0         0         0         0         0         0         2       100        16        27        31        92
@Sumon_Late_stream_L2C         0         0         0         0         0         0         0         0         0         0         0         0
@Sumon_Late_CS_L2C       354       206         4         0         0         0         0         0         0         0         0         0
@Sumon_Late_CPLX_L2C         0         0         0         0         0         0         0         0         0         0         0         0
DRAM PAGES: 1048576
Allocated PAGES: 13243
