
*** ChampSim Multicore Out-of-Order Simulator ***

Warmup Instructions: 10000000
Simulation Instructions: 50000000
Number of CPUs: 1
LLC sets: 2048
LLC ways: 16
Off-chip DRAM Size: 4096 MB Channels: 1 Width: 64-bit Data Rate: 6400 MT/s
CPU 0 runs traces/clientserver/server_001.champsimtrace.xz
.xz
CPU 0 Bimodal branch predictor
BTB has LRU replacement policy
ITLB has LRU replacement policy
DTLB has LRU replacement policy
STLB has LRU replacement policy
L1I has LRU replacement policy
IP Table Entries: 256
L1D has LRU replacement policy
IP_Table L2 entries: 256
Initialize SRRIP state for L2C
LLC has LRU replacement policy
Heartbeat CPU 0 instructions: 10000003 cycles: 2755954 heartbeat IPC: 3.62851 cumulative IPC: 3.62851 (Simulation time: 0 hr 15 min 58 sec) 

Warmup complete CPU 0 instructions: 10000003 cycles: 2755954 (Simulation time: 0 hr 15 min 58 sec) 

Heartbeat CPU 0 instructions: 20000003 cycles: 19441780 heartbeat IPC: 0.599311 cumulative IPC: 0.599311 (Simulation time: 0 hr 33 min 12 sec) 
Heartbeat CPU 0 instructions: 30000000 cycles: 35931111 heartbeat IPC: 0.606453 cumulative IPC: 0.602861 (Simulation time: 0 hr 49 min 59 sec) 
Heartbeat CPU 0 instructions: 40000002 cycles: 52997661 heartbeat IPC: 0.585942 cumulative IPC: 0.597113 (Simulation time: 1 hr 7 min 4 sec) 
Heartbeat CPU 0 instructions: 50000002 cycles: 69338873 heartbeat IPC: 0.61195 cumulative IPC: 0.600755 (Simulation time: 1 hr 24 min 14 sec) 
Heartbeat CPU 0 instructions: 60000002 cycles: 86190781 heartbeat IPC: 0.593405 cumulative IPC: 0.59927 (Simulation time: 3 hr 24 min 43 sec) 
Finished CPU 0 instructions: 50000003 cycles: 83434828 cumulative IPC: 0.59927 (Simulation time: 3 hr 24 min 43 sec) 

ChampSim completed all CPUs

Region of Interest Statistics

CPU 0 cumulative IPC: 0.59927 instructions: 50000003 cycles: 83434828
ITLB TOTAL     ACCESS:    7433686  HIT:    7334150  MISS:      99536  HIT %:     98.661  MISS %:    1.33899   MPKI: 1.99072
ITLB LOAD TRANSLATION ACCESS:    7433686  HIT:    7334150  MISS:      99536  HIT %:     98.661  MISS %:    1.33899   MPKI: 1.99072
ITLB PREFETCH  REQUESTED:          0  ISSUED:          0  USEFUL:          0  USELESS:          0
ITLB USEFUL LOAD PREFETCHES:          0 PREFETCH ISSUED TO LOWER LEVEL:          0  ACCURACY: -nan
ITLB TIMELY PREFETCHES:          0 LATE PREFETCHES: 0 DROPPED PREFETCHES: 0
ITLB PREFETCHES SAME FILL-ORIGIN LEVEL: 0 DIFFERENT FILL-ORIGIN LEVEL: 0
ITLB AVERAGE MISS LATENCY: 15.3761 cycles
ITLB RQ	ACCESS:    9204440	FORWARD:          0	MERGED:    1739871	TO_CACHE:    7464569

DTLB TOTAL     ACCESS:   10245261  HIT:    9939311  MISS:     305950  HIT %:    97.0137  MISS %:    2.98626   MPKI: 6.119
DTLB LOAD TRANSLATION ACCESS:   10245261  HIT:    9939311  MISS:     305950  HIT %:    97.0137  MISS %:    2.98626   MPKI: 6.119
DTLB PREFETCH  REQUESTED:          0  ISSUED:          0  USEFUL:          0  USELESS:          0
DTLB USEFUL LOAD PREFETCHES:          0 PREFETCH ISSUED TO LOWER LEVEL:          0  ACCURACY: -nan
DTLB TIMELY PREFETCHES:          0 LATE PREFETCHES: 0 DROPPED PREFETCHES: 0
DTLB PREFETCHES SAME FILL-ORIGIN LEVEL: 0 DIFFERENT FILL-ORIGIN LEVEL: 0
DTLB AVERAGE MISS LATENCY: 21.9188 cycles
DTLB RQ	ACCESS:   12477549	FORWARD:          0	MERGED:    2218121	TO_CACHE:   10259428

STLB TOTAL     ACCESS:     750296  HIT:     717788  MISS:      32508  HIT %:    95.6673  MISS %:    4.33269   MPKI: 0.65016
STLB LOAD TRANSLATION ACCESS:     405486  HIT:     372978  MISS:      32508  HIT %:     91.983  MISS %:    8.01705   MPKI: 0.65016
STLB TRANSLATION FROM L1D PREFETCHER ACCESS:     344810  HIT:     344810  MISS:          0  HIT %:        100  MISS %:          0   MPKI: 0
STLB PREFETCH  REQUESTED:          0  ISSUED:          0  USEFUL:          0  USELESS:          0
STLB USEFUL LOAD PREFETCHES:          0 PREFETCH ISSUED TO LOWER LEVEL:          0  ACCURACY: -nan
STLB TIMELY PREFETCHES:          0 LATE PREFETCHES: 0 DROPPED PREFETCHES: 0
STLB PREFETCHES SAME FILL-ORIGIN LEVEL: 0 DIFFERENT FILL-ORIGIN LEVEL: 0
STLB AVERAGE MISS LATENCY: 140.782 cycles
STLB RQ	ACCESS:     862296	FORWARD:          0	MERGED:     111999	TO_CACHE:     750297

STLB Hit, L1D data hit: 0
STLB Hit, L2C data hit: 0
STLB Hit, LLC data hit: 0
STLB Hit, LLC data miss: 0
STLB STLB hints to L2: 0
L1D TOTAL     ACCESS:   12590801  HIT:   12114061  MISS:     476740  HIT %:    96.2136  MISS %:    3.78642   MPKI: 9.5348
L1D LOAD      ACCESS:    7010009  HIT:    6783492  MISS:     226517  HIT %:    96.7687  MISS %:    3.23134   MPKI: 4.53034
L1D RFO       ACCESS:    5141668  HIT:    5041327  MISS:     100341  HIT %:    98.0485  MISS %:    1.95153   MPKI: 2.00682
L1D PREFETCH  ACCESS:     439124  HIT:     289242  MISS:     149882  HIT %:     65.868  MISS %:     34.132   MPKI: 2.99764
L1D PREFETCH  REQUESTED:     913731  ISSUED:     913728  USEFUL:     102762  USELESS:      47065
L1D USEFUL LOAD PREFETCHES:     102762 PREFETCH ISSUED TO LOWER LEVEL:     158058  ACCURACY: 65.0154
L1D TIMELY PREFETCHES:     102762 LATE PREFETCHES: 7841 DROPPED PREFETCHES: 0
L1D PREFETCHES SAME FILL-ORIGIN LEVEL: 158058 DIFFERENT FILL-ORIGIN LEVEL: 0
L1D AVERAGE MISS LATENCY: 729086 cycles
L1D RQ	ACCESS:   10696322	FORWARD:          0	MERGED:    3591302	TO_CACHE:    7034735
L1D WQ	ACCESS:    5532902	FORWARD:      70395	MERGED:      90088	TO_CACHE:    5442814
L1D PQ	ACCESS:     456919	FORWARD:          0	MERGED:          0	TO_CACHE:     456809

L1D UNIQUE REGIONS ACCESSED: 0
L1D REGIONS CONFLICTS: 0
L1D Cross Page Prefetch Requests: 0
L1D Same Page Prefetch Requests: 549997
L1D ROI Sum of L1D PQ occupancy: 6039844
L1D PREFETCHES PUSHED FROM L2C: 0
L1I TOTAL     ACCESS:    8993134  HIT:    8484726  MISS:     508408  HIT %:    94.3467  MISS %:    5.65329   MPKI: 10.1682
L1I LOAD      ACCESS:    8993134  HIT:    8484726  MISS:     508408  HIT %:    94.3467  MISS %:    5.65329   MPKI: 10.1682
L1I PREFETCH  REQUESTED:          0  ISSUED:          0  USEFUL:          0  USELESS:          0
L1I USEFUL LOAD PREFETCHES:          0 PREFETCH ISSUED TO LOWER LEVEL:          0  ACCURACY: -nan
L1I TIMELY PREFETCHES:          0 LATE PREFETCHES: 0 DROPPED PREFETCHES: 0
L1I PREFETCHES SAME FILL-ORIGIN LEVEL: 0 DIFFERENT FILL-ORIGIN LEVEL: 0
L1I AVERAGE MISS LATENCY: 36.8601 cycles
L1I RQ	ACCESS:   13336176	FORWARD:          0	MERGED:    4131736	TO_CACHE:    9204440

BTB TOTAL     ACCESS:    4006890  HIT:    3708548  MISS:     298342  HIT %:    92.5543  MISS %:    7.44572   MPKI: 5.96684
BTB BRANCH_DIRECT_JUMP	ACCESS:     351730  HIT:     340341  MISS:      11389
BTB BRANCH_INDIRECT	ACCESS:     151140  HIT:      90845  MISS:      60295
BTB BRANCH_CONDITIONAL	ACCESS:    2268956  HIT:    2221473  MISS:      47483
BTB BRANCH_DIRECT_CALL	ACCESS:     577844  HIT:     558069  MISS:      19775
BTB BRANCH_INDIRECT_CALL	ACCESS:      27215  HIT:      24769  MISS:       2446
BTB BRANCH_RETURN	ACCESS:     630005  HIT:     473051  MISS:     156954
BTB BRANCH_OTHER ACCESS:          0  HIT:          0  MISS:          0

L2C TOTAL     ACCESS:    1501558  HIT:     945657  MISS:     555901  HIT %:    62.9784  MISS %:    37.0216   MPKI: 11.118
L2C LOAD      ACCESS:     727083  HIT:     455479  MISS:     271604  HIT %:    62.6447  MISS %:    37.3553   MPKI: 5.43208
L2C DATA LOAD MPKI: 2.36936
L2C INSTRUCTION LOAD MPKI: 3.06272
L2C RFO       ACCESS:     100006  HIT:      19085  MISS:      80921  HIT %:    19.0839  MISS %:    80.9161   MPKI: 1.61842
L2C PREFETCH  ACCESS:     421571  HIT:     246969  MISS:     174602  HIT %:     58.583  MISS %:     41.417   MPKI: 3.49204
L2C DATA PREFETCH MPKI: 3.49204
L2C INSTRUCTION PREFETCH MPKI: 0
L2C WRITEBACK ACCESS:     211689  HIT:     205907  MISS:       5782  HIT %:    97.2686  MISS %:    2.73137   MPKI: 0.11564
L2C LOAD TRANSLATION ACCESS:      41209  HIT:      18217  MISS:      22992  HIT %:    44.2064  MISS %:    55.7936   MPKI: 0.45984
L2C PREFETCH  REQUESTED:     342601  ISSUED:     342601  USEFUL:      44160  USELESS:     130985
L2C USEFUL LOAD PREFETCHES:      44160 PREFETCH ISSUED TO LOWER LEVEL:     178924  ACCURACY: 24.6809
L2C TIMELY PREFETCHES:      44160 LATE PREFETCHES: 4322 DROPPED PREFETCHES: 0
L2C PREFETCHES SAME FILL-ORIGIN LEVEL: 113298 DIFFERENT FILL-ORIGIN LEVEL: 0
L2C AVERAGE MISS LATENCY: 121.879 cycles
L2C RQ	ACCESS:     868300	FORWARD:          0	MERGED:          0	TO_CACHE:     868299
L2C WQ	ACCESS:     211689	FORWARD:          1	MERGED:          0	TO_CACHE:     211689
L2C PQ	ACCESS:     500659	FORWARD:          0	MERGED:      67494	TO_CACHE:     433165

L2C Instructions Evicting Data 103446
L2C Translations Evicting Data 15572
L2C Data Evicting Data 258603
L2C Instructions Evicting Instructions 43776
L2C Translations Evicting Instructions 6518
L2C Data Evicting Instructions 99694
L2C Instructions Evicting Translations 5914
L2C Translations Evicting Translations 902
L2C Data Evicting Translations 15694
L2C Dense regions hint from L2: 0
PSCL5 TOTAL     ACCESS:      32509  HIT:      32509  MISS:          0  HIT %:        100  MISS %:          0   MPKI: 0
PSCL5 LOAD TRANSLATION ACCESS:      32509  HIT:      32509  MISS:          0  HIT %:        100  MISS %:          0   MPKI: 0
PSCL5 PREFETCH  REQUESTED:          0  ISSUED:          0  USEFUL:          0  USELESS:          0
PSCL5 USEFUL LOAD PREFETCHES:          0 PREFETCH ISSUED TO LOWER LEVEL:          0  ACCURACY: -nan
PSCL5 TIMELY PREFETCHES:          0 LATE PREFETCHES: 0 DROPPED PREFETCHES: 0
PSCL5 PREFETCHES SAME FILL-ORIGIN LEVEL: 0 DIFFERENT FILL-ORIGIN LEVEL: 0

PSCL4 TOTAL     ACCESS:      31857  HIT:      31773  MISS:         84  HIT %:    99.7363  MISS %:   0.263678   MPKI: 0.00168
PSCL4 LOAD TRANSLATION ACCESS:      31857  HIT:      31773  MISS:         84  HIT %:    99.7363  MISS %:   0.263678   MPKI: 0.00168
PSCL4 PREFETCH  REQUESTED:          0  ISSUED:          0  USEFUL:          0  USELESS:          0
PSCL4 USEFUL LOAD PREFETCHES:          0 PREFETCH ISSUED TO LOWER LEVEL:          0  ACCURACY: -nan
PSCL4 TIMELY PREFETCHES:          0 LATE PREFETCHES: 0 DROPPED PREFETCHES: 0
PSCL4 PREFETCHES SAME FILL-ORIGIN LEVEL: 0 DIFFERENT FILL-ORIGIN LEVEL: 0

PSCL3 TOTAL     ACCESS:      32399  HIT:      32315  MISS:         84  HIT %:    99.7407  MISS %:   0.259267   MPKI: 0.00168
PSCL3 LOAD TRANSLATION ACCESS:      32399  HIT:      32315  MISS:         84  HIT %:    99.7407  MISS %:   0.259267   MPKI: 0.00168
PSCL3 PREFETCH  REQUESTED:          0  ISSUED:          0  USEFUL:          0  USELESS:          0
PSCL3 USEFUL LOAD PREFETCHES:          0 PREFETCH ISSUED TO LOWER LEVEL:          0  ACCURACY: -nan
PSCL3 TIMELY PREFETCHES:          0 LATE PREFETCHES: 0 DROPPED PREFETCHES: 0
PSCL3 PREFETCHES SAME FILL-ORIGIN LEVEL: 0 DIFFERENT FILL-ORIGIN LEVEL: 0

PSCL2 TOTAL     ACCESS:      32509  HIT:      23918  MISS:       8591  HIT %:    73.5735  MISS %:    26.4265   MPKI: 0.17182
PSCL2 LOAD TRANSLATION ACCESS:      32509  HIT:      23918  MISS:       8591  HIT %:    73.5735  MISS %:    26.4265   MPKI: 0.17182
PSCL2 PREFETCH  REQUESTED:          0  ISSUED:          0  USEFUL:          0  USELESS:          0
PSCL2 USEFUL LOAD PREFETCHES:          0 PREFETCH ISSUED TO LOWER LEVEL:          0  ACCURACY: -nan
PSCL2 TIMELY PREFETCHES:          0 LATE PREFETCHES: 0 DROPPED PREFETCHES: 0
PSCL2 PREFETCHES SAME FILL-ORIGIN LEVEL: 0 DIFFERENT FILL-ORIGIN LEVEL: 0

LLC TOTAL     ACCESS:     726546  HIT:     420331  MISS:     306215  HIT %:    57.8533  MISS %:    42.1467   MPKI: 6.1243
LLC LOAD      ACCESS:     267376  HIT:     162884  MISS:     104492  HIT %:    60.9195  MISS %:    39.0805   MPKI: 2.08984
LLC RFO       ACCESS:      80827  HIT:       5645  MISS:      75182  HIT %:    6.98405  MISS %:    93.0159   MPKI: 1.50364
LLC PREFETCH  ACCESS:     178924  HIT:      63870  MISS:     115054  HIT %:    35.6967  MISS %:    64.3033   MPKI: 2.30108
LLC WRITEBACK ACCESS:     176427  HIT:     175915  MISS:        512  HIT %:    99.7098  MISS %:   0.290205   MPKI: 0.01024
LLC LOAD TRANSLATION ACCESS:      22992  HIT:      12017  MISS:      10975  HIT %:     52.266  MISS %:     47.734   MPKI: 0.2195
LLC PREFETCH  REQUESTED:          0  ISSUED:          0  USEFUL:       8955  USELESS:     108462
LLC USEFUL LOAD PREFETCHES:       8955 PREFETCH ISSUED TO LOWER LEVEL:     115054  ACCURACY: 7.7833
LLC TIMELY PREFETCHES:       8955 LATE PREFETCHES: 0 DROPPED PREFETCHES: 0
LLC PREFETCHES SAME FILL-ORIGIN LEVEL: 0 DIFFERENT FILL-ORIGIN LEVEL: 0
LLC AVERAGE MISS LATENCY: 167.277 cycles
LLC RQ	ACCESS:     371196	FORWARD:          0	MERGED:          0	TO_CACHE:     371196
LLC WQ	ACCESS:     176427	FORWARD:          0	MERGED:          0	TO_CACHE:     176427
LLC PQ	ACCESS:     178924	FORWARD:          0	MERGED:          0	TO_CACHE:     178924

LLC Dense regions hint to LLC: 0

RAW hits: 1066246
Loads Generated: 11762562
Loads sent to L1D: 10696322
Stores Generated: 5532905
Stores sent to L1D: 5532902
Major fault: 0 Minor fault: 12198
Allocated PAGES: 12198

stream: 
stream:times selected: 811262
stream:pref_filled: 54724
stream:pref_useful: 28981
stream:pref_late: 4590
stream:misses: 5159
stream:misses_by_poll: 0

CS: 
CS:times selected: 180286
CS:pref_filled: 81852
CS:pref_useful: 73397
CS:pref_late: 1692
CS:misses: 6792
CS:misses_by_poll: 70

CPLX: 
CPLX:times selected: 629550
CPLX:pref_filled: 38481
CPLX:pref_useful: 18123
CPLX:pref_late: 1028
CPLX:misses: 24939
CPLX:misses_by_poll: 19

NL_L1: 
NL:times selected: 4279
NL:pref_filled: 499
NL:pref_useful: 228
NL:pref_late: 29
NL:misses: 206
NL:misses_by_poll: 0

total selections: 1625377
total_filled: 149882
total_useful: 102762
total_late: 8228
total_polluted: 89
total_misses_after_warmup: 251242
conflicts: 2049529
Degree Incremented Times: 31887
Degree Decremented Times: 200

L1 IP Table Write Accesses: 4372632
L1 IP Table Read Accesses: 2323103
L1 RST Write Accesses: 674091
L1 RST Read Accesses: 1348182
L1 CSPT Write Accesses: 674091
L1 CSPT Read Accesses: 1193438
L1 RR Filter Tag Write Accesses: 456922
L1 RR Filter Tag Read Accesses: 36093266
L1 IP Table Tag Write Accesses: 7034734
L1 IP Table Tag Read Accesses: 7034734
L1 RST Tag Write Accesses: 0
L1 RST Tag Read Accesses: 5701590
L1 RR Filter Write Accesses: 0
L1 RR Filter Read Accesses: 1382111
test: 169592
L2 IP Table Read Accesses: 588377
L2 IP Table Write Accesses: 608268
L2 IP Table Tag Read Accesses: 365752
L2 IP Table Tag Write Accesses: 365752

DRAM Statistics
 CHANNEL 0
 RQ ROW_BUFFER_HIT:      88533  ROW_BUFFER_MISS:     217167
 DBUS_CONGESTED:        190
 WQ ROW_BUFFER_HIT:      37228  ROW_BUFFER_MISS:     124801  FULL:          0

 AVG_CONGESTED_CYCLE: 4
 All warmup complete: 2
Channel 0 Bank busy for read cycles: 0
Channel 0 Bank busy for write cycles: 0
Channel 0
Rank 0
0banks busy for read cycles: 47150976
0banks busy for write cycles: 50057
1banks busy for read cycles: 14651775
1banks busy for write cycles: 6591317
2banks busy for read cycles: 5097416
2banks busy for write cycles: 2919568
3banks busy for read cycles: 1306198
3banks busy for write cycles: 1386054
4banks busy for read cycles: 499133
4banks busy for write cycles: 790539
5banks busy for read cycles: 244208
5banks busy for write cycles: 496318
6banks busy for read cycles: 150273
6banks busy for write cycles: 366639
7banks busy for read cycles: 98631
7banks busy for write cycles: 329562
8banks busy for read cycles: 443728
8banks busy for write cycles: 862437

CPU 0 Branch Prediction Accuracy: 95.5458% MPKI: 7.5957 Average ROB Occupancy at Mispredict: 41.813
Branch types
NOT_BRANCH: 41473286 82.9466%
BRANCH_DIRECT_JUMP: 351730 0.70346%
BRANCH_INDIRECT: 151140 0.30228%
BRANCH_CONDITIONAL: 6788476 13.577%
BRANCH_DIRECT_CALL: 577844 1.15569%
BRANCH_INDIRECT_CALL: 27215 0.05443%
BRANCH_RETURN: 630005 1.26001%
BRANCH_OTHER: 0 0%

@sumon_overall_L1D    102762      7841     47065    149882    913728    913731
@Sumon_Early_by_class_L1D     22948     63320     14952        27
@Sumon_Late_by_class_L1D      4329      1677       940        27

@Sumon_Early_by_cycle_L1D     41437      8046      9017      7423      4701     18682      5361      2482      2775      1812       625       401
@Sumon_Late_by_cycle_L1D      4963      2840        38         0         0         0         0         0         0         0         0         0
@Sumon_Early_stream_L1D      5113      3002      4297      3780      1436      1970      1158       533       411       678       348       222
@Sumon_Early_CS_L1D     35086      4129      2127      1554      1761     13489      3170       767       956       251        17        13
@Sumon_Early_CPLX_L1D       996       742      2224      1843      1423      3087       887      1110      1379       858       250       153
@Sumon_Late_stream_L1D      1952      2346        31         0         0         0         0         0         0         0         0         0
@Sumon_Late_CS_L1D      1641        36         0         0         0         0         0         0         0         0         0         0
@Sumon_Late_CPLX_L1D       593       341         6         0         0         0         0         0         0         0         0         0
@sumon_overall_L2C     44160      4322    130985    174602    342601    342601
@Sumon_Early_by_class_L2C      3436      9485      1858         0
@Sumon_Late_by_class_L2C         0       133         0         0

@Sumon_Early_by_cycle_L2C      4518      4220      4446      3210      1809      5551      4781      1707      3428      1664       870      7956
@Sumon_Late_by_cycle_L2C      2366      1916        40         0         0         0         0         0         0         0         0         0
@Sumon_Early_stream_L2C         0         0         0         0         0         0         0         0         0        71       277      3088
@Sumon_Early_CS_L2C        49       246       191       429       481      1720      1483       445      2360       212        80      1789
@Sumon_Early_CPLX_L2C         0         0         0         0         0         0         0         0         0        41        75      1742
@Sumon_Late_stream_L2C         0         0         0         0         0         0         0         0         0         0         0         0
@Sumon_Late_CS_L2C       124         9         0         0         0         0         0         0         0         0         0         0
@Sumon_Late_CPLX_L2C         0         0         0         0         0         0         0         0         0         0         0         0
DRAM PAGES: 1048576
Allocated PAGES: 12198
