
*** ChampSim Multicore Out-of-Order Simulator ***

Warmup Instructions: 10000000
Simulation Instructions: 50000000
Number of CPUs: 1
LLC sets: 2048
LLC ways: 16
Off-chip DRAM Size: 4096 MB Channels: 1 Width: 64-bit Data Rate: 6400 MT/s
CPU 0 runs traces/clientserver/server_032.champsimtrace.xz
.xz
CPU 0 Bimodal branch predictor
BTB has LRU replacement policy
ITLB has LRU replacement policy
DTLB has LRU replacement policy
STLB has LRU replacement policy
L1I has LRU replacement policy
IP Table Entries: 256
L1D has LRU replacement policy
IP_Table L2 entries: 256
Initialize SRRIP state for L2C
LLC has LRU replacement policy
Heartbeat CPU 0 instructions: 10000002 cycles: 2882311 heartbeat IPC: 3.46944 cumulative IPC: 3.46944 (Simulation time: 0 hr 18 min 19 sec) 

Warmup complete CPU 0 instructions: 10000002 cycles: 2882311 (Simulation time: 0 hr 18 min 19 sec) 

Heartbeat CPU 0 instructions: 20000003 cycles: 27751047 heartbeat IPC: 0.402111 cumulative IPC: 0.402111 (Simulation time: 0 hr 35 min 32 sec) 
Heartbeat CPU 0 instructions: 30000001 cycles: 52509814 heartbeat IPC: 0.403897 cumulative IPC: 0.403002 (Simulation time: 0 hr 52 min 47 sec) 
Heartbeat CPU 0 instructions: 40000002 cycles: 77249834 heartbeat IPC: 0.404203 cumulative IPC: 0.403402 (Simulation time: 1 hr 10 min 10 sec) 
Heartbeat CPU 0 instructions: 50000000 cycles: 101977460 heartbeat IPC: 0.404406 cumulative IPC: 0.403652 (Simulation time: 1 hr 27 min 49 sec) 
Heartbeat CPU 0 instructions: 60000002 cycles: 126687493 heartbeat IPC: 0.404694 cumulative IPC: 0.40386 (Simulation time: 3 hr 25 min 42 sec) 
Finished CPU 0 instructions: 50000000 cycles: 123805182 cumulative IPC: 0.40386 (Simulation time: 3 hr 25 min 42 sec) 

ChampSim completed all CPUs

Region of Interest Statistics

CPU 0 cumulative IPC: 0.40386 instructions: 50000000 cycles: 123805182
ITLB TOTAL     ACCESS:    8557095  HIT:    7969162  MISS:     587933  HIT %:    93.1293  MISS %:    6.87071   MPKI: 11.7587
ITLB LOAD TRANSLATION ACCESS:    8557095  HIT:    7969162  MISS:     587933  HIT %:    93.1293  MISS %:    6.87071   MPKI: 11.7587
ITLB PREFETCH  REQUESTED:          0  ISSUED:          0  USEFUL:          0  USELESS:          0
ITLB USEFUL LOAD PREFETCHES:          0 PREFETCH ISSUED TO LOWER LEVEL:          0  ACCURACY: -nan
ITLB TIMELY PREFETCHES:          0 LATE PREFETCHES: 0 DROPPED PREFETCHES: 0
ITLB PREFETCHES SAME FILL-ORIGIN LEVEL: 0 DIFFERENT FILL-ORIGIN LEVEL: 0
ITLB AVERAGE MISS LATENCY: 9.01095 cycles
ITLB RQ	ACCESS:   10336015	FORWARD:          0	MERGED:    1632635	TO_CACHE:    8703380

DTLB TOTAL     ACCESS:   12853920  HIT:   12341605  MISS:     512315  HIT %:    96.0143  MISS %:    3.98567   MPKI: 10.2463
DTLB LOAD TRANSLATION ACCESS:   12853920  HIT:   12341605  MISS:     512315  HIT %:    96.0143  MISS %:    3.98567   MPKI: 10.2463
DTLB PREFETCH  REQUESTED:          0  ISSUED:          0  USEFUL:          0  USELESS:          0
DTLB USEFUL LOAD PREFETCHES:          0 PREFETCH ISSUED TO LOWER LEVEL:          0  ACCURACY: -nan
DTLB TIMELY PREFETCHES:          0 LATE PREFETCHES: 0 DROPPED PREFETCHES: 0
DTLB PREFETCHES SAME FILL-ORIGIN LEVEL: 0 DIFFERENT FILL-ORIGIN LEVEL: 0
DTLB AVERAGE MISS LATENCY: 9.0715 cycles
DTLB RQ	ACCESS:   16071455	FORWARD:          0	MERGED:    3201907	TO_CACHE:   12869548

STLB TOTAL     ACCESS:    1394650  HIT:    1394199  MISS:        451  HIT %:    99.9677  MISS %:  0.0323379   MPKI: 0.00902
STLB LOAD TRANSLATION ACCESS:    1100247  HIT:    1099796  MISS:        451  HIT %:     99.959  MISS %:  0.0409908   MPKI: 0.00902
STLB TRANSLATION FROM L1D PREFETCHER ACCESS:     294403  HIT:     294403  MISS:          0  HIT %:        100  MISS %:          0   MPKI: 0
STLB PREFETCH  REQUESTED:          0  ISSUED:          0  USEFUL:          0  USELESS:          0
STLB USEFUL LOAD PREFETCHES:          0 PREFETCH ISSUED TO LOWER LEVEL:          0  ACCURACY: -nan
STLB TIMELY PREFETCHES:          0 LATE PREFETCHES: 0 DROPPED PREFETCHES: 0
STLB PREFETCHES SAME FILL-ORIGIN LEVEL: 0 DIFFERENT FILL-ORIGIN LEVEL: 0
STLB AVERAGE MISS LATENCY: 71.1175 cycles
STLB RQ	ACCESS:    1468798	FORWARD:          0	MERGED:      74147	TO_CACHE:    1394651

STLB Hit, L1D data hit: 0
STLB Hit, L2C data hit: 0
STLB Hit, LLC data hit: 0
STLB Hit, LLC data miss: 0
STLB STLB hints to L2: 0
L1D TOTAL     ACCESS:   15963707  HIT:   14676720  MISS:    1286987  HIT %:     91.938  MISS %:    8.06196   MPKI: 25.7397
L1D LOAD      ACCESS:    8851712  HIT:    8012547  MISS:     839165  HIT %:    90.5197  MISS %:    9.48026   MPKI: 16.7833
L1D RFO       ACCESS:    6759468  HIT:    6454826  MISS:     304642  HIT %:    95.4931  MISS %:    4.50689   MPKI: 6.09284
L1D PREFETCH  ACCESS:     352527  HIT:     209347  MISS:     143180  HIT %:    59.3847  MISS %:    40.6153   MPKI: 2.8636
L1D PREFETCH  REQUESTED:     737344  ISSUED:     737344  USEFUL:      25859  USELESS:     117302
L1D USEFUL LOAD PREFETCHES:      25859 PREFETCH ISSUED TO LOWER LEVEL:     148724  ACCURACY: 17.3872
L1D TIMELY PREFETCHES:      25859 LATE PREFETCHES: 5537 DROPPED PREFETCHES: 0
L1D PREFETCHES SAME FILL-ORIGIN LEVEL: 148724 DIFFERENT FILL-ORIGIN LEVEL: 0
L1D AVERAGE MISS LATENCY: 277618 cycles
L1D RQ	ACCESS:   12036900	FORWARD:          0	MERGED:    3031119	TO_CACHE:    8879252
L1D WQ	ACCESS:    7236665	FORWARD:     126773	MERGED:      44462	TO_CACHE:    7192203
L1D PQ	ACCESS:     368794	FORWARD:          0	MERGED:          0	TO_CACHE:     368550

L1D UNIQUE REGIONS ACCESSED: 0
L1D REGIONS CONFLICTS: 0
L1D Cross Page Prefetch Requests: 0
L1D Same Page Prefetch Requests: 435131
L1D ROI Sum of L1D PQ occupancy: 4770768
L1D PREFETCHES PUSHED FROM L2C: 0
L1I TOTAL     ACCESS:    9778517  HIT:    6611670  MISS:    3166847  HIT %:    67.6142  MISS %:    32.3858   MPKI: 63.3369
L1I LOAD      ACCESS:    9778517  HIT:    6611670  MISS:    3166847  HIT %:    67.6142  MISS %:    32.3858   MPKI: 63.3369
L1I PREFETCH  REQUESTED:          0  ISSUED:          0  USEFUL:          0  USELESS:          0
L1I USEFUL LOAD PREFETCHES:          0 PREFETCH ISSUED TO LOWER LEVEL:          0  ACCURACY: -nan
L1I TIMELY PREFETCHES:          0 LATE PREFETCHES: 0 DROPPED PREFETCHES: 0
L1I PREFETCHES SAME FILL-ORIGIN LEVEL: 0 DIFFERENT FILL-ORIGIN LEVEL: 0
L1I AVERAGE MISS LATENCY: 16.5589 cycles
L1I RQ	ACCESS:   14047846	FORWARD:          0	MERGED:    3711831	TO_CACHE:   10336015

BTB TOTAL     ACCESS:    5869487  HIT:    3861122  MISS:    2008365  HIT %:     65.783  MISS %:     34.217   MPKI: 40.1673
BTB BRANCH_DIRECT_JUMP	ACCESS:     509293  HIT:     347105  MISS:     162188
BTB BRANCH_INDIRECT	ACCESS:     180189  HIT:     143386  MISS:      36803
BTB BRANCH_CONDITIONAL	ACCESS:    2595854  HIT:    2046614  MISS:     549240
BTB BRANCH_DIRECT_CALL	ACCESS:    1085948  HIT:     693461  MISS:     392487
BTB BRANCH_INDIRECT_CALL	ACCESS:     206137  HIT:     130928  MISS:      75209
BTB BRANCH_RETURN	ACCESS:    1292066  HIT:     499628  MISS:     792438
BTB BRANCH_OTHER ACCESS:          0  HIT:          0  MISS:          0

L2C TOTAL     ACCESS:    5772436  HIT:    5370755  MISS:     401681  HIT %:    93.0414  MISS %:     6.9586   MPKI: 8.03362
L2C LOAD      ACCESS:    4000474  HIT:    3689254  MISS:     311220  HIT %:    92.2204  MISS %:    7.77958   MPKI: 6.2244
L2C DATA LOAD MPKI: 1.00762
L2C INSTRUCTION LOAD MPKI: 5.21678
L2C RFO       ACCESS:     304636  HIT:     297434  MISS:       7202  HIT %:    97.6359  MISS %:    2.36413   MPKI: 0.14404
L2C PREFETCH  ACCESS:     864743  HIT:     786825  MISS:      77918  HIT %:    90.9895  MISS %:    9.01054   MPKI: 1.55836
L2C DATA PREFETCH MPKI: 1.55836
L2C INSTRUCTION PREFETCH MPKI: 0
L2C WRITEBACK ACCESS:     602104  HIT:     596970  MISS:       5134  HIT %:    99.1473  MISS %:   0.852677   MPKI: 0.10268
L2C LOAD TRANSLATION ACCESS:        479  HIT:        272  MISS:        207  HIT %:     56.785  MISS %:     43.215   MPKI: 0.00414
L2C PREFETCH  REQUESTED:     721966  ISSUED:     721966  USEFUL:       2761  USELESS:      75208
L2C USEFUL LOAD PREFETCHES:       2761 PREFETCH ISSUED TO LOWER LEVEL:      78685  ACCURACY: 3.50893
L2C TIMELY PREFETCHES:       2761 LATE PREFETCHES: 768 DROPPED PREFETCHES: 0
L2C PREFETCHES SAME FILL-ORIGIN LEVEL: 44995 DIFFERENT FILL-ORIGIN LEVEL: 0
L2C AVERAGE MISS LATENCY: 33.0632 cycles
L2C RQ	ACCESS:    4305590	FORWARD:          0	MERGED:          0	TO_CACHE:    4305589
L2C WQ	ACCESS:     602104	FORWARD:          4	MERGED:          0	TO_CACHE:     602104
L2C PQ	ACCESS:     870690	FORWARD:          0	MERGED:       4683	TO_CACHE:     866004

L2C Instructions Evicting Data 69700
L2C Translations Evicting Data 192
L2C Data Evicting Data 69046
L2C Instructions Evicting Instructions 191128
L2C Translations Evicting Instructions 13
L2C Data Evicting Instructions 66114
L2C Instructions Evicting Translations 10
L2C Translations Evicting Translations 2
L2C Data Evicting Translations 264
L2C Dense regions hint from L2: 0
PSCL5 TOTAL     ACCESS:        451  HIT:        451  MISS:          0  HIT %:        100  MISS %:          0   MPKI: 0
PSCL5 LOAD TRANSLATION ACCESS:        451  HIT:        451  MISS:          0  HIT %:        100  MISS %:          0   MPKI: 0
PSCL5 PREFETCH  REQUESTED:          0  ISSUED:          0  USEFUL:          0  USELESS:          0
PSCL5 USEFUL LOAD PREFETCHES:          0 PREFETCH ISSUED TO LOWER LEVEL:          0  ACCURACY: -nan
PSCL5 TIMELY PREFETCHES:          0 LATE PREFETCHES: 0 DROPPED PREFETCHES: 0
PSCL5 PREFETCHES SAME FILL-ORIGIN LEVEL: 0 DIFFERENT FILL-ORIGIN LEVEL: 0

PSCL4 TOTAL     ACCESS:        449  HIT:        445  MISS:          4  HIT %:    99.1091  MISS %:   0.890869   MPKI: 8e-05
PSCL4 LOAD TRANSLATION ACCESS:        449  HIT:        445  MISS:          4  HIT %:    99.1091  MISS %:   0.890869   MPKI: 8e-05
PSCL4 PREFETCH  REQUESTED:          0  ISSUED:          0  USEFUL:          0  USELESS:          0
PSCL4 USEFUL LOAD PREFETCHES:          0 PREFETCH ISSUED TO LOWER LEVEL:          0  ACCURACY: -nan
PSCL4 TIMELY PREFETCHES:          0 LATE PREFETCHES: 0 DROPPED PREFETCHES: 0
PSCL4 PREFETCHES SAME FILL-ORIGIN LEVEL: 0 DIFFERENT FILL-ORIGIN LEVEL: 0

PSCL3 TOTAL     ACCESS:        450  HIT:        446  MISS:          4  HIT %:    99.1111  MISS %:   0.888889   MPKI: 8e-05
PSCL3 LOAD TRANSLATION ACCESS:        450  HIT:        446  MISS:          4  HIT %:    99.1111  MISS %:   0.888889   MPKI: 8e-05
PSCL3 PREFETCH  REQUESTED:          0  ISSUED:          0  USEFUL:          0  USELESS:          0
PSCL3 USEFUL LOAD PREFETCHES:          0 PREFETCH ISSUED TO LOWER LEVEL:          0  ACCURACY: -nan
PSCL3 TIMELY PREFETCHES:          0 LATE PREFETCHES: 0 DROPPED PREFETCHES: 0
PSCL3 PREFETCHES SAME FILL-ORIGIN LEVEL: 0 DIFFERENT FILL-ORIGIN LEVEL: 0

PSCL2 TOTAL     ACCESS:        451  HIT:        429  MISS:         22  HIT %:     95.122  MISS %:    4.87805   MPKI: 0.00044
PSCL2 LOAD TRANSLATION ACCESS:        451  HIT:        429  MISS:         22  HIT %:     95.122  MISS %:    4.87805   MPKI: 0.00044
PSCL2 PREFETCH  REQUESTED:          0  ISSUED:          0  USEFUL:          0  USELESS:          0
PSCL2 USEFUL LOAD PREFETCHES:          0 PREFETCH ISSUED TO LOWER LEVEL:          0  ACCURACY: -nan
PSCL2 TIMELY PREFETCHES:          0 LATE PREFETCHES: 0 DROPPED PREFETCHES: 0
PSCL2 PREFETCHES SAME FILL-ORIGIN LEVEL: 0 DIFFERENT FILL-ORIGIN LEVEL: 0

LLC TOTAL     ACCESS:     407234  HIT:     396366  MISS:      10868  HIT %:    97.3313  MISS %:    2.66874   MPKI: 0.21736
LLC LOAD      ACCESS:     310452  HIT:     307991  MISS:       2461  HIT %:    99.2073  MISS %:   0.792715   MPKI: 0.04922
LLC RFO       ACCESS:       7202  HIT:       7189  MISS:         13  HIT %:    99.8195  MISS %:   0.180505   MPKI: 0.00026
LLC PREFETCH  ACCESS:      78686  HIT:      70314  MISS:       8372  HIT %:    89.3602  MISS %:    10.6398   MPKI: 0.16744
LLC WRITEBACK ACCESS:      10687  HIT:      10685  MISS:          2  HIT %:    99.9813  MISS %:  0.0187143   MPKI: 4e-05
LLC LOAD TRANSLATION ACCESS:        207  HIT:        187  MISS:         20  HIT %:    90.3382  MISS %:    9.66184   MPKI: 0.0004
LLC PREFETCH  REQUESTED:          0  ISSUED:          0  USEFUL:        965  USELESS:         18
LLC USEFUL LOAD PREFETCHES:        965 PREFETCH ISSUED TO LOWER LEVEL:       8372  ACCURACY: 11.5265
LLC TIMELY PREFETCHES:        965 LATE PREFETCHES: 0 DROPPED PREFETCHES: 0
LLC PREFETCHES SAME FILL-ORIGIN LEVEL: 0 DIFFERENT FILL-ORIGIN LEVEL: 0
LLC AVERAGE MISS LATENCY: 128.804 cycles
LLC RQ	ACCESS:     317861	FORWARD:          0	MERGED:          0	TO_CACHE:     317861
LLC WQ	ACCESS:      10687	FORWARD:          0	MERGED:          0	TO_CACHE:      10687
LLC PQ	ACCESS:      78685	FORWARD:          0	MERGED:          0	TO_CACHE:      78685

LLC Dense regions hint to LLC: 0

RAW hits: 599092
Loads Generated: 12635991
Loads sent to L1D: 12036900
Stores Generated: 7236649
Stores sent to L1D: 7236665
Major fault: 0 Minor fault: 1259
Allocated PAGES: 1259

stream: 
stream:times selected: 660701
stream:pref_filled: 106722
stream:pref_useful: 17558
stream:pref_late: 3048
stream:misses: 3533
stream:misses_by_poll: 0

CS: 
CS:times selected: 57709
CS:pref_filled: 20610
CS:pref_useful: 9060
CS:pref_late: 2109
CS:misses: 3446
CS:misses_by_poll: 0

CPLX: 
CPLX:times selected: 601098
CPLX:pref_filled: 40170
CPLX:pref_useful: 4313
CPLX:pref_late: 271
CPLX:misses: 50956
CPLX:misses_by_poll: 5

NL_L1: 
NL:times selected: 5923
NL:pref_filled: 1143
NL:pref_useful: 129
NL:pref_late: 2
NL:misses: 76
NL:misses_by_poll: 0

total selections: 1325431
total_filled: 143180
total_useful: 25859
total_late: 6422
total_polluted: 5
total_misses_after_warmup: 866707
conflicts: 3550643
Degree Incremented Times: 0
Degree Decremented Times: 153489

L1 IP Table Write Accesses: 5033551
L1 IP Table Read Accesses: 1482908
L1 RST Write Accesses: 561661
L1 RST Read Accesses: 1123322
L1 CSPT Write Accesses: 561661
L1 CSPT Read Accesses: 1072196
L1 RR Filter Tag Write Accesses: 368794
L1 RR Filter Tag Read Accesses: 25618195
L1 IP Table Tag Write Accesses: 8879254
L1 IP Table Tag Read Accesses: 8879254
L1 RST Tag Write Accesses: 0
L1 RST Tag Read Accesses: 4378521
L1 RR Filter Write Accesses: 0
L1 RR Filter Read Accesses: 946686
test: 117716
L2 IP Table Read Accesses: 1221073
L2 IP Table Write Accesses: 1756835
L2 IP Table Tag Read Accesses: 978158
L2 IP Table Tag Write Accesses: 978158

DRAM Statistics
 CHANNEL 0
 RQ ROW_BUFFER_HIT:       4794  ROW_BUFFER_MISS:       6072
 DBUS_CONGESTED:          0
 WQ ROW_BUFFER_HIT:          0  ROW_BUFFER_MISS:          9  FULL:          0

 AVG_CONGESTED_CYCLE: -
 All warmup complete: 2
Channel 0 Bank busy for read cycles: 0
Channel 0 Bank busy for write cycles: 0
Channel 0
Rank 0
0banks busy for read cycles: 123193929
0banks busy for write cycles: 6
1banks busy for read cycles: 275140
1banks busy for write cycles: 925
2banks busy for read cycles: 205613
2banks busy for write cycles: 277
3banks busy for read cycles: 65586
3banks busy for write cycles: 193
4banks busy for read cycles: 53961
4banks busy for write cycles: 0
5banks busy for read cycles: 6555
5banks busy for write cycles: 0
6banks busy for read cycles: 2294
6banks busy for write cycles: 0
7banks busy for read cycles: 639
7banks busy for write cycles: 0
8banks busy for read cycles: 65
8banks busy for write cycles: 0

CPU 0 Branch Prediction Accuracy: 92.2268% MPKI: 14.419 Average ROB Occupancy at Mispredict: 16.0249
Branch types
NOT_BRANCH: 40724948 81.4499%
BRANCH_DIRECT_JUMP: 509293 1.01859%
BRANCH_INDIRECT: 180189 0.360378%
BRANCH_CONDITIONAL: 6001163 12.0023%
BRANCH_DIRECT_CALL: 1085948 2.1719%
BRANCH_INDIRECT_CALL: 206137 0.412274%
BRANCH_RETURN: 1292066 2.58413%
BRANCH_OTHER: 0 0%

@sumon_overall_L1D     25859      5537    117302    143180    737344    737344
@Sumon_Early_by_class_L1D     14547      7081      3549         2
@Sumon_Late_by_class_L1D      2375      2039       156         2

@Sumon_Early_by_cycle_L1D     11031      3207      1991       877        59      2691       411      2042      2502       984        61         3
@Sumon_Late_by_cycle_L1D      4911       623         3         0         0         0         0         0         0         0         0         0
@Sumon_Early_stream_L1D      4687      1738      1102       746        54      2274       118      1394      1806       605        20         3
@Sumon_Early_CS_L1D      5785      1246        37         6         0         1         0         0         6         0         0         0
@Sumon_Early_CPLX_L1D       390       173       569       118         5       361       236       646       673       337        41         0
@Sumon_Late_stream_L1D      1956       416         3         0         0         0         0         0         0         0         0         0
@Sumon_Late_CS_L1D      1843       196         0         0         0         0         0         0         0         0         0         0
@Sumon_Late_CPLX_L1D       150         6         0         0         0         0         0         0         0         0         0         0
@sumon_overall_L2C      2761       768     75208     77918    721966    721966
@Sumon_Early_by_class_L2C       361        75       157         0
@Sumon_Late_by_class_L2C         0         0         0         0

@Sumon_Early_by_cycle_L2C       941       330        98        13        63        99       177        76        10         8       139       807
@Sumon_Late_by_cycle_L2C       626       142         0         0         0         0         0         0         0         0         0         0
@Sumon_Early_stream_L2C         0         0         0         0         0         0         0         0         0         0         9       352
@Sumon_Early_CS_L2C         0         0         0         0         0         0         0         0         0         0         0        75
@Sumon_Early_CPLX_L2C         0         0         0         0         0         0         0         0         0         0         0       157
@Sumon_Late_stream_L2C         0         0         0         0         0         0         0         0         0         0         0         0
@Sumon_Late_CS_L2C         0         0         0         0         0         0         0         0         0         0         0         0
@Sumon_Late_CPLX_L2C         0         0         0         0         0         0         0         0         0         0         0         0
DRAM PAGES: 1048576
Allocated PAGES: 1259
