
*** ChampSim Multicore Out-of-Order Simulator ***

Warmup Instructions: 10000000
Simulation Instructions: 50000000
Number of CPUs: 1
LLC sets: 2048
LLC ways: 16
Off-chip DRAM Size: 4096 MB Channels: 1 Width: 64-bit Data Rate: 6400 MT/s
CPU 0 runs traces/clientserver/server_026.champsimtrace.xz
.xz
CPU 0 Bimodal branch predictor
BTB has LRU replacement policy
ITLB has LRU replacement policy
DTLB has LRU replacement policy
STLB has LRU replacement policy
L1I has LRU replacement policy
IP Table Entries: 256
L1D has LRU replacement policy
IP_Table L2 entries: 256
Initialize SRRIP state for L2C
LLC has LRU replacement policy
Heartbeat CPU 0 instructions: 10000000 cycles: 2884470 heartbeat IPC: 3.46684 cumulative IPC: 3.46684 (Simulation time: 0 hr 18 min 23 sec) 

Warmup complete CPU 0 instructions: 10000001 cycles: 2884471 (Simulation time: 0 hr 18 min 23 sec) 

Heartbeat CPU 0 instructions: 20000002 cycles: 27555320 heartbeat IPC: 0.405337 cumulative IPC: 0.405337 (Simulation time: 0 hr 35 min 40 sec) 
Heartbeat CPU 0 instructions: 30000000 cycles: 52125171 heartbeat IPC: 0.407003 cumulative IPC: 0.406168 (Simulation time: 0 hr 53 min 0 sec) 
Heartbeat CPU 0 instructions: 40000002 cycles: 76765504 heartbeat IPC: 0.405839 cumulative IPC: 0.406058 (Simulation time: 1 hr 10 min 21 sec) 
Heartbeat CPU 0 instructions: 50000000 cycles: 101218145 heartbeat IPC: 0.408954 cumulative IPC: 0.406778 (Simulation time: 1 hr 28 min 2 sec) 
*** Reached end of trace for Core: 0 Repeating trace: traces/clientserver/server_026.champsimtrace.xz
Heartbeat CPU 0 instructions: 60000000 cycles: 125910707 heartbeat IPC: 0.40498 cumulative IPC: 0.406417 (Simulation time: 3 hr 27 min 51 sec) 
Finished CPU 0 instructions: 50000001 cycles: 123026244 cumulative IPC: 0.406417 (Simulation time: 3 hr 27 min 51 sec) 

ChampSim completed all CPUs

Region of Interest Statistics

CPU 0 cumulative IPC: 0.406417 instructions: 50000001 cycles: 123026244
ITLB TOTAL     ACCESS:    8435437  HIT:    7948290  MISS:     487147  HIT %:     94.225  MISS %:    5.77501   MPKI: 9.74294
ITLB LOAD TRANSLATION ACCESS:    8435437  HIT:    7948290  MISS:     487147  HIT %:     94.225  MISS %:    5.77501   MPKI: 9.74294
ITLB PREFETCH  REQUESTED:          0  ISSUED:          0  USEFUL:          0  USELESS:          0
ITLB USEFUL LOAD PREFETCHES:          0 PREFETCH ISSUED TO LOWER LEVEL:          0  ACCURACY: -nan
ITLB TIMELY PREFETCHES:          0 LATE PREFETCHES: 0 DROPPED PREFETCHES: 0
ITLB PREFETCHES SAME FILL-ORIGIN LEVEL: 0 DIFFERENT FILL-ORIGIN LEVEL: 0
ITLB AVERAGE MISS LATENCY: 9.06581 cycles
ITLB RQ	ACCESS:   10061971	FORWARD:          0	MERGED:    1503088	TO_CACHE:    8558883

DTLB TOTAL     ACCESS:   12570466  HIT:   12093461  MISS:     477005  HIT %:    96.2054  MISS %:    3.79465   MPKI: 9.5401
DTLB LOAD TRANSLATION ACCESS:   12570466  HIT:   12093461  MISS:     477005  HIT %:    96.2054  MISS %:    3.79465   MPKI: 9.5401
DTLB PREFETCH  REQUESTED:          0  ISSUED:          0  USEFUL:          0  USELESS:          0
DTLB USEFUL LOAD PREFETCHES:          0 PREFETCH ISSUED TO LOWER LEVEL:          0  ACCURACY: -nan
DTLB TIMELY PREFETCHES:          0 LATE PREFETCHES: 0 DROPPED PREFETCHES: 0
DTLB PREFETCHES SAME FILL-ORIGIN LEVEL: 0 DIFFERENT FILL-ORIGIN LEVEL: 0
DTLB AVERAGE MISS LATENCY: 9.39022 cycles
DTLB RQ	ACCESS:   15683191	FORWARD:          0	MERGED:    3092435	TO_CACHE:   12590756

STLB TOTAL     ACCESS:    1399682  HIT:    1397446  MISS:       2236  HIT %:    99.8402  MISS %:   0.159751   MPKI: 0.04472
STLB LOAD TRANSLATION ACCESS:     964152  HIT:     961916  MISS:       2236  HIT %:    99.7681  MISS %:   0.231914   MPKI: 0.04472
STLB TRANSLATION FROM L1D PREFETCHER ACCESS:     435530  HIT:     435530  MISS:          0  HIT %:        100  MISS %:          0   MPKI: 0
STLB PREFETCH  REQUESTED:          0  ISSUED:          0  USEFUL:          0  USELESS:          0
STLB USEFUL LOAD PREFETCHES:          0 PREFETCH ISSUED TO LOWER LEVEL:          0  ACCURACY: -nan
STLB TIMELY PREFETCHES:          0 LATE PREFETCHES: 0 DROPPED PREFETCHES: 0
STLB PREFETCHES SAME FILL-ORIGIN LEVEL: 0 DIFFERENT FILL-ORIGIN LEVEL: 0
STLB AVERAGE MISS LATENCY: 92.9369 cycles
STLB RQ	ACCESS:    1528582	FORWARD:          0	MERGED:     128900	TO_CACHE:    1399682

STLB Hit, L1D data hit: 0
STLB Hit, L2C data hit: 0
STLB Hit, LLC data hit: 0
STLB Hit, LLC data miss: 0
STLB STLB hints to L2: 0
L1D TOTAL     ACCESS:   15712121  HIT:   14514521  MISS:    1197600  HIT %:    92.3779  MISS %:    7.62214   MPKI: 23.952
L1D LOAD      ACCESS:    8802391  HIT:    8063499  MISS:     738892  HIT %:    91.6058  MISS %:    8.39422   MPKI: 14.7778
L1D RFO       ACCESS:    6400771  HIT:    6103749  MISS:     297022  HIT %:    95.3596  MISS %:    4.64041   MPKI: 5.94044
L1D PREFETCH  ACCESS:     508959  HIT:     347273  MISS:     161686  HIT %:     68.232  MISS %:     31.768   MPKI: 3.23372
L1D PREFETCH  REQUESTED:    1129097  ISSUED:    1129097  USEFUL:      57298  USELESS:     104381
L1D USEFUL LOAD PREFETCHES:      57298 PREFETCH ISSUED TO LOWER LEVEL:     202394  ACCURACY: 28.3101
L1D TIMELY PREFETCHES:      57298 LATE PREFETCHES: 40243 DROPPED PREFETCHES: 0
L1D PREFETCHES SAME FILL-ORIGIN LEVEL: 202394 DIFFERENT FILL-ORIGIN LEVEL: 0
L1D AVERAGE MISS LATENCY: 2.18922e+06 cycles
L1D RQ	ACCESS:   12094056	FORWARD:          0	MERGED:    3149647	TO_CACHE:    8830219
L1D WQ	ACCESS:    6899106	FORWARD:     114427	MERGED:      46134	TO_CACHE:    6852972
L1D PQ	ACCESS:     564667	FORWARD:          0	MERGED:          0	TO_CACHE:     564430

L1D UNIQUE REGIONS ACCESSED: 0
L1D REGIONS CONFLICTS: 0
L1D Cross Page Prefetch Requests: 0
L1D Same Page Prefetch Requests: 669032
L1D ROI Sum of L1D PQ occupancy: 7248674
L1D PREFETCHES PUSHED FROM L2C: 0
L1I TOTAL     ACCESS:    9608885  HIT:    6874374  MISS:    2734511  HIT %:    71.5418  MISS %:    28.4582   MPKI: 54.6902
L1I LOAD      ACCESS:    9608885  HIT:    6874374  MISS:    2734511  HIT %:    71.5418  MISS %:    28.4582   MPKI: 54.6902
L1I PREFETCH  REQUESTED:          0  ISSUED:          0  USEFUL:          0  USELESS:          0
L1I USEFUL LOAD PREFETCHES:          0 PREFETCH ISSUED TO LOWER LEVEL:          0  ACCURACY: -nan
L1I TIMELY PREFETCHES:          0 LATE PREFETCHES: 0 DROPPED PREFETCHES: 0
L1I PREFETCHES SAME FILL-ORIGIN LEVEL: 0 DIFFERENT FILL-ORIGIN LEVEL: 0
L1I AVERAGE MISS LATENCY: 17.8427 cycles
L1I RQ	ACCESS:   13806120	FORWARD:          0	MERGED:    3744149	TO_CACHE:   10061971

BTB TOTAL     ACCESS:    5982230  HIT:    3991090  MISS:    1991140  HIT %:    66.7158  MISS %:    33.2842   MPKI: 39.8228
BTB BRANCH_DIRECT_JUMP	ACCESS:     522633  HIT:     348042  MISS:     174591
BTB BRANCH_INDIRECT	ACCESS:     204723  HIT:     167232  MISS:      37491
BTB BRANCH_CONDITIONAL	ACCESS:    3049093  HIT:    2491585  MISS:     557508
BTB BRANCH_DIRECT_CALL	ACCESS:     929734  HIT:     525672  MISS:     404062
BTB BRANCH_INDIRECT_CALL	ACCESS:     173167  HIT:      95072  MISS:      78095
BTB BRANCH_RETURN	ACCESS:    1102880  HIT:     363487  MISS:     739393
BTB BRANCH_OTHER ACCESS:          0  HIT:          0  MISS:          0

L2C TOTAL     ACCESS:    5056309  HIT:    4416651  MISS:     639658  HIT %:    87.3493  MISS %:    12.6507   MPKI: 12.7932
L2C LOAD      ACCESS:    3433154  HIT:    3017744  MISS:     415410  HIT %:       87.9  MISS %:       12.1   MPKI: 8.3082
L2C DATA LOAD MPKI: 1.58294
L2C INSTRUCTION LOAD MPKI: 6.72526
L2C RFO       ACCESS:     296557  HIT:     221747  MISS:      74810  HIT %:    74.7738  MISS %:    25.2262   MPKI: 1.4962
L2C PREFETCH  ACCESS:     795372  HIT:     666377  MISS:     128995  HIT %:    83.7818  MISS %:    16.2182   MPKI: 2.5799
L2C DATA PREFETCH MPKI: 2.5799
L2C INSTRUCTION PREFETCH MPKI: 0
L2C WRITEBACK ACCESS:     528839  HIT:     510085  MISS:      18754  HIT %:    96.4537  MISS %:    3.54626   MPKI: 0.37508
L2C LOAD TRANSLATION ACCESS:       2387  HIT:        698  MISS:       1689  HIT %:    29.2417  MISS %:    70.7583   MPKI: 0.03378
L2C PREFETCH  REQUESTED:     604252  ISSUED:     604252  USEFUL:      16110  USELESS:     112857
L2C USEFUL LOAD PREFETCHES:      16110 PREFETCH ISSUED TO LOWER LEVEL:     130868  ACCURACY: 12.3101
L2C TIMELY PREFETCHES:      16110 LATE PREFETCHES: 1873 DROPPED PREFETCHES: 0
L2C PREFETCHES SAME FILL-ORIGIN LEVEL: 67838 DIFFERENT FILL-ORIGIN LEVEL: 0
L2C AVERAGE MISS LATENCY: 35.7551 cycles
L2C RQ	ACCESS:    3732104	FORWARD:          0	MERGED:          0	TO_CACHE:    3732098
L2C WQ	ACCESS:     528839	FORWARD:          7	MERGED:          0	TO_CACHE:     528839
L2C PQ	ACCESS:     806646	FORWARD:          0	MERGED:       5713	TO_CACHE:     800932

L2C Instructions Evicting Data 146961
L2C Translations Evicting Data 1195
L2C Data Evicting Data 144575
L2C Instructions Evicting Instructions 188856
L2C Translations Evicting Instructions 446
L2C Data Evicting Instructions 137180
L2C Instructions Evicting Translations 444
L2C Translations Evicting Translations 48
L2C Data Evicting Translations 1180
L2C Dense regions hint from L2: 0
PSCL5 TOTAL     ACCESS:       2236  HIT:       2236  MISS:          0  HIT %:        100  MISS %:          0   MPKI: 0
PSCL5 LOAD TRANSLATION ACCESS:       2236  HIT:       2236  MISS:          0  HIT %:        100  MISS %:          0   MPKI: 0
PSCL5 PREFETCH  REQUESTED:          0  ISSUED:          0  USEFUL:          0  USELESS:          0
PSCL5 USEFUL LOAD PREFETCHES:          0 PREFETCH ISSUED TO LOWER LEVEL:          0  ACCURACY: -nan
PSCL5 TIMELY PREFETCHES:          0 LATE PREFETCHES: 0 DROPPED PREFETCHES: 0
PSCL5 PREFETCHES SAME FILL-ORIGIN LEVEL: 0 DIFFERENT FILL-ORIGIN LEVEL: 0

PSCL4 TOTAL     ACCESS:       2081  HIT:       2069  MISS:         12  HIT %:    99.4234  MISS %:   0.576646   MPKI: 0.00024
PSCL4 LOAD TRANSLATION ACCESS:       2081  HIT:       2069  MISS:         12  HIT %:    99.4234  MISS %:   0.576646   MPKI: 0.00024
PSCL4 PREFETCH  REQUESTED:          0  ISSUED:          0  USEFUL:          0  USELESS:          0
PSCL4 USEFUL LOAD PREFETCHES:          0 PREFETCH ISSUED TO LOWER LEVEL:          0  ACCURACY: -nan
PSCL4 TIMELY PREFETCHES:          0 LATE PREFETCHES: 0 DROPPED PREFETCHES: 0
PSCL4 PREFETCHES SAME FILL-ORIGIN LEVEL: 0 DIFFERENT FILL-ORIGIN LEVEL: 0

PSCL3 TOTAL     ACCESS:       2120  HIT:       2107  MISS:         13  HIT %:    99.3868  MISS %:   0.613208   MPKI: 0.00026
PSCL3 LOAD TRANSLATION ACCESS:       2120  HIT:       2107  MISS:         13  HIT %:    99.3868  MISS %:   0.613208   MPKI: 0.00026
PSCL3 PREFETCH  REQUESTED:          0  ISSUED:          0  USEFUL:          0  USELESS:          0
PSCL3 USEFUL LOAD PREFETCHES:          0 PREFETCH ISSUED TO LOWER LEVEL:          0  ACCURACY: -nan
PSCL3 TIMELY PREFETCHES:          0 LATE PREFETCHES: 0 DROPPED PREFETCHES: 0
PSCL3 PREFETCHES SAME FILL-ORIGIN LEVEL: 0 DIFFERENT FILL-ORIGIN LEVEL: 0

PSCL2 TOTAL     ACCESS:       2236  HIT:       2101  MISS:        135  HIT %:    93.9624  MISS %:    6.03757   MPKI: 0.0027
PSCL2 LOAD TRANSLATION ACCESS:       2236  HIT:       2101  MISS:        135  HIT %:    93.9624  MISS %:    6.03757   MPKI: 0.0027
PSCL2 PREFETCH  REQUESTED:          0  ISSUED:          0  USEFUL:          0  USELESS:          0
PSCL2 USEFUL LOAD PREFETCHES:          0 PREFETCH ISSUED TO LOWER LEVEL:          0  ACCURACY: -nan
PSCL2 TIMELY PREFETCHES:          0 LATE PREFETCHES: 0 DROPPED PREFETCHES: 0
PSCL2 PREFETCHES SAME FILL-ORIGIN LEVEL: 0 DIFFERENT FILL-ORIGIN LEVEL: 0

LLC TOTAL     ACCESS:     724934  HIT:     692367  MISS:      32567  HIT %:    95.5076  MISS %:    4.49241   MPKI: 0.65134
LLC LOAD      ACCESS:     413677  HIT:     408751  MISS:       4926  HIT %:    98.8092  MISS %:    1.19078   MPKI: 0.09852
LLC RFO       ACCESS:      74669  HIT:      59117  MISS:      15552  HIT %:    79.1721  MISS %:    20.8279   MPKI: 0.31104
LLC PREFETCH  ACCESS:     130868  HIT:     119131  MISS:      11737  HIT %:    91.0314  MISS %:    8.96858   MPKI: 0.23474
LLC WRITEBACK ACCESS:     104031  HIT:     103858  MISS:        173  HIT %:    99.8337  MISS %:   0.166297   MPKI: 0.00346
LLC LOAD TRANSLATION ACCESS:       1689  HIT:       1510  MISS:        179  HIT %:     89.402  MISS %:     10.598   MPKI: 0.00358
LLC PREFETCH  REQUESTED:          0  ISSUED:          0  USEFUL:        927  USELESS:       6377
LLC USEFUL LOAD PREFETCHES:        927 PREFETCH ISSUED TO LOWER LEVEL:      11737  ACCURACY: 7.8981
LLC TIMELY PREFETCHES:        927 LATE PREFETCHES: 0 DROPPED PREFETCHES: 0
LLC PREFETCHES SAME FILL-ORIGIN LEVEL: 0 DIFFERENT FILL-ORIGIN LEVEL: 0
LLC AVERAGE MISS LATENCY: 129.49 cycles
LLC RQ	ACCESS:     490036	FORWARD:          0	MERGED:          0	TO_CACHE:     490035
LLC WQ	ACCESS:     104031	FORWARD:          1	MERGED:          0	TO_CACHE:     104031
LLC PQ	ACCESS:     130868	FORWARD:          0	MERGED:          0	TO_CACHE:     130868

LLC Dense regions hint to LLC: 0

RAW hits: 523447
Loads Generated: 12617505
Loads sent to L1D: 12094056
Stores Generated: 6899109
Stores sent to L1D: 6899106
Major fault: 0 Minor fault: 2264
Allocated PAGES: 2264

stream: 
stream:times selected: 1052735
stream:pref_filled: 103390
stream:pref_useful: 19807
stream:pref_late: 33221
stream:misses: 7125
stream:misses_by_poll: 0

CS: 
CS:times selected: 143324
CS:pref_filled: 61342
CS:pref_useful: 43055
CS:pref_late: 4368
CS:misses: 9394
CS:misses_by_poll: 20

CPLX: 
CPLX:times selected: 907485
CPLX:pref_filled: 24623
CPLX:pref_useful: 5425
CPLX:pref_late: 2398
CPLX:misses: 88893
CPLX:misses_by_poll: 1

NL_L1: 
NL:times selected: 6086
NL:pref_filled: 537
NL:pref_useful: 85
NL:pref_late: 22
NL:misses: 349
NL:misses_by_poll: 0

total selections: 2109630
total_filled: 161686
total_useful: 57298
total_late: 41892
total_polluted: 21
total_misses_after_warmup: 766718
conflicts: 3234624
Degree Incremented Times: 0
Degree Decremented Times: 174877

L1 IP Table Write Accesses: 5300305
L1 IP Table Read Accesses: 2065681
L1 RST Write Accesses: 889714
L1 RST Read Accesses: 1779428
L1 CSPT Write Accesses: 889714
L1 CSPT Read Accesses: 1655056
L1 RR Filter Tag Write Accesses: 564667
L1 RR Filter Tag Read Accesses: 40558429
L1 IP Table Tag Write Accesses: 8830217
L1 IP Table Tag Read Accesses: 8830217
L1 RST Tag Write Accesses: 0
L1 RST Tag Read Accesses: 7625487
L1 RR Filter Write Accesses: 0
L1 RR Filter Read Accesses: 1485032
test: 147256
L2 IP Table Read Accesses: 1179608
L2 IP Table Write Accesses: 1616563
L2 IP Table Tag Read Accesses: 895629
L2 IP Table Tag Write Accesses: 895629

DRAM Statistics
 CHANNEL 0
 RQ ROW_BUFFER_HIT:      16766  ROW_BUFFER_MISS:      15623
 DBUS_CONGESTED:          3
 WQ ROW_BUFFER_HIT:        649  ROW_BUFFER_MISS:       5999  FULL:          0

 AVG_CONGESTED_CYCLE: 4
 All warmup complete: 2
Channel 0 Bank busy for read cycles: 0
Channel 0 Bank busy for write cycles: 0
Channel 0
Rank 0
0banks busy for read cycles: 121084188
0banks busy for write cycles: 2069
1banks busy for read cycles: 677090
1banks busy for write cycles: 248361
2banks busy for read cycles: 473942
2banks busy for write cycles: 78597
3banks busy for read cycles: 94256
3banks busy for write cycles: 38517
4banks busy for read cycles: 74659
4banks busy for write cycles: 21424
5banks busy for read cycles: 35965
5banks busy for write cycles: 19828
6banks busy for read cycles: 30980
6banks busy for write cycles: 16367
7banks busy for read cycles: 27316
7banks busy for write cycles: 17380
8banks busy for read cycles: 52965
8banks busy for write cycles: 32341

CPU 0 Branch Prediction Accuracy: 91.6417% MPKI: 15.2922 Average ROB Occupancy at Mispredict: 17.3103
Branch types
NOT_BRANCH: 40851762 81.7035%
BRANCH_DIRECT_JUMP: 522633 1.04527%
BRANCH_INDIRECT: 204723 0.409446%
BRANCH_CONDITIONAL: 6214815 12.4296%
BRANCH_DIRECT_CALL: 929734 1.85947%
BRANCH_INDIRECT_CALL: 173167 0.346334%
BRANCH_RETURN: 1102880 2.20576%
BRANCH_OTHER: 0 0%

@sumon_overall_L1D     57298     40243    104381    161686   1129097   1129097
@Sumon_Early_by_class_L1D     15490     36792      3916         6
@Sumon_Late_by_class_L1D     32358      4162      2026         6

@Sumon_Early_by_cycle_L1D     42537      3826      1718       821       213      1285       956      1510      1244      2390       679       119
@Sumon_Late_by_cycle_L1D     39385       833        24         1         0         0         0         0         0         0         0         0
@Sumon_Early_stream_L1D      6393      1706       952       700       146       902       639       984       862      1551       539       116
@Sumon_Early_CS_L1D     33926      1856       609        43         5        36         8       268         4        34         3         0
@Sumon_Early_CPLX_L1D      2046       168       136        56        53       343       204       239       227       306       135         3
@Sumon_Late_stream_L1D     32012       345         1         0         0         0         0         0         0         0         0         0
@Sumon_Late_CS_L1D      3654       484        23         1         0         0         0         0         0         0         0         0
@Sumon_Late_CPLX_L1D      2024         2         0         0         0         0         0         0         0         0         0         0
@sumon_overall_L2C     16110      1873    112857    128995    604252    604252
@Sumon_Early_by_class_L2C      1304       159       280         0
@Sumon_Late_by_class_L2C         0         0         0         0

@Sumon_Early_by_cycle_L2C      3288      1494      1138       990       656      2128      1653       600       294       571       346      2952
@Sumon_Late_by_cycle_L2C      1549       324         0         0         0         0         0         0         0         0         0         0
@Sumon_Early_stream_L2C         0         0         0         0         0         0         0         0         0        13       107      1184
@Sumon_Early_CS_L2C         0         0         0         0         0         0         0         0         0         0         2       157
@Sumon_Early_CPLX_L2C         0         0         0         0         0         0         0         0         0         1        32       247
@Sumon_Late_stream_L2C         0         0         0         0         0         0         0         0         0         0         0         0
@Sumon_Late_CS_L2C         0         0         0         0         0         0         0         0         0         0         0         0
@Sumon_Late_CPLX_L2C         0         0         0         0         0         0         0         0         0         0         0         0
DRAM PAGES: 1048576
Allocated PAGES: 2264
