Initialize SIGNATURE TABLE
ST_SET: 1
ST_WAY: 256
ST_TAG_BIT: 16
ST_TAG_MASK: ffff

Initialize PATTERN TABLE
PT_SET: 512
PT_WAY: 4
SIG_DELTA_BIT: 7
C_SIG_BIT: 4
C_DELTA_BIT: 4

Initialize PREFETCH FILTER
FILTER_SET: 1024

*** ChampSim Multicore Out-of-Order Simulator ***

Warmup Instructions: 10000000
Simulation Instructions: 50000000
Number of CPUs: 1
LLC sets: 2048
LLC ways: 16
Off-chip DRAM Size: 4096 MB Channels: 1 Width: 64-bit Data Rate: 800 MT/s
CPU 0 runs traces/SPEC2017/605.mcf_s-472B.champsimtrace.xz
.xz
CPU 0 Bimodal branch predictor
BTB has LRU replacement policy
ITLB has LRU replacement policy
DTLB has LRU replacement policy
STLB has LRU replacement policy
L1I has LRU replacement policy
L1D has LRU replacement policy
ST_WAYS: 256
PT_SETS: 512
L2C has LRU replacement policy
LLC has LRU replacement policy
Heartbeat CPU 0 instructions: 10000001 cycles: 3221189 heartbeat IPC: 3.10444 cumulative IPC: 3.10444 (Simulation time: 0 hr 20 min 5 sec) 

Warmup complete CPU 0 instructions: 10000001 cycles: 3221189 (Simulation time: 0 hr 20 min 5 sec) 

Heartbeat CPU 0 instructions: 20000000 cycles: 51000499 heartbeat IPC: 0.209296 cumulative IPC: 0.209296 (Simulation time: 1 hr 4 min 24 sec) 
Heartbeat CPU 0 instructions: 30000002 cycles: 107265083 heartbeat IPC: 0.177732 cumulative IPC: 0.192227 (Simulation time: 3 hr 36 min 55 sec) 
Heartbeat CPU 0 instructions: 40000000 cycles: 141547390 heartbeat IPC: 0.291696 cumulative IPC: 0.216879 (Simulation time: 6 hr 9 min 59 sec) 
Heartbeat CPU 0 instructions: 50000000 cycles: 178730662 heartbeat IPC: 0.268938 cumulative IPC: 0.227908 (Simulation time: 6 hr 29 min 16 sec) 
Heartbeat CPU 0 instructions: 60000001 cycles: 216004317 heartbeat IPC: 0.268286 cumulative IPC: 0.234981 (Simulation time: 6 hr 42 min 24 sec) 
Finished CPU 0 instructions: 50000000 cycles: 212783128 cumulative IPC: 0.234981 (Simulation time: 6 hr 42 min 24 sec) 

ChampSim completed all CPUs

Region of Interest Statistics

CPU 0 cumulative IPC: 0.234981 instructions: 50000000 cycles: 212783128
ITLB TOTAL     ACCESS:    8458847  HIT:    8458847  MISS:          0  HIT %:        100  MISS %:          0   MPKI: 0
ITLB LOAD TRANSLATION ACCESS:    8458847  HIT:    8458847  MISS:          0  HIT %:        100  MISS %:          0   MPKI: 0
ITLB PREFETCH  REQUESTED:          0  ISSUED:          0  USEFUL:          0  USELESS:          0
ITLB USEFUL LOAD PREFETCHES:          0 PREFETCH ISSUED TO LOWER LEVEL:          0  ACCURACY: -nan
ITLB TIMELY PREFETCHES:          0 LATE PREFETCHES: 0 DROPPED PREFETCHES: 0
ITLB PREFETCHES SAME FILL-ORIGIN LEVEL: 0 DIFFERENT FILL-ORIGIN LEVEL: 0
ITLB AVERAGE MISS LATENCY: -nan cycles
ITLB RQ	ACCESS:   11131312	FORWARD:          0	MERGED:    2672465	TO_CACHE:    8458847

DTLB TOTAL     ACCESS:   14196267  HIT:   14069457  MISS:     126810  HIT %:    99.1067  MISS %:   0.893263   MPKI: 2.5362
DTLB LOAD TRANSLATION ACCESS:   14196267  HIT:   14069457  MISS:     126810  HIT %:    99.1067  MISS %:   0.893263   MPKI: 2.5362
DTLB PREFETCH  REQUESTED:          0  ISSUED:          0  USEFUL:          0  USELESS:          0
DTLB USEFUL LOAD PREFETCHES:          0 PREFETCH ISSUED TO LOWER LEVEL:          0  ACCURACY: -nan
DTLB TIMELY PREFETCHES:          0 LATE PREFETCHES: 0 DROPPED PREFETCHES: 0
DTLB PREFETCHES SAME FILL-ORIGIN LEVEL: 0 DIFFERENT FILL-ORIGIN LEVEL: 0
DTLB AVERAGE MISS LATENCY: 60.4292 cycles
DTLB RQ	ACCESS:   22739975	FORWARD:          0	MERGED:    8513236	TO_CACHE:   14226739

STLB TOTAL     ACCESS:     126810  HIT:      52260  MISS:      74550  HIT %:    41.2113  MISS %:    58.7887   MPKI: 1.491
STLB LOAD TRANSLATION ACCESS:     126810  HIT:      52260  MISS:      74550  HIT %:    41.2113  MISS %:    58.7887   MPKI: 1.491
STLB PREFETCH  REQUESTED:          0  ISSUED:          0  USEFUL:          0  USELESS:          0
STLB USEFUL LOAD PREFETCHES:          0 PREFETCH ISSUED TO LOWER LEVEL:          0  ACCURACY: -nan
STLB TIMELY PREFETCHES:          0 LATE PREFETCHES: 0 DROPPED PREFETCHES: 0
STLB PREFETCHES SAME FILL-ORIGIN LEVEL: 0 DIFFERENT FILL-ORIGIN LEVEL: 0
STLB AVERAGE MISS LATENCY: 87.4661 cycles
STLB RQ	ACCESS:     126810	FORWARD:          0	MERGED:          0	TO_CACHE:     126810

STLB Hit, L1D data hit: 0
STLB Hit, L2C data hit: 0
STLB Hit, LLC data hit: 0
STLB Hit, LLC data miss: 0
STLB STLB hints to L2: 0
L1D TOTAL     ACCESS:   22006292  HIT:   19187356  MISS:    2818936  HIT %:    87.1903  MISS %:    12.8097   MPKI: 56.3787
L1D LOAD      ACCESS:   10777093  HIT:    8091173  MISS:    2685920  HIT %:    75.0775  MISS %:    24.9225   MPKI: 53.7184
L1D RFO       ACCESS:   11229199  HIT:   11096183  MISS:     133016  HIT %:    98.8154  MISS %:    1.18455   MPKI: 2.66032
L1D PREFETCH  REQUESTED:          0  ISSUED:          0  USEFUL:          0  USELESS:          0
L1D USEFUL LOAD PREFETCHES:          0 PREFETCH ISSUED TO LOWER LEVEL:          0  ACCURACY: -nan
L1D TIMELY PREFETCHES:          0 LATE PREFETCHES: 0 DROPPED PREFETCHES: 0
L1D PREFETCHES SAME FILL-ORIGIN LEVEL: 0 DIFFERENT FILL-ORIGIN LEVEL: 0
L1D AVERAGE MISS LATENCY: 239.056 cycles
L1D RQ	ACCESS:   17024966	FORWARD:          0	MERGED:    5913968	TO_CACHE:   11101690
L1D WQ	ACCESS:   11892813	FORWARD:       9308	MERGED:     254528	TO_CACHE:   11638285

L1D UNIQUE REGIONS ACCESSED: 0
L1D REGIONS CONFLICTS: 0
L1D Cross Page Prefetch Requests: 0
L1D Same Page Prefetch Requests: 0
L1D ROI Sum of L1D PQ occupancy: 0
L1D PREFETCHES PUSHED FROM L2C: 0
L1I TOTAL     ACCESS:   11131312  HIT:   11131312  MISS:          0  HIT %:        100  MISS %:          0   MPKI: 0
L1I LOAD      ACCESS:   11131312  HIT:   11131312  MISS:          0  HIT %:        100  MISS %:          0   MPKI: 0
L1I PREFETCH  REQUESTED:          0  ISSUED:          0  USEFUL:          0  USELESS:          0
L1I USEFUL LOAD PREFETCHES:          0 PREFETCH ISSUED TO LOWER LEVEL:          0  ACCURACY: -nan
L1I TIMELY PREFETCHES:          0 LATE PREFETCHES: 0 DROPPED PREFETCHES: 0
L1I PREFETCHES SAME FILL-ORIGIN LEVEL: 0 DIFFERENT FILL-ORIGIN LEVEL: 0
L1I AVERAGE MISS LATENCY: -nan cycles
L1I RQ	ACCESS:   14904759	FORWARD:          0	MERGED:    3773447	TO_CACHE:   11131312

BTB TOTAL     ACCESS:    5821398  HIT:    5821364  MISS:         34  HIT %:    99.9994  MISS %: 0.000584052   MPKI: 0.00068
BTB BRANCH_DIRECT_JUMP	ACCESS:     638582  HIT:     638576  MISS:          6
BTB BRANCH_INDIRECT	ACCESS:          0  HIT:          0  MISS:          0
BTB BRANCH_CONDITIONAL	ACCESS:    5182668  HIT:    5182644  MISS:         24
BTB BRANCH_DIRECT_CALL	ACCESS:         74  HIT:         72  MISS:          2
BTB BRANCH_INDIRECT_CALL	ACCESS:          0  HIT:          0  MISS:          0
BTB BRANCH_RETURN	ACCESS:         74  HIT:         72  MISS:          2
BTB BRANCH_OTHER ACCESS:          0  HIT:          0  MISS:          0

L2C TOTAL     ACCESS:    3611387  HIT:     809547  MISS:    2801840  HIT %:    22.4165  MISS %:    77.5835   MPKI: 56.0368
L2C LOAD      ACCESS:    2685916  HIT:     317220  MISS:    2368696  HIT %:    11.8105  MISS %:    88.1895   MPKI: 47.3739
L2C DATA LOAD MPKI: 47.3739
L2C INSTRUCTION LOAD MPKI: 0
L2C RFO       ACCESS:     133012  HIT:       2486  MISS:     130526  HIT %:      1.869  MISS %:     98.131   MPKI: 2.61052
L2C PREFETCH  ACCESS:     432061  HIT:     141415  MISS:     290646  HIT %:    32.7303  MISS %:    67.2697   MPKI: 5.81292
L2C DATA PREFETCH MPKI: 5.81292
L2C INSTRUCTION PREFETCH MPKI: 0
L2C WRITEBACK ACCESS:     285804  HIT:     284481  MISS:       1323  HIT %:    99.5371  MISS %:   0.462905   MPKI: 0.02646
L2C LOAD TRANSLATION ACCESS:      74594  HIT:      63945  MISS:      10649  HIT %:    85.7241  MISS %:    14.2759   MPKI: 0.21298
L2C PREFETCH  REQUESTED:    5569696  ISSUED:    5568928  USEFUL:     283435  USELESS:       7218
L2C USEFUL LOAD PREFETCHES:     283435 PREFETCH ISSUED TO LOWER LEVEL:    5157561  ACCURACY: 5.49552
L2C TIMELY PREFETCHES:     283435 LATE PREFETCHES: 7707 DROPPED PREFETCHES: 0
L2C PREFETCHES SAME FILL-ORIGIN LEVEL: 298353 DIFFERENT FILL-ORIGIN LEVEL: 4859208
L2C AVERAGE MISS LATENCY: 231.423 cycles
L2C RQ	ACCESS:    2893530	FORWARD:          0	MERGED:          0	TO_CACHE:    2893522
L2C WQ	ACCESS:     285804	FORWARD:          9	MERGED:          0	TO_CACHE:     285804
L2C PQ	ACCESS:    5568928	FORWARD:          0	MERGED:     119984	TO_CACHE:    5448943

L2C Instructions Evicting Data 0
L2C Translations Evicting Data 10636
L2C Data Evicting Data 2779322
L2C Instructions Evicting Instructions 0
L2C Translations Evicting Instructions 0
L2C Data Evicting Instructions 0
L2C Instructions Evicting Translations 0
L2C Translations Evicting Translations 13
L2C Data Evicting Translations 10546
L2C Dense regions hint from L2: 0
PSCL5 TOTAL     ACCESS:      74550  HIT:      74550  MISS:          0  HIT %:        100  MISS %:          0   MPKI: 0
PSCL5 LOAD TRANSLATION ACCESS:      74550  HIT:      74550  MISS:          0  HIT %:        100  MISS %:          0   MPKI: 0
PSCL5 PREFETCH  REQUESTED:          0  ISSUED:          0  USEFUL:          0  USELESS:          0
PSCL5 USEFUL LOAD PREFETCHES:          0 PREFETCH ISSUED TO LOWER LEVEL:          0  ACCURACY: -nan
PSCL5 TIMELY PREFETCHES:          0 LATE PREFETCHES: 0 DROPPED PREFETCHES: 0
PSCL5 PREFETCHES SAME FILL-ORIGIN LEVEL: 0 DIFFERENT FILL-ORIGIN LEVEL: 0

PSCL4 TOTAL     ACCESS:      74550  HIT:      74550  MISS:          0  HIT %:        100  MISS %:          0   MPKI: 0
PSCL4 LOAD TRANSLATION ACCESS:      74550  HIT:      74550  MISS:          0  HIT %:        100  MISS %:          0   MPKI: 0
PSCL4 PREFETCH  REQUESTED:          0  ISSUED:          0  USEFUL:          0  USELESS:          0
PSCL4 USEFUL LOAD PREFETCHES:          0 PREFETCH ISSUED TO LOWER LEVEL:          0  ACCURACY: -nan
PSCL4 TIMELY PREFETCHES:          0 LATE PREFETCHES: 0 DROPPED PREFETCHES: 0
PSCL4 PREFETCHES SAME FILL-ORIGIN LEVEL: 0 DIFFERENT FILL-ORIGIN LEVEL: 0

PSCL3 TOTAL     ACCESS:      74550  HIT:      74550  MISS:          0  HIT %:        100  MISS %:          0   MPKI: 0
PSCL3 LOAD TRANSLATION ACCESS:      74550  HIT:      74550  MISS:          0  HIT %:        100  MISS %:          0   MPKI: 0
PSCL3 PREFETCH  REQUESTED:          0  ISSUED:          0  USEFUL:          0  USELESS:          0
PSCL3 USEFUL LOAD PREFETCHES:          0 PREFETCH ISSUED TO LOWER LEVEL:          0  ACCURACY: -nan
PSCL3 TIMELY PREFETCHES:          0 LATE PREFETCHES: 0 DROPPED PREFETCHES: 0
PSCL3 PREFETCHES SAME FILL-ORIGIN LEVEL: 0 DIFFERENT FILL-ORIGIN LEVEL: 0

PSCL2 TOTAL     ACCESS:      74550  HIT:      74474  MISS:         76  HIT %:    99.8981  MISS %:   0.101945   MPKI: 0.00152
PSCL2 LOAD TRANSLATION ACCESS:      74550  HIT:      74474  MISS:         76  HIT %:    99.8981  MISS %:   0.101945   MPKI: 0.00152
PSCL2 PREFETCH  REQUESTED:          0  ISSUED:          0  USEFUL:          0  USELESS:          0
PSCL2 USEFUL LOAD PREFETCHES:          0 PREFETCH ISSUED TO LOWER LEVEL:          0  ACCURACY: -nan
PSCL2 TIMELY PREFETCHES:          0 LATE PREFETCHES: 0 DROPPED PREFETCHES: 0
PSCL2 PREFETCHES SAME FILL-ORIGIN LEVEL: 0 DIFFERENT FILL-ORIGIN LEVEL: 0

LLC TOTAL     ACCESS:    6502045  HIT:    3340570  MISS:    3161475  HIT %:    51.3772  MISS %:    48.6228   MPKI: 63.2295
LLC LOAD      ACCESS:    2360999  HIT:     708980  MISS:    1652019  HIT %:    30.0288  MISS %:    69.9712   MPKI: 33.0404
LLC RFO       ACCESS:     130516  HIT:       5504  MISS:     125012  HIT %:    4.21711  MISS %:    95.7829   MPKI: 2.50024
LLC PREFETCH  ACCESS:    3741209  HIT:    2368137  MISS:    1373072  HIT %:    63.2987  MISS %:    36.7013   MPKI: 27.4614
LLC WRITEBACK ACCESS:     258672  HIT:     257675  MISS:        997  HIT %:    99.6146  MISS %:    0.38543   MPKI: 0.01994
LLC LOAD TRANSLATION ACCESS:      10649  HIT:        274  MISS:      10375  HIT %:    2.57301  MISS %:     97.427   MPKI: 0.2075
LLC PREFETCH  REQUESTED:          0  ISSUED:          0  USEFUL:     712416  USELESS:     659331
LLC USEFUL LOAD PREFETCHES:     712416 PREFETCH ISSUED TO LOWER LEVEL:    2088627  ACCURACY: 34.1093
LLC TIMELY PREFETCHES:     712416 LATE PREFETCHES: 715555 DROPPED PREFETCHES: 0
LLC PREFETCHES SAME FILL-ORIGIN LEVEL: 2073946 DIFFERENT FILL-ORIGIN LEVEL: 0
LLC AVERAGE MISS LATENCY: 327.814 cycles
LLC RQ	ACCESS:    2502164	FORWARD:          0	MERGED:          0	TO_CACHE:    2502164
LLC WQ	ACCESS:     258672	FORWARD:          0	MERGED:          0	TO_CACHE:     258672
LLC PQ	ACCESS:    5157561	FORWARD:          0	MERGED:      39551	TO_CACHE:    5118010

LLC Dense regions hint to LLC: 0

RAW hits: 727959
Loads Generated: 17752925
Loads sent to L1D: 17024966
Stores Generated: 11892805
Stores sent to L1D: 11892813
Major fault: 0 Minor fault: 13946
Allocated PAGES: 13946
 All Calls: 3001242
 Critical Calls: 3001242
------------------
Depth Distribution
------------------
depth 0: 0
depth 1: 2656128
depth 2: 1142509
depth 3: 720299
depth 4: 530006
depth 5: 409216
depth 6: 340528
depth 7: 251094
depth 8: 161954
depth 9: 51525
depth 10: 1090
depth 11: 14
depth 12: 0
depth 13: 0
depth 14: 0
depth 15: 0
depth 16: 0
depth 17: 0
depth 18: 0
depth 19: 0
depth 20: 0
depth 21: 0
depth 22: 0
depth 23: 0
depth 24: 0
depth 25: 0
depth 26: 0
depth 27: 0
depth 28: 0
depth 29: 0
Total: 6264363
-----------------------------
-----------------------------
	Captured at Filter
-----------------------------
depth 0: 0
depth 1: 13302
depth 2: 3470
depth 3: 1832
depth 4: 1210
depth 5: 768
depth 6: 558
depth 7: 418
depth 8: 259
depth 9: 89
depth 10: 3
depth 11: 0
depth 12: 0
depth 13: 0
depth 14: 0
depth 15: 0
depth 16: 0
depth 17: 0
depth 18: 0
depth 19: 0
depth 20: 0
depth 21: 0
depth 22: 0
depth 23: 0
depth 24: 0
depth 25: 0
depth 26: 0
depth 27: 0
depth 28: 0
depth 29: 0
-----------------------------
-----------------------------
		Lost at Page
-----------------------------
depth 0: 0
depth 1: 121208
depth 2: 64212
depth 3: 48818
depth 4: 44552
depth 5: 38653
depth 6: 35059
depth 7: 28567
depth 8: 20918
depth 9: 7604
depth 10: 171
depth 11: 2
depth 12: 0
depth 13: 0
depth 14: 0
depth 15: 0
depth 16: 0
depth 17: 0
depth 18: 0
depth 19: 0
depth 20: 0
depth 21: 0
depth 22: 0
depth 23: 0
depth 24: 0
depth 25: 0
depth 26: 0
depth 27: 0
depth 28: 0
depth 29: 0
-----------------------------
-----------------------------
	Lost due to PQ Size
-----------------------------
138412
-----------------------------
ST read accesses: 2612357
ST write accesses: 73559
PT read accesses: 48181531
PT write accesses: 3896769
FILTER read accesses: 11074341
FILTER write accesses: 3430504
GHR read accesses: 2476214
GHR write accesses: 354379
GHR counter read accesses: 38924116
GHR counter write accesses: 3291818
ST tag read accesses: 1070203644
ST tag write accesses: 25998864

DRAM Statistics
 CHANNEL 0
 RQ ROW_BUFFER_HIT:    1984565  ROW_BUFFER_MISS:    1175880
 DBUS_CONGESTED:    2970249
 WQ ROW_BUFFER_HIT:      59922  ROW_BUFFER_MISS:     196917  FULL:          0

 AVG_CONGESTED_CYCLE: 37
 All warmup complete: 2
Channel 0 Bank busy for read cycles: 0
Channel 0 Bank busy for write cycles: 0
Channel 0
Rank 0
0banks busy for read cycles: 40931005
0banks busy for write cycles: 9105
1banks busy for read cycles: 24997211
1banks busy for write cycles: 1701143
2banks busy for read cycles: 18376208
2banks busy for write cycles: 811829
3banks busy for read cycles: 15791528
3banks busy for write cycles: 575318
4banks busy for read cycles: 16835995
4banks busy for write cycles: 457639
5banks busy for read cycles: 20090928
5banks busy for write cycles: 414258
6banks busy for read cycles: 22947778
6banks busy for write cycles: 494184
7banks busy for read cycles: 21144444
7banks busy for write cycles: 1124366
8banks busy for read cycles: 13101847
8banks busy for write cycles: 12978343

CPU 0 Branch Prediction Accuracy: 98.3401% MPKI: 1.96794 Average ROB Occupancy at Mispredict: 170.303
Branch types
NOT_BRANCH: 44071910 88.1438%
BRANCH_DIRECT_JUMP: 638582 1.27716%
BRANCH_INDIRECT: 0 0%
BRANCH_CONDITIONAL: 5289318 10.5786%
BRANCH_DIRECT_CALL: 74 0.000148%
BRANCH_INDIRECT_CALL: 0 0%
BRANCH_RETURN: 74 0.000148%
BRANCH_OTHER: 0 0%

@sumon_overall_L1D         0         0         0         0         0         0
@Sumon_Early_by_class_L1D         0         0         0         0
@Sumon_Late_by_class_L1D         0         0         0         0

@Sumon_Early_by_cycle_L1D         0         0         0         0         0         0         0         0         0         0         0         0
@Sumon_Late_by_cycle_L1D         0         0         0         0         0         0         0         0         0         0         0         0
@Sumon_Early_stream_L1D         0         0         0         0         0         0         0         0         0         0         0         0
@Sumon_Early_CS_L1D         0         0         0         0         0         0         0         0         0         0         0         0
@Sumon_Early_CPLX_L1D         0         0         0         0         0         0         0         0         0         0         0         0
@Sumon_Late_stream_L1D         0         0         0         0         0         0         0         0         0         0         0         0
@Sumon_Late_CS_L1D         0         0         0         0         0         0         0         0         0         0         0         0
@Sumon_Late_CPLX_L1D         0         0         0         0         0         0         0         0         0         0         0         0
@sumon_overall_L2C    283435      7707      7218    290646   5568928   5569696
@Sumon_Early_by_class_L2C         0         0         0         0
@Sumon_Late_by_class_L2C         0         0         0         0

@Sumon_Early_by_cycle_L2C    123927     28136     31442     27949     21167     37838     11231      1096       343       215        46        45
@Sumon_Late_by_cycle_L2C      3655      2095      1430       384        88        55         0         0         0         0         0         0
@Sumon_Early_stream_L2C         0         0         0         0         0         0         0         0         0         0         0         0
@Sumon_Early_CS_L2C         0         0         0         0         0         0         0         0         0         0         0         0
@Sumon_Early_CPLX_L2C         0         0         0         0         0         0         0         0         0         0         0         0
@Sumon_Late_stream_L2C         0         0         0         0         0         0         0         0         0         0         0         0
@Sumon_Late_CS_L2C         0         0         0         0         0         0         0         0         0         0         0         0
@Sumon_Late_CPLX_L2C         0         0         0         0         0         0         0         0         0         0         0         0
DRAM PAGES: 1048576
Allocated PAGES: 13946
