Initialize SIGNATURE TABLE
ST_SET: 1
ST_WAY: 256
ST_TAG_BIT: 16
ST_TAG_MASK: ffff

Initialize PATTERN TABLE
PT_SET: 512
PT_WAY: 4
SIG_DELTA_BIT: 7
C_SIG_BIT: 4
C_DELTA_BIT: 4

Initialize PREFETCH FILTER
FILTER_SET: 1024

*** ChampSim Multicore Out-of-Order Simulator ***

Warmup Instructions: 10000000
Simulation Instructions: 50000000
Number of CPUs: 1
LLC sets: 2048
LLC ways: 16
Off-chip DRAM Size: 4096 MB Channels: 1 Width: 64-bit Data Rate: 800 MT/s
CPU 0 runs traces/SPEC2017/605.mcf_s-1554B.champsimtrace.xz
.xz
CPU 0 Bimodal branch predictor
BTB has LRU replacement policy
ITLB has LRU replacement policy
DTLB has LRU replacement policy
STLB has LRU replacement policy
L1I has LRU replacement policy
L1D has LRU replacement policy
ST_WAYS: 256
PT_SETS: 512
L2C has LRU replacement policy
LLC has LRU replacement policy
Heartbeat CPU 0 instructions: 10000001 cycles: 3564092 heartbeat IPC: 2.80576 cumulative IPC: 2.80576 (Simulation time: 0 hr 25 min 41 sec) 

Warmup complete CPU 0 instructions: 10000001 cycles: 3564092 (Simulation time: 0 hr 25 min 42 sec) 

Heartbeat CPU 0 instructions: 20000000 cycles: 84532618 heartbeat IPC: 0.123505 cumulative IPC: 0.123505 (Simulation time: 1 hr 29 min 49 sec) 
Heartbeat CPU 0 instructions: 30000002 cycles: 165617740 heartbeat IPC: 0.123327 cumulative IPC: 0.123416 (Simulation time: 6 hr 14 min 7 sec) 
Heartbeat CPU 0 instructions: 40000000 cycles: 246286126 heartbeat IPC: 0.123964 cumulative IPC: 0.123598 (Simulation time: 6 hr 40 min 11 sec) 
Heartbeat CPU 0 instructions: 50000000 cycles: 327242678 heartbeat IPC: 0.123523 cumulative IPC: 0.123579 (Simulation time: 6 hr 53 min 22 sec) 
Heartbeat CPU 0 instructions: 60000002 cycles: 408676839 heartbeat IPC: 0.122799 cumulative IPC: 0.123422 (Simulation time: 7 hr 0 min 49 sec) 
Finished CPU 0 instructions: 50000001 cycles: 405112747 cumulative IPC: 0.123422 (Simulation time: 7 hr 0 min 49 sec) 

ChampSim completed all CPUs

Region of Interest Statistics

CPU 0 cumulative IPC: 0.123422 instructions: 50000001 cycles: 405112747
ITLB TOTAL     ACCESS:   10629729  HIT:   10629729  MISS:          0  HIT %:        100  MISS %:          0   MPKI: 0
ITLB LOAD TRANSLATION ACCESS:   10629729  HIT:   10629729  MISS:          0  HIT %:        100  MISS %:          0   MPKI: 0
ITLB PREFETCH  REQUESTED:          0  ISSUED:          0  USEFUL:          0  USELESS:          0
ITLB USEFUL LOAD PREFETCHES:          0 PREFETCH ISSUED TO LOWER LEVEL:          0  ACCURACY: -nan
ITLB TIMELY PREFETCHES:          0 LATE PREFETCHES: 0 DROPPED PREFETCHES: 0
ITLB PREFETCHES SAME FILL-ORIGIN LEVEL: 0 DIFFERENT FILL-ORIGIN LEVEL: 0
ITLB AVERAGE MISS LATENCY: -nan cycles
ITLB RQ	ACCESS:   12872391	FORWARD:          0	MERGED:    2242662	TO_CACHE:   10629729

DTLB TOTAL     ACCESS:   16524672  HIT:   16327521  MISS:     197151  HIT %:    98.8069  MISS %:    1.19307   MPKI: 3.94302
DTLB LOAD TRANSLATION ACCESS:   16524672  HIT:   16327521  MISS:     197151  HIT %:    98.8069  MISS %:    1.19307   MPKI: 3.94302
DTLB PREFETCH  REQUESTED:          0  ISSUED:          0  USEFUL:          0  USELESS:          0
DTLB USEFUL LOAD PREFETCHES:          0 PREFETCH ISSUED TO LOWER LEVEL:          0  ACCURACY: -nan
DTLB TIMELY PREFETCHES:          0 LATE PREFETCHES: 0 DROPPED PREFETCHES: 0
DTLB PREFETCHES SAME FILL-ORIGIN LEVEL: 0 DIFFERENT FILL-ORIGIN LEVEL: 0
DTLB AVERAGE MISS LATENCY: 13.3059 cycles
DTLB RQ	ACCESS:   19814265	FORWARD:          0	MERGED:    3288027	TO_CACHE:   16526238

STLB TOTAL     ACCESS:     197151  HIT:     192740  MISS:       4411  HIT %:    97.7626  MISS %:    2.23737   MPKI: 0.08822
STLB LOAD TRANSLATION ACCESS:     197151  HIT:     192740  MISS:       4411  HIT %:    97.7626  MISS %:    2.23737   MPKI: 0.08822
STLB PREFETCH  REQUESTED:          0  ISSUED:          0  USEFUL:          0  USELESS:          0
STLB USEFUL LOAD PREFETCHES:          0 PREFETCH ISSUED TO LOWER LEVEL:          0  ACCURACY: -nan
STLB TIMELY PREFETCHES:          0 LATE PREFETCHES: 0 DROPPED PREFETCHES: 0
STLB PREFETCHES SAME FILL-ORIGIN LEVEL: 0 DIFFERENT FILL-ORIGIN LEVEL: 0
STLB AVERAGE MISS LATENCY: 191.724 cycles
STLB RQ	ACCESS:     197151	FORWARD:          0	MERGED:          0	TO_CACHE:     197151

STLB Hit, L1D data hit: 0
STLB Hit, L2C data hit: 0
STLB Hit, LLC data hit: 0
STLB Hit, LLC data miss: 0
STLB STLB hints to L2: 0
L1D TOTAL     ACCESS:   18436627  HIT:   10744909  MISS:    7691718  HIT %:    58.2802  MISS %:    41.7198   MPKI: 153.834
L1D LOAD      ACCESS:   15979304  HIT:    8441009  MISS:    7538295  HIT %:    52.8246  MISS %:    47.1754   MPKI: 150.766
L1D RFO       ACCESS:    2457323  HIT:    2303900  MISS:     153423  HIT %:    93.7565  MISS %:     6.2435   MPKI: 3.06846
L1D PREFETCH  REQUESTED:          0  ISSUED:          0  USEFUL:          0  USELESS:          0
L1D USEFUL LOAD PREFETCHES:          0 PREFETCH ISSUED TO LOWER LEVEL:          0  ACCURACY: -nan
L1D TIMELY PREFETCHES:          0 LATE PREFETCHES: 0 DROPPED PREFETCHES: 0
L1D PREFETCHES SAME FILL-ORIGIN LEVEL: 0 DIFFERENT FILL-ORIGIN LEVEL: 0
L1D AVERAGE MISS LATENCY: 234.99 cycles
L1D RQ	ACCESS:   20634115	FORWARD:          0	MERGED:    3650527	TO_CACHE:   16957265
L1D WQ	ACCESS:    3596625	FORWARD:      26323	MERGED:     739625	TO_CACHE:    2857000

L1D UNIQUE REGIONS ACCESSED: 0
L1D REGIONS CONFLICTS: 0
L1D Cross Page Prefetch Requests: 0
L1D Same Page Prefetch Requests: 0
L1D ROI Sum of L1D PQ occupancy: 0
L1D PREFETCHES PUSHED FROM L2C: 0
L1I TOTAL     ACCESS:   12872389  HIT:   12872389  MISS:          0  HIT %:        100  MISS %:          0   MPKI: 0
L1I LOAD      ACCESS:   12872389  HIT:   12872389  MISS:          0  HIT %:        100  MISS %:          0   MPKI: 0
L1I PREFETCH  REQUESTED:          0  ISSUED:          0  USEFUL:          0  USELESS:          0
L1I USEFUL LOAD PREFETCHES:          0 PREFETCH ISSUED TO LOWER LEVEL:          0  ACCURACY: -nan
L1I TIMELY PREFETCHES:          0 LATE PREFETCHES: 0 DROPPED PREFETCHES: 0
L1I PREFETCHES SAME FILL-ORIGIN LEVEL: 0 DIFFERENT FILL-ORIGIN LEVEL: 0
L1I AVERAGE MISS LATENCY: -nan cycles
L1I RQ	ACCESS:   17958206	FORWARD:          0	MERGED:    5085815	TO_CACHE:   12872391

BTB TOTAL     ACCESS:    8799472  HIT:    8799440  MISS:         32  HIT %:    99.9996  MISS %: 0.000363658   MPKI: 0.00064
BTB BRANCH_DIRECT_JUMP	ACCESS:    2054757  HIT:    2054751  MISS:          6
BTB BRANCH_INDIRECT	ACCESS:          0  HIT:          0  MISS:          0
BTB BRANCH_CONDITIONAL	ACCESS:    6743911  HIT:    6743889  MISS:         22
BTB BRANCH_DIRECT_CALL	ACCESS:        402  HIT:        400  MISS:          2
BTB BRANCH_INDIRECT_CALL	ACCESS:          0  HIT:          0  MISS:          0
BTB BRANCH_RETURN	ACCESS:        402  HIT:        400  MISS:          2
BTB BRANCH_OTHER ACCESS:          0  HIT:          0  MISS:          0

L2C TOTAL     ACCESS:    9002473  HIT:    1288882  MISS:    7713591  HIT %:     14.317  MISS %:     85.683   MPKI: 154.272
L2C LOAD      ACCESS:    7538293  HIT:     809563  MISS:    6728730  HIT %:    10.7393  MISS %:    89.2607   MPKI: 134.575
L2C DATA LOAD MPKI: 134.575
L2C INSTRUCTION LOAD MPKI: 0
L2C RFO       ACCESS:     153423  HIT:        212  MISS:     153211  HIT %:    0.13818  MISS %:    99.8618   MPKI: 3.06422
L2C PREFETCH  ACCESS:    1121821  HIT:     291689  MISS:     830132  HIT %:    26.0014  MISS %:    73.9986   MPKI: 16.6026
L2C DATA PREFETCH MPKI: 16.6026
L2C INSTRUCTION PREFETCH MPKI: 0
L2C WRITEBACK ACCESS:     184525  HIT:     184091  MISS:        434  HIT %:    99.7648  MISS %:   0.235198   MPKI: 0.00868
L2C LOAD TRANSLATION ACCESS:       4411  HIT:       3327  MISS:       1084  HIT %:    75.4251  MISS %:    24.5749   MPKI: 0.02168
L2C PREFETCH  REQUESTED:   16428637  ISSUED:   16424046  USEFUL:     809154  USELESS:      20966
L2C USEFUL LOAD PREFETCHES:     809154 PREFETCH ISSUED TO LOWER LEVEL:   15368213  ACCURACY: 5.26511
L2C TIMELY PREFETCHES:     809154 LATE PREFETCHES: 22436 DROPPED PREFETCHES: 0
L2C PREFETCHES SAME FILL-ORIGIN LEVEL: 852567 DIFFERENT FILL-ORIGIN LEVEL: 14515646
L2C AVERAGE MISS LATENCY: 224.049 cycles
L2C RQ	ACCESS:    7696135	FORWARD:          0	MERGED:          0	TO_CACHE:    7696134
L2C WQ	ACCESS:     184525	FORWARD:          1	MERGED:          0	TO_CACHE:     184525
L2C PQ	ACCESS:   16424046	FORWARD:          0	MERGED:     372513	TO_CACHE:   16051533

L2C Instructions Evicting Data 0
L2C Translations Evicting Data 1084
L2C Data Evicting Data 7710989
L2C Instructions Evicting Instructions 0
L2C Translations Evicting Instructions 0
L2C Data Evicting Instructions 0
L2C Instructions Evicting Translations 0
L2C Translations Evicting Translations 0
L2C Data Evicting Translations 1084
L2C Dense regions hint from L2: 0
PSCL5 TOTAL     ACCESS:       4411  HIT:       4411  MISS:          0  HIT %:        100  MISS %:          0   MPKI: 0
PSCL5 LOAD TRANSLATION ACCESS:       4411  HIT:       4411  MISS:          0  HIT %:        100  MISS %:          0   MPKI: 0
PSCL5 PREFETCH  REQUESTED:          0  ISSUED:          0  USEFUL:          0  USELESS:          0
PSCL5 USEFUL LOAD PREFETCHES:          0 PREFETCH ISSUED TO LOWER LEVEL:          0  ACCURACY: -nan
PSCL5 TIMELY PREFETCHES:          0 LATE PREFETCHES: 0 DROPPED PREFETCHES: 0
PSCL5 PREFETCHES SAME FILL-ORIGIN LEVEL: 0 DIFFERENT FILL-ORIGIN LEVEL: 0

PSCL4 TOTAL     ACCESS:       4411  HIT:       4411  MISS:          0  HIT %:        100  MISS %:          0   MPKI: 0
PSCL4 LOAD TRANSLATION ACCESS:       4411  HIT:       4411  MISS:          0  HIT %:        100  MISS %:          0   MPKI: 0
PSCL4 PREFETCH  REQUESTED:          0  ISSUED:          0  USEFUL:          0  USELESS:          0
PSCL4 USEFUL LOAD PREFETCHES:          0 PREFETCH ISSUED TO LOWER LEVEL:          0  ACCURACY: -nan
PSCL4 TIMELY PREFETCHES:          0 LATE PREFETCHES: 0 DROPPED PREFETCHES: 0
PSCL4 PREFETCHES SAME FILL-ORIGIN LEVEL: 0 DIFFERENT FILL-ORIGIN LEVEL: 0

PSCL3 TOTAL     ACCESS:       4411  HIT:       4411  MISS:          0  HIT %:        100  MISS %:          0   MPKI: 0
PSCL3 LOAD TRANSLATION ACCESS:       4411  HIT:       4411  MISS:          0  HIT %:        100  MISS %:          0   MPKI: 0
PSCL3 PREFETCH  REQUESTED:          0  ISSUED:          0  USEFUL:          0  USELESS:          0
PSCL3 USEFUL LOAD PREFETCHES:          0 PREFETCH ISSUED TO LOWER LEVEL:          0  ACCURACY: -nan
PSCL3 TIMELY PREFETCHES:          0 LATE PREFETCHES: 0 DROPPED PREFETCHES: 0
PSCL3 PREFETCHES SAME FILL-ORIGIN LEVEL: 0 DIFFERENT FILL-ORIGIN LEVEL: 0

PSCL2 TOTAL     ACCESS:       4411  HIT:       4402  MISS:          9  HIT %:     99.796  MISS %:   0.204035   MPKI: 0.00018
PSCL2 LOAD TRANSLATION ACCESS:       4411  HIT:       4402  MISS:          9  HIT %:     99.796  MISS %:   0.204035   MPKI: 0.00018
PSCL2 PREFETCH  REQUESTED:          0  ISSUED:          0  USEFUL:          0  USELESS:          0
PSCL2 USEFUL LOAD PREFETCHES:          0 PREFETCH ISSUED TO LOWER LEVEL:          0  ACCURACY: -nan
PSCL2 TIMELY PREFETCHES:          0 LATE PREFETCHES: 0 DROPPED PREFETCHES: 0
PSCL2 PREFETCHES SAME FILL-ORIGIN LEVEL: 0 DIFFERENT FILL-ORIGIN LEVEL: 0

LLC TOTAL     ACCESS:   17886551  HIT:    9295368  MISS:    8591183  HIT %:    51.9685  MISS %:    48.0315   MPKI: 171.824
LLC LOAD      ACCESS:    6706294  HIT:    1986883  MISS:    4719411  HIT %:    29.6271  MISS %:    70.3729   MPKI: 94.3882
LLC RFO       ACCESS:     153211  HIT:       4780  MISS:     148431  HIT %:    3.11988  MISS %:    96.8801   MPKI: 2.96862
LLC PREFETCH  ACCESS:   10841666  HIT:    7119724  MISS:    3721942  HIT %:      65.67  MISS %:      34.33   MPKI: 74.4388
LLC WRITEBACK ACCESS:     184296  HIT:     183920  MISS:        376  HIT %:     99.796  MISS %:    0.20402   MPKI: 0.00752
LLC LOAD TRANSLATION ACCESS:       1084  HIT:         61  MISS:       1023  HIT %:    5.62731  MISS %:    94.3727   MPKI: 0.02046
LLC PREFETCH  REQUESTED:          0  ISSUED:          0  USEFUL:    1883541  USELESS:    1835936
LLC USEFUL LOAD PREFETCHES:    1883541 PREFETCH ISSUED TO LOWER LEVEL:    6024186  ACCURACY: 31.2663
LLC TIMELY PREFETCHES:    1883541 LATE PREFETCHES: 2302235 DROPPED PREFETCHES: 0
LLC PREFETCHES SAME FILL-ORIGIN LEVEL: 5988664 DIFFERENT FILL-ORIGIN LEVEL: 0
LLC AVERAGE MISS LATENCY: 324.235 cycles
LLC RQ	ACCESS:    6860595	FORWARD:          0	MERGED:          0	TO_CACHE:    6860595
LLC WQ	ACCESS:     184296	FORWARD:          0	MERGED:          0	TO_CACHE:     184296
LLC PQ	ACCESS:   15368213	FORWARD:          0	MERGED:     157512	TO_CACHE:   15210701

LLC Dense regions hint to LLC: 0

RAW hits: 2034217
Loads Generated: 22668330
Loads sent to L1D: 20634115
Stores Generated: 3596624
Stores sent to L1D: 3596625
Major fault: 0 Minor fault: 6307
Allocated PAGES: 6307
 All Calls: 9001322
 Critical Calls: 9001322
------------------
Depth Distribution
------------------
depth 0: 0
depth 1: 8177430
depth 2: 3604688
depth 3: 2212044
depth 4: 1597497
depth 5: 1242127
depth 6: 1067182
depth 7: 872717
depth 8: 596788
depth 9: 273772
depth 10: 12656
depth 11: 479
depth 12: 4
depth 13: 0
depth 14: 0
depth 15: 0
depth 16: 0
depth 17: 0
depth 18: 0
depth 19: 0
depth 20: 0
depth 21: 0
depth 22: 0
depth 23: 0
depth 24: 0
depth 25: 0
depth 26: 0
depth 27: 0
depth 28: 0
depth 29: 0
Total: 19657384
-----------------------------
-----------------------------
	Captured at Filter
-----------------------------
depth 0: 0
depth 1: 44015
depth 2: 13265
depth 3: 6268
depth 4: 4194
depth 5: 2689
depth 6: 2012
depth 7: 1601
depth 8: 1039
depth 9: 460
depth 10: 42
depth 11: 2
depth 12: 0
depth 13: 0
depth 14: 0
depth 15: 0
depth 16: 0
depth 17: 0
depth 18: 0
depth 19: 0
depth 20: 0
depth 21: 0
depth 22: 0
depth 23: 0
depth 24: 0
depth 25: 0
depth 26: 0
depth 27: 0
depth 28: 0
depth 29: 0
-----------------------------
-----------------------------
		Lost at Page
-----------------------------
depth 0: 0
depth 1: 417307
depth 2: 220220
depth 3: 156921
depth 4: 135791
depth 5: 116049
depth 6: 108436
depth 7: 97366
depth 8: 75614
depth 9: 39606
depth 10: 2101
depth 11: 99
depth 12: 2
depth 13: 0
depth 14: 0
depth 15: 0
depth 16: 0
depth 17: 0
depth 18: 0
depth 19: 0
depth 20: 0
depth 21: 0
depth 22: 0
depth 23: 0
depth 24: 0
depth 25: 0
depth 26: 0
depth 27: 0
depth 28: 0
depth 29: 0
-----------------------------
-----------------------------
	Lost due to PQ Size
-----------------------------
930494
-----------------------------
ST read accesses: 7343646
ST write accesses: 194653
PT read accesses: 138599383
PT write accesses: 11005527
FILTER read accesses: 31727742
FILTER write accesses: 9491513
GHR read accesses: 7306012
GHR write accesses: 1076343
GHR counter read accesses: 112361718
GHR counter write accesses: 9259375
ST tag read accesses: 2997789149
ST tag write accesses: 65309725

DRAM Statistics
 CHANNEL 0
 RQ ROW_BUFFER_HIT:    6486849  ROW_BUFFER_MISS:    2103744
 DBUS_CONGESTED:    8146143
 WQ ROW_BUFFER_HIT:      39446  ROW_BUFFER_MISS:     144761  FULL:          0

 AVG_CONGESTED_CYCLE: 37
 All warmup complete: 2
Channel 0 Bank busy for read cycles: 0
Channel 0 Bank busy for write cycles: 0
Channel 0
Rank 0
0banks busy for read cycles: 13917557
0banks busy for write cycles: 1150
1banks busy for read cycles: 28848474
1banks busy for write cycles: 1142559
2banks busy for read cycles: 33000955
2banks busy for write cycles: 601369
3banks busy for read cycles: 37330682
3banks busy for write cycles: 382573
4banks busy for read cycles: 45140010
4banks busy for write cycles: 310147
5banks busy for read cycles: 57231668
5banks busy for write cycles: 330875
6banks busy for read cycles: 67529833
6banks busy for write cycles: 351363
7banks busy for read cycles: 62696127
7banks busy for write cycles: 807939
8banks busy for read cycles: 40234775
8banks busy for write cycles: 15254692

CPU 0 Branch Prediction Accuracy: 97.7265% MPKI: 4.14186 Average ROB Occupancy at Mispredict: 51.9692
Branch types
NOT_BRANCH: 40890881 81.7818%
BRANCH_DIRECT_JUMP: 2054757 4.10951%
BRANCH_INDIRECT: 0 0%
BRANCH_CONDITIONAL: 7053561 14.1071%
BRANCH_DIRECT_CALL: 402 0.000804%
BRANCH_INDIRECT_CALL: 0 0%
BRANCH_RETURN: 402 0.000804%
BRANCH_OTHER: 0 0%

@sumon_overall_L1D         0         0         0         0         0         0
@Sumon_Early_by_class_L1D         0         0         0         0
@Sumon_Late_by_class_L1D         0         0         0         0

@Sumon_Early_by_cycle_L1D         0         0         0         0         0         0         0         0         0         0         0         0
@Sumon_Late_by_cycle_L1D         0         0         0         0         0         0         0         0         0         0         0         0
@Sumon_Early_stream_L1D         0         0         0         0         0         0         0         0         0         0         0         0
@Sumon_Early_CS_L1D         0         0         0         0         0         0         0         0         0         0         0         0
@Sumon_Early_CPLX_L1D         0         0         0         0         0         0         0         0         0         0         0         0
@Sumon_Late_stream_L1D         0         0         0         0         0         0         0         0         0         0         0         0
@Sumon_Late_CS_L1D         0         0         0         0         0         0         0         0         0         0         0         0
@Sumon_Late_CPLX_L1D         0         0         0         0         0         0         0         0         0         0         0         0
@sumon_overall_L2C    809154     22436     20966    830132  16424046  16428637
@Sumon_Early_by_class_L2C         0         0         0         0
@Sumon_Late_by_class_L2C         0         0         0         0

@Sumon_Early_by_cycle_L2C    361770     96999    121367    104267     73841     49720       921       185        51        29         4         0
@Sumon_Late_by_cycle_L2C      7796      6172      6058      1837       411       162         0         0         0         0         0         0
@Sumon_Early_stream_L2C         0         0         0         0         0         0         0         0         0         0         0         0
@Sumon_Early_CS_L2C         0         0         0         0         0         0         0         0         0         0         0         0
@Sumon_Early_CPLX_L2C         0         0         0         0         0         0         0         0         0         0         0         0
@Sumon_Late_stream_L2C         0         0         0         0         0         0         0         0         0         0         0         0
@Sumon_Late_CS_L2C         0         0         0         0         0         0         0         0         0         0         0         0
@Sumon_Late_CPLX_L2C         0         0         0         0         0         0         0         0         0         0         0         0
DRAM PAGES: 1048576
Allocated PAGES: 6307
