Initialize SIGNATURE TABLE
ST_SET: 1
ST_WAY: 256
ST_TAG_BIT: 16
ST_TAG_MASK: ffff

Initialize PATTERN TABLE
PT_SET: 512
PT_WAY: 4
SIG_DELTA_BIT: 7
C_SIG_BIT: 4
C_DELTA_BIT: 4

Initialize PREFETCH FILTER
FILTER_SET: 1024

*** ChampSim Multicore Out-of-Order Simulator ***

Warmup Instructions: 10000000
Simulation Instructions: 50000000
Number of CPUs: 1
LLC sets: 2048
LLC ways: 16
Off-chip DRAM Size: 4096 MB Channels: 1 Width: 64-bit Data Rate: 800 MT/s
CPU 0 runs traces/SPEC2017/619.lbm_s-2676B.champsimtrace.xz
.xz
CPU 0 Bimodal branch predictor
BTB has LRU replacement policy
ITLB has LRU replacement policy
DTLB has LRU replacement policy
STLB has LRU replacement policy
L1I has LRU replacement policy
L1D has LRU replacement policy
ST_WAYS: 256
PT_SETS: 512
L2C has LRU replacement policy
LLC has LRU replacement policy
Heartbeat CPU 0 instructions: 10000003 cycles: 2902087 heartbeat IPC: 3.4458 cumulative IPC: 3.4458 (Simulation time: 0 hr 17 min 5 sec) 

Warmup complete CPU 0 instructions: 10000003 cycles: 2902087 (Simulation time: 0 hr 17 min 5 sec) 

Heartbeat CPU 0 instructions: 20000002 cycles: 42403803 heartbeat IPC: 0.253154 cumulative IPC: 0.253154 (Simulation time: 1 hr 11 min 34 sec) 
Heartbeat CPU 0 instructions: 30000002 cycles: 81073341 heartbeat IPC: 0.258601 cumulative IPC: 0.255848 (Simulation time: 5 hr 54 min 54 sec) 
Heartbeat CPU 0 instructions: 40000001 cycles: 117802755 heartbeat IPC: 0.272261 cumulative IPC: 0.261095 (Simulation time: 6 hr 26 min 45 sec) 
Heartbeat CPU 0 instructions: 50000002 cycles: 152691385 heartbeat IPC: 0.286626 cumulative IPC: 0.267042 (Simulation time: 6 hr 43 min 50 sec) 
Heartbeat CPU 0 instructions: 60000002 cycles: 185987097 heartbeat IPC: 0.300339 cumulative IPC: 0.273097 (Simulation time: 6 hr 54 min 25 sec) 
Finished CPU 0 instructions: 50000003 cycles: 183085011 cumulative IPC: 0.273097 (Simulation time: 6 hr 54 min 25 sec) 

ChampSim completed all CPUs

Region of Interest Statistics

CPU 0 cumulative IPC: 0.273097 instructions: 50000003 cycles: 183085011
ITLB TOTAL     ACCESS:    6720793  HIT:    6720793  MISS:          0  HIT %:        100  MISS %:          0   MPKI: 0
ITLB LOAD TRANSLATION ACCESS:    6720793  HIT:    6720793  MISS:          0  HIT %:        100  MISS %:          0   MPKI: 0
ITLB PREFETCH  REQUESTED:          0  ISSUED:          0  USEFUL:          0  USELESS:          0
ITLB USEFUL LOAD PREFETCHES:          0 PREFETCH ISSUED TO LOWER LEVEL:          0  ACCURACY: -nan
ITLB TIMELY PREFETCHES:          0 LATE PREFETCHES: 0 DROPPED PREFETCHES: 0
ITLB PREFETCHES SAME FILL-ORIGIN LEVEL: 0 DIFFERENT FILL-ORIGIN LEVEL: 0
ITLB AVERAGE MISS LATENCY: -nan cycles
ITLB RQ	ACCESS:    8708660	FORWARD:          0	MERGED:    1987867	TO_CACHE:    6720793

DTLB TOTAL     ACCESS:    8610188  HIT:    8551670  MISS:      58518  HIT %:    99.3204  MISS %:   0.679637   MPKI: 1.17036
DTLB LOAD TRANSLATION ACCESS:    8610188  HIT:    8551670  MISS:      58518  HIT %:    99.3204  MISS %:   0.679637   MPKI: 1.17036
DTLB PREFETCH  REQUESTED:          0  ISSUED:          0  USEFUL:          0  USELESS:          0
DTLB USEFUL LOAD PREFETCHES:          0 PREFETCH ISSUED TO LOWER LEVEL:          0  ACCURACY: -nan
DTLB TIMELY PREFETCHES:          0 LATE PREFETCHES: 0 DROPPED PREFETCHES: 0
DTLB PREFETCHES SAME FILL-ORIGIN LEVEL: 0 DIFFERENT FILL-ORIGIN LEVEL: 0
DTLB AVERAGE MISS LATENCY: 203.842 cycles
DTLB RQ	ACCESS:   13101039	FORWARD:          0	MERGED:    4469775	TO_CACHE:    8631264

STLB TOTAL     ACCESS:      58518  HIT:      26765  MISS:      31753  HIT %:    45.7381  MISS %:    54.2619   MPKI: 0.63506
STLB LOAD TRANSLATION ACCESS:      58518  HIT:      26765  MISS:      31753  HIT %:    45.7381  MISS %:    54.2619   MPKI: 0.63506
STLB PREFETCH  REQUESTED:          0  ISSUED:          0  USEFUL:          0  USELESS:          0
STLB USEFUL LOAD PREFETCHES:          0 PREFETCH ISSUED TO LOWER LEVEL:          0  ACCURACY: -nan
STLB TIMELY PREFETCHES:          0 LATE PREFETCHES: 0 DROPPED PREFETCHES: 0
STLB PREFETCHES SAME FILL-ORIGIN LEVEL: 0 DIFFERENT FILL-ORIGIN LEVEL: 0
STLB AVERAGE MISS LATENCY: 357.856 cycles
STLB RQ	ACCESS:      58518	FORWARD:          0	MERGED:          0	TO_CACHE:      58518

STLB Hit, L1D data hit: 0
STLB Hit, L2C data hit: 0
STLB Hit, LLC data hit: 0
STLB Hit, LLC data miss: 0
STLB STLB hints to L2: 0
L1D TOTAL     ACCESS:   12956121  HIT:    9603879  MISS:    3352242  HIT %:    74.1262  MISS %:    25.8738   MPKI: 67.0448
L1D LOAD      ACCESS:    4336383  HIT:    3828440  MISS:     507943  HIT %:    88.2865  MISS %:    11.7135   MPKI: 10.1589
L1D RFO       ACCESS:    8619738  HIT:    5775439  MISS:    2844299  HIT %:    67.0025  MISS %:    32.9975   MPKI: 56.886
L1D PREFETCH  REQUESTED:          0  ISSUED:          0  USEFUL:          0  USELESS:          0
L1D USEFUL LOAD PREFETCHES:          0 PREFETCH ISSUED TO LOWER LEVEL:          0  ACCURACY: -nan
L1D TIMELY PREFETCHES:          0 LATE PREFETCHES: 0 DROPPED PREFETCHES: 0
L1D PREFETCHES SAME FILL-ORIGIN LEVEL: 0 DIFFERENT FILL-ORIGIN LEVEL: 0
L1D AVERAGE MISS LATENCY: 753.342 cycles
L1D RQ	ACCESS:   11597433	FORWARD:          0	MERGED:    6777386	TO_CACHE:    4404777
L1D WQ	ACCESS:    8740015	FORWARD:     415270	MERGED:      43753	TO_CACHE:    8696262

L1D UNIQUE REGIONS ACCESSED: 0
L1D REGIONS CONFLICTS: 0
L1D Cross Page Prefetch Requests: 0
L1D Same Page Prefetch Requests: 0
L1D ROI Sum of L1D PQ occupancy: 0
L1D PREFETCHES PUSHED FROM L2C: 0
L1I TOTAL     ACCESS:    8708660  HIT:    8708660  MISS:          0  HIT %:        100  MISS %:          0   MPKI: 0
L1I LOAD      ACCESS:    8708660  HIT:    8708660  MISS:          0  HIT %:        100  MISS %:          0   MPKI: 0
L1I PREFETCH  REQUESTED:          0  ISSUED:          0  USEFUL:          0  USELESS:          0
L1I USEFUL LOAD PREFETCHES:          0 PREFETCH ISSUED TO LOWER LEVEL:          0  ACCURACY: -nan
L1I TIMELY PREFETCHES:          0 LATE PREFETCHES: 0 DROPPED PREFETCHES: 0
L1I PREFETCHES SAME FILL-ORIGIN LEVEL: 0 DIFFERENT FILL-ORIGIN LEVEL: 0
L1I AVERAGE MISS LATENCY: -nan cycles
L1I RQ	ACCESS:   12577939	FORWARD:          0	MERGED:    3869279	TO_CACHE:    8708660

BTB TOTAL     ACCESS:     800658  HIT:     800652  MISS:          6  HIT %:    99.9993  MISS %: 0.000749384   MPKI: 0.00012
BTB BRANCH_DIRECT_JUMP	ACCESS:     107474  HIT:     107473  MISS:          1
BTB BRANCH_INDIRECT	ACCESS:          0  HIT:          0  MISS:          0
BTB BRANCH_CONDITIONAL	ACCESS:     693184  HIT:     693179  MISS:          5
BTB BRANCH_DIRECT_CALL	ACCESS:          0  HIT:          0  MISS:          0
BTB BRANCH_INDIRECT_CALL	ACCESS:          0  HIT:          0  MISS:          0
BTB BRANCH_RETURN	ACCESS:          0  HIT:          0  MISS:          0
BTB BRANCH_OTHER ACCESS:          0  HIT:          0  MISS:          0

L2C TOTAL     ACCESS:    6324906  HIT:    4262991  MISS:    2061915  HIT %:    67.4001  MISS %:    32.5999   MPKI: 41.2383
L2C LOAD      ACCESS:     507943  HIT:      95317  MISS:     412626  HIT %:    18.7653  MISS %:    81.2347   MPKI: 8.25252
L2C DATA LOAD MPKI: 8.25252
L2C INSTRUCTION LOAD MPKI: 0
L2C RFO       ACCESS:    2844299  HIT:    1294378  MISS:    1549921  HIT %:    45.5078  MISS %:    54.4922   MPKI: 30.9984
L2C PREFETCH  ACCESS:      96610  HIT:       1304  MISS:      95306  HIT %:    1.34976  MISS %:    98.6502   MPKI: 1.90612
L2C DATA PREFETCH MPKI: 1.90612
L2C INSTRUCTION PREFETCH MPKI: 0
L2C WRITEBACK ACCESS:    2844299  HIT:    2844249  MISS:         50  HIT %:    99.9982  MISS %:  0.0017579   MPKI: 0.001
L2C LOAD TRANSLATION ACCESS:      31755  HIT:      27743  MISS:       4012  HIT %:    87.3658  MISS %:    12.6342   MPKI: 0.08024
L2C PREFETCH  REQUESTED:    3176733  ISSUED:    3176733  USEFUL:      95304  USELESS:          2
L2C USEFUL LOAD PREFETCHES:      95304 PREFETCH ISSUED TO LOWER LEVEL:    2241716  ACCURACY: 4.25139
L2C TIMELY PREFETCHES:      95304 LATE PREFETCHES: 99842 DROPPED PREFETCHES: 0
L2C PREFETCHES SAME FILL-ORIGIN LEVEL: 195148 DIFFERENT FILL-ORIGIN LEVEL: 2046568
L2C AVERAGE MISS LATENCY: 1209.06 cycles
L2C RQ	ACCESS:    3384008	FORWARD:          0	MERGED:          0	TO_CACHE:    3384008
L2C WQ	ACCESS:    2844299	FORWARD:          0	MERGED:          0	TO_CACHE:    2844299
L2C PQ	ACCESS:    3176733	FORWARD:          0	MERGED:     824923	TO_CACHE:    2351810

L2C Instructions Evicting Data 0
L2C Translations Evicting Data 3984
L2C Data Evicting Data 2053872
L2C Instructions Evicting Instructions 0
L2C Translations Evicting Instructions 0
L2C Data Evicting Instructions 0
L2C Instructions Evicting Translations 0
L2C Translations Evicting Translations 28
L2C Data Evicting Translations 3981
L2C Dense regions hint from L2: 0
PSCL5 TOTAL     ACCESS:      31753  HIT:      31753  MISS:          0  HIT %:        100  MISS %:          0   MPKI: 0
PSCL5 LOAD TRANSLATION ACCESS:      31753  HIT:      31753  MISS:          0  HIT %:        100  MISS %:          0   MPKI: 0
PSCL5 PREFETCH  REQUESTED:          0  ISSUED:          0  USEFUL:          0  USELESS:          0
PSCL5 USEFUL LOAD PREFETCHES:          0 PREFETCH ISSUED TO LOWER LEVEL:          0  ACCURACY: -nan
PSCL5 TIMELY PREFETCHES:          0 LATE PREFETCHES: 0 DROPPED PREFETCHES: 0
PSCL5 PREFETCHES SAME FILL-ORIGIN LEVEL: 0 DIFFERENT FILL-ORIGIN LEVEL: 0

PSCL4 TOTAL     ACCESS:      31753  HIT:      31753  MISS:          0  HIT %:        100  MISS %:          0   MPKI: 0
PSCL4 LOAD TRANSLATION ACCESS:      31753  HIT:      31753  MISS:          0  HIT %:        100  MISS %:          0   MPKI: 0
PSCL4 PREFETCH  REQUESTED:          0  ISSUED:          0  USEFUL:          0  USELESS:          0
PSCL4 USEFUL LOAD PREFETCHES:          0 PREFETCH ISSUED TO LOWER LEVEL:          0  ACCURACY: -nan
PSCL4 TIMELY PREFETCHES:          0 LATE PREFETCHES: 0 DROPPED PREFETCHES: 0
PSCL4 PREFETCHES SAME FILL-ORIGIN LEVEL: 0 DIFFERENT FILL-ORIGIN LEVEL: 0

PSCL3 TOTAL     ACCESS:      31753  HIT:      31753  MISS:          0  HIT %:        100  MISS %:          0   MPKI: 0
PSCL3 LOAD TRANSLATION ACCESS:      31753  HIT:      31753  MISS:          0  HIT %:        100  MISS %:          0   MPKI: 0
PSCL3 PREFETCH  REQUESTED:          0  ISSUED:          0  USEFUL:          0  USELESS:          0
PSCL3 USEFUL LOAD PREFETCHES:          0 PREFETCH ISSUED TO LOWER LEVEL:          0  ACCURACY: -nan
PSCL3 TIMELY PREFETCHES:          0 LATE PREFETCHES: 0 DROPPED PREFETCHES: 0
PSCL3 PREFETCHES SAME FILL-ORIGIN LEVEL: 0 DIFFERENT FILL-ORIGIN LEVEL: 0

PSCL2 TOTAL     ACCESS:      31753  HIT:      31719  MISS:         34  HIT %:    99.8929  MISS %:   0.107076   MPKI: 0.00068
PSCL2 LOAD TRANSLATION ACCESS:      31753  HIT:      31719  MISS:         34  HIT %:    99.8929  MISS %:   0.107076   MPKI: 0.00068
PSCL2 PREFETCH  REQUESTED:          0  ISSUED:          0  USEFUL:          0  USELESS:          0
PSCL2 USEFUL LOAD PREFETCHES:          0 PREFETCH ISSUED TO LOWER LEVEL:          0  ACCURACY: -nan
PSCL2 TIMELY PREFETCHES:          0 LATE PREFETCHES: 0 DROPPED PREFETCHES: 0
PSCL2 PREFETCHES SAME FILL-ORIGIN LEVEL: 0 DIFFERENT FILL-ORIGIN LEVEL: 0

LLC TOTAL     ACCESS:    4483602  HIT:    2447913  MISS:    2035689  HIT %:     54.597  MISS %:     45.403   MPKI: 40.7138
LLC LOAD      ACCESS:     312784  HIT:     225645  MISS:      87139  HIT %:    72.1408  MISS %:    27.8592   MPKI: 1.74278
LLC RFO       ACCESS:    1549909  HIT:      26224  MISS:    1523685  HIT %:    1.69197  MISS %:     98.308   MPKI: 30.4737
LLC PREFETCH  ACCESS:    1066561  HIT:     645758  MISS:     420803  HIT %:    60.5458  MISS %:    39.4542   MPKI: 8.41606
LLC WRITEBACK ACCESS:    1550336  HIT:    1550286  MISS:         50  HIT %:    99.9968  MISS %: 0.00322511   MPKI: 0.001
LLC LOAD TRANSLATION ACCESS:       4012  HIT:          0  MISS:       4012  HIT %:          0  MISS %:        100   MPKI: 0.08024
LLC PREFETCH  REQUESTED:          0  ISSUED:          0  USEFUL:     225642  USELESS:     194498
LLC USEFUL LOAD PREFETCHES:     225642 PREFETCH ISSUED TO LOWER LEVEL:     492894  ACCURACY: 45.779
LLC TIMELY PREFETCHES:     225642 LATE PREFETCHES: 72089 DROPPED PREFETCHES: 0
LLC PREFETCHES SAME FILL-ORIGIN LEVEL: 488829 DIFFERENT FILL-ORIGIN LEVEL: 0
LLC AVERAGE MISS LATENCY: 1435.62 cycles
LLC RQ	ACCESS:    1866728	FORWARD:          0	MERGED:          0	TO_CACHE:    1866716
LLC WQ	ACCESS:    1550336	FORWARD:         12	MERGED:          0	TO_CACHE:    1550336
LLC PQ	ACCESS:    2241716	FORWARD:          0	MERGED:     283319	TO_CACHE:    1958397

LLC Dense regions hint to LLC: 0

RAW hits: 1077464
Loads Generated: 12674904
Loads sent to L1D: 11597433
Stores Generated: 8740012
Stores sent to L1D: 8740015
Major fault: 0 Minor fault: 22569
Allocated PAGES: 22569
 All Calls: 619816
 Critical Calls: 619816
------------------
Depth Distribution
------------------
depth 0: 0
depth 1: 669592
depth 2: 645060
depth 3: 617428
depth 4: 588064
depth 5: 550411
depth 6: 420146
depth 7: 275672
depth 8: 160706
depth 9: 74553
depth 10: 17527
depth 11: 2930
depth 12: 396
depth 13: 21
depth 14: 0
depth 15: 0
depth 16: 0
depth 17: 0
depth 18: 0
depth 19: 0
depth 20: 0
depth 21: 0
depth 22: 0
depth 23: 0
depth 24: 0
depth 25: 0
depth 26: 0
depth 27: 0
depth 28: 0
depth 29: 0
Total: 4022506
-----------------------------
-----------------------------
	Captured at Filter
-----------------------------
depth 0: 0
depth 1: 3794
depth 2: 1823
depth 3: 1246
depth 4: 1138
depth 5: 991
depth 6: 762
depth 7: 512
depth 8: 280
depth 9: 132
depth 10: 25
depth 11: 3
depth 12: 2
depth 13: 0
depth 14: 0
depth 15: 0
depth 16: 0
depth 17: 0
depth 18: 0
depth 19: 0
depth 20: 0
depth 21: 0
depth 22: 0
depth 23: 0
depth 24: 0
depth 25: 0
depth 26: 0
depth 27: 0
depth 28: 0
depth 29: 0
-----------------------------
-----------------------------
		Lost at Page
-----------------------------
depth 0: 0
depth 1: 19956
depth 2: 20455
depth 3: 29262
depth 4: 37213
depth 5: 44438
depth 6: 42559
depth 7: 34526
depth 8: 25840
depth 9: 15389
depth 10: 4658
depth 11: 944
depth 12: 162
depth 13: 24
depth 14: 0
depth 15: 0
depth 16: 0
depth 17: 0
depth 18: 0
depth 19: 0
depth 20: 0
depth 21: 0
depth 22: 0
depth 23: 0
depth 24: 0
depth 25: 0
depth 26: 0
depth 27: 0
depth 28: 0
depth 29: 0
-----------------------------
-----------------------------
	Lost due to PQ Size
-----------------------------
28158
-----------------------------
ST read accesses: 499998
ST write accesses: 7945
PT read accesses: 18624805
PT write accesses: 748982
FILTER read accesses: 5755561
FILTER write accesses: 2576770
GHR read accesses: 911278
GHR write accesses: 206708
GHR counter read accesses: 15788406
GHR counter write accesses: 1021333
ST tag read accesses: 199466213
ST tag write accesses: 2536243

DRAM Statistics
 CHANNEL 0
 RQ ROW_BUFFER_HIT:     161047  ROW_BUFFER_MISS:    1874592
 DBUS_CONGESTED:    3352419
 WQ ROW_BUFFER_HIT:     172121  ROW_BUFFER_MISS:    1351163  FULL:          0

 AVG_CONGESTED_CYCLE: 38
 All warmup complete: 2
Channel 0 Bank busy for read cycles: 0
Channel 0 Bank busy for write cycles: 0
Channel 0
Rank 0
0banks busy for read cycles: 10437
0banks busy for write cycles: 0
1banks busy for read cycles: 914669
1banks busy for write cycles: 172689
2banks busy for read cycles: 1179280
2banks busy for write cycles: 172689
3banks busy for read cycles: 1791632
3banks busy for write cycles: 172685
4banks busy for read cycles: 2787550
4banks busy for write cycles: 172685
5banks busy for read cycles: 4957612
5banks busy for write cycles: 172685
6banks busy for read cycles: 12033108
6banks busy for write cycles: 172878
7banks busy for read cycles: 28487811
7banks busy for write cycles: 1703980
8banks busy for read cycles: 52097647
8banks busy for write cycles: 76084975

CPU 0 Branch Prediction Accuracy: 95.9387% MPKI: 0.6505 Average ROB Occupancy at Mispredict: 196.135
Branch types
NOT_BRANCH: 49199043 98.3981%
BRANCH_DIRECT_JUMP: 107474 0.214948%
BRANCH_INDIRECT: 0 0%
BRANCH_CONDITIONAL: 693377 1.38675%
BRANCH_DIRECT_CALL: 0 0%
BRANCH_INDIRECT_CALL: 0 0%
BRANCH_RETURN: 0 0%
BRANCH_OTHER: 0 0%

@sumon_overall_L1D         0         0         0         0         0         0
@Sumon_Early_by_class_L1D         0         0         0         0
@Sumon_Late_by_class_L1D         0         0         0         0

@Sumon_Early_by_cycle_L1D         0         0         0         0         0         0         0         0         0         0         0         0
@Sumon_Late_by_cycle_L1D         0         0         0         0         0         0         0         0         0         0         0         0
@Sumon_Early_stream_L1D         0         0         0         0         0         0         0         0         0         0         0         0
@Sumon_Early_CS_L1D         0         0         0         0         0         0         0         0         0         0         0         0
@Sumon_Early_CPLX_L1D         0         0         0         0         0         0         0         0         0         0         0         0
@Sumon_Late_stream_L1D         0         0         0         0         0         0         0         0         0         0         0         0
@Sumon_Late_CS_L1D         0         0         0         0         0         0         0         0         0         0         0         0
@Sumon_Late_CPLX_L1D         0         0         0         0         0         0         0         0         0         0         0         0
@sumon_overall_L2C     95304     99842         2     95306   3176733   3176733
@Sumon_Early_by_class_L2C         0         0         0         0
@Sumon_Late_by_class_L2C         0         0         0         0

@Sumon_Early_by_cycle_L2C     36830      9933     10321      7010     15337     15291       582         0         0         0         0         0
@Sumon_Late_by_cycle_L2C     63322      6901      3392      2776      6675     15196      1580         0         0         0         0         0
@Sumon_Early_stream_L2C         0         0         0         0         0         0         0         0         0         0         0         0
@Sumon_Early_CS_L2C         0         0         0         0         0         0         0         0         0         0         0         0
@Sumon_Early_CPLX_L2C         0         0         0         0         0         0         0         0         0         0         0         0
@Sumon_Late_stream_L2C         0         0         0         0         0         0         0         0         0         0         0         0
@Sumon_Late_CS_L2C         0         0         0         0         0         0         0         0         0         0         0         0
@Sumon_Late_CPLX_L2C         0         0         0         0         0         0         0         0         0         0         0         0
DRAM PAGES: 1048576
Allocated PAGES: 22569
