Initialize SIGNATURE TABLE
ST_SET: 1
ST_WAY: 256
ST_TAG_BIT: 16
ST_TAG_MASK: ffff

Initialize PATTERN TABLE
PT_SET: 512
PT_WAY: 4
SIG_DELTA_BIT: 7
C_SIG_BIT: 4
C_DELTA_BIT: 4

Initialize PREFETCH FILTER
FILTER_SET: 1024

*** ChampSim Multicore Out-of-Order Simulator ***

Warmup Instructions: 10000000
Simulation Instructions: 50000000
Number of CPUs: 1
LLC sets: 2048
LLC ways: 16
Off-chip DRAM Size: 4096 MB Channels: 1 Width: 64-bit Data Rate: 400 MT/s
CPU 0 runs traces/clientserver/client_002.champsimtrace.xz
.xz
CPU 0 Bimodal branch predictor
BTB has LRU replacement policy
ITLB has LRU replacement policy
DTLB has LRU replacement policy
STLB has LRU replacement policy
L1I has LRU replacement policy
L1D has LRU replacement policy
ST_WAYS: 256
PT_SETS: 512
L2C has LRU replacement policy
LLC has LRU replacement policy
Heartbeat CPU 0 instructions: 10000000 cycles: 2815699 heartbeat IPC: 3.55152 cumulative IPC: 3.55152 (Simulation time: 3 hr 13 min 58 sec) 

Warmup complete CPU 0 instructions: 10000004 cycles: 2815700 (Simulation time: 3 hr 14 min 0 sec) 

Heartbeat CPU 0 instructions: 20000002 cycles: 18039120 heartbeat IPC: 0.656883 cumulative IPC: 0.656882 (Simulation time: 3 hr 27 min 17 sec) 
Heartbeat CPU 0 instructions: 30000001 cycles: 33468210 heartbeat IPC: 0.648126 cumulative IPC: 0.652475 (Simulation time: 3 hr 44 min 41 sec) 
Heartbeat CPU 0 instructions: 40000002 cycles: 49102324 heartbeat IPC: 0.639627 cumulative IPC: 0.648135 (Simulation time: 4 hr 0 min 33 sec) 
Heartbeat CPU 0 instructions: 50000000 cycles: 64379996 heartbeat IPC: 0.65455 cumulative IPC: 0.649727 (Simulation time: 4 hr 14 min 38 sec) 
Heartbeat CPU 0 instructions: 60000001 cycles: 79823067 heartbeat IPC: 0.64754 cumulative IPC: 0.649288 (Simulation time: 4 hr 26 min 35 sec) 
Finished CPU 0 instructions: 50000002 cycles: 77007377 cumulative IPC: 0.649288 (Simulation time: 4 hr 26 min 35 sec) 

ChampSim completed all CPUs

Region of Interest Statistics

CPU 0 cumulative IPC: 0.649288 instructions: 50000002 cycles: 77007377
ITLB TOTAL     ACCESS:    8439456  HIT:    8343630  MISS:      95826  HIT %:    98.8645  MISS %:    1.13545   MPKI: 1.91652
ITLB LOAD TRANSLATION ACCESS:    8439456  HIT:    8343630  MISS:      95826  HIT %:    98.8645  MISS %:    1.13545   MPKI: 1.91652
ITLB PREFETCH  REQUESTED:          0  ISSUED:          0  USEFUL:          0  USELESS:          0
ITLB USEFUL LOAD PREFETCHES:          0 PREFETCH ISSUED TO LOWER LEVEL:          0  ACCURACY: -nan
ITLB TIMELY PREFETCHES:          0 LATE PREFETCHES: 0 DROPPED PREFETCHES: 0
ITLB PREFETCHES SAME FILL-ORIGIN LEVEL: 0 DIFFERENT FILL-ORIGIN LEVEL: 0
ITLB AVERAGE MISS LATENCY: 9.55583 cycles
ITLB RQ	ACCESS:   10240210	FORWARD:          0	MERGED:    1770784	TO_CACHE:    8469426

DTLB TOTAL     ACCESS:   10580046  HIT:   10423340  MISS:     156706  HIT %:    98.5189  MISS %:    1.48115   MPKI: 3.13412
DTLB LOAD TRANSLATION ACCESS:   10580046  HIT:   10423340  MISS:     156706  HIT %:    98.5189  MISS %:    1.48115   MPKI: 3.13412
DTLB PREFETCH  REQUESTED:          0  ISSUED:          0  USEFUL:          0  USELESS:          0
DTLB USEFUL LOAD PREFETCHES:          0 PREFETCH ISSUED TO LOWER LEVEL:          0  ACCURACY: -nan
DTLB TIMELY PREFETCHES:          0 LATE PREFETCHES: 0 DROPPED PREFETCHES: 0
DTLB PREFETCHES SAME FILL-ORIGIN LEVEL: 0 DIFFERENT FILL-ORIGIN LEVEL: 0
DTLB AVERAGE MISS LATENCY: 11.199 cycles
DTLB RQ	ACCESS:   14103959	FORWARD:          0	MERGED:    3507939	TO_CACHE:   10596020

STLB TOTAL     ACCESS:     252532  HIT:     244123  MISS:       8409  HIT %:    96.6701  MISS %:    3.32988   MPKI: 0.16818
STLB LOAD TRANSLATION ACCESS:     252532  HIT:     244123  MISS:       8409  HIT %:    96.6701  MISS %:    3.32988   MPKI: 0.16818
STLB PREFETCH  REQUESTED:          0  ISSUED:          0  USEFUL:          0  USELESS:          0
STLB USEFUL LOAD PREFETCHES:          0 PREFETCH ISSUED TO LOWER LEVEL:          0  ACCURACY: -nan
STLB TIMELY PREFETCHES:          0 LATE PREFETCHES: 0 DROPPED PREFETCHES: 0
STLB PREFETCHES SAME FILL-ORIGIN LEVEL: 0 DIFFERENT FILL-ORIGIN LEVEL: 0
STLB AVERAGE MISS LATENCY: 46.3386 cycles
STLB RQ	ACCESS:     252532	FORWARD:          0	MERGED:          0	TO_CACHE:     252532

STLB Hit, L1D data hit: 0
STLB Hit, L2C data hit: 0
STLB Hit, LLC data hit: 0
STLB Hit, LLC data miss: 0
STLB STLB hints to L2: 0
L1D TOTAL     ACCESS:   13882789  HIT:   13650891  MISS:     231898  HIT %:    98.3296  MISS %:     1.6704   MPKI: 4.63796
L1D LOAD      ACCESS:    7406380  HIT:    7270788  MISS:     135592  HIT %:    98.1693  MISS %:    1.83075   MPKI: 2.71184
L1D RFO       ACCESS:    6476409  HIT:    6380103  MISS:      96306  HIT %:     98.513  MISS %:    1.48703   MPKI: 1.92612
L1D PREFETCH  REQUESTED:          0  ISSUED:          0  USEFUL:          0  USELESS:          0
L1D USEFUL LOAD PREFETCHES:          0 PREFETCH ISSUED TO LOWER LEVEL:          0  ACCURACY: -nan
L1D TIMELY PREFETCHES:          0 LATE PREFETCHES: 0 DROPPED PREFETCHES: 0
L1D PREFETCHES SAME FILL-ORIGIN LEVEL: 0 DIFFERENT FILL-ORIGIN LEVEL: 0
L1D AVERAGE MISS LATENCY: 164.2 cycles
L1D RQ	ACCESS:   11676270	FORWARD:          0	MERGED:    4073610	TO_CACHE:    7416618
L1D WQ	ACCESS:    6853195	FORWARD:     186042	MERGED:     165854	TO_CACHE:    6687341

L1D UNIQUE REGIONS ACCESSED: 0
L1D REGIONS CONFLICTS: 0
L1D Cross Page Prefetch Requests: 0
L1D Same Page Prefetch Requests: 0
L1D ROI Sum of L1D PQ occupancy: 0
L1D PREFETCHES PUSHED FROM L2C: 0
L1I TOTAL     ACCESS:   10142326  HIT:    9675269  MISS:     467057  HIT %:     95.395  MISS %:    4.60503   MPKI: 9.34114
L1I LOAD      ACCESS:   10142326  HIT:    9675269  MISS:     467057  HIT %:     95.395  MISS %:    4.60503   MPKI: 9.34114
L1I PREFETCH  REQUESTED:          0  ISSUED:          0  USEFUL:          0  USELESS:          0
L1I USEFUL LOAD PREFETCHES:          0 PREFETCH ISSUED TO LOWER LEVEL:          0  ACCURACY: -nan
L1I TIMELY PREFETCHES:          0 LATE PREFETCHES: 0 DROPPED PREFETCHES: 0
L1I PREFETCHES SAME FILL-ORIGIN LEVEL: 0 DIFFERENT FILL-ORIGIN LEVEL: 0
L1I AVERAGE MISS LATENCY: 20.0409 cycles
L1I RQ	ACCESS:   15110162	FORWARD:          0	MERGED:    4869952	TO_CACHE:   10240210

BTB TOTAL     ACCESS:    6796237  HIT:    6165045  MISS:     631192  HIT %:    90.7126  MISS %:    9.28737   MPKI: 12.6238
BTB BRANCH_DIRECT_JUMP	ACCESS:     517874  HIT:     500004  MISS:      17870
BTB BRANCH_INDIRECT	ACCESS:     114556  HIT:      57356  MISS:      57200
BTB BRANCH_CONDITIONAL	ACCESS:    3999865  HIT:    3947993  MISS:      51872
BTB BRANCH_DIRECT_CALL	ACCESS:     959047  HIT:     921975  MISS:      37072
BTB BRANCH_INDIRECT_CALL	ACCESS:     122815  HIT:      95300  MISS:      27515
BTB BRANCH_RETURN	ACCESS:    1082080  HIT:     642417  MISS:     439663
BTB BRANCH_OTHER ACCESS:          0  HIT:          0  MISS:          0

L2C TOTAL     ACCESS:     905659  HIT:     712313  MISS:     193346  HIT %:    78.6513  MISS %:    21.3487   MPKI: 3.86692
L2C LOAD      ACCESS:     602649  HIT:     483141  MISS:     119508  HIT %:    80.1696  MISS %:    19.8304   MPKI: 2.39016
L2C DATA LOAD MPKI: 0.78806
L2C INSTRUCTION LOAD MPKI: 1.6021
L2C RFO       ACCESS:      96305  HIT:      26557  MISS:      69748  HIT %:    27.5759  MISS %:    72.4241   MPKI: 1.39496
L2C PREFETCH  ACCESS:      81831  HIT:      79461  MISS:       2370  HIT %:    97.1038  MISS %:    2.89621   MPKI: 0.0474
L2C DATA PREFETCH MPKI: 0.0474
L2C INSTRUCTION PREFETCH MPKI: 0
L2C WRITEBACK ACCESS:     116287  HIT:     116009  MISS:        278  HIT %:    99.7609  MISS %:   0.239064   MPKI: 0.00556
L2C LOAD TRANSLATION ACCESS:       8587  HIT:       7145  MISS:       1442  HIT %:    83.2072  MISS %:    16.7928   MPKI: 0.02884
L2C PREFETCH  REQUESTED:     135856  ISSUED:     135856  USEFUL:       2258  USELESS:        121
L2C USEFUL LOAD PREFETCHES:       2258 PREFETCH ISSUED TO LOWER LEVEL:      54481  ACCURACY: 4.14456
L2C TIMELY PREFETCHES:       2258 LATE PREFETCHES: 385 DROPPED PREFETCHES: 0
L2C PREFETCHES SAME FILL-ORIGIN LEVEL: 2755 DIFFERENT FILL-ORIGIN LEVEL: 51726
L2C AVERAGE MISS LATENCY: 194.388 cycles
L2C RQ	ACCESS:     707542	FORWARD:          0	MERGED:          0	TO_CACHE:     707541
L2C WQ	ACCESS:     116287	FORWARD:          1	MERGED:          0	TO_CACHE:     116287
L2C PQ	ACCESS:     135856	FORWARD:          0	MERGED:        893	TO_CACHE:     134963

L2C Instructions Evicting Data 47094
L2C Translations Evicting Data 795
L2C Data Evicting Data 63918
L2C Instructions Evicting Instructions 32377
L2C Translations Evicting Instructions 631
L2C Data Evicting Instructions 46743
L2C Instructions Evicting Translations 634
L2C Translations Evicting Translations 16
L2C Data Evicting Translations 859
L2C Dense regions hint from L2: 0
PSCL5 TOTAL     ACCESS:       8409  HIT:       8409  MISS:          0  HIT %:        100  MISS %:          0   MPKI: 0
PSCL5 LOAD TRANSLATION ACCESS:       8409  HIT:       8409  MISS:          0  HIT %:        100  MISS %:          0   MPKI: 0
PSCL5 PREFETCH  REQUESTED:          0  ISSUED:          0  USEFUL:          0  USELESS:          0
PSCL5 USEFUL LOAD PREFETCHES:          0 PREFETCH ISSUED TO LOWER LEVEL:          0  ACCURACY: -nan
PSCL5 TIMELY PREFETCHES:          0 LATE PREFETCHES: 0 DROPPED PREFETCHES: 0
PSCL5 PREFETCHES SAME FILL-ORIGIN LEVEL: 0 DIFFERENT FILL-ORIGIN LEVEL: 0

PSCL4 TOTAL     ACCESS:       8409  HIT:       8409  MISS:          0  HIT %:        100  MISS %:          0   MPKI: 0
PSCL4 LOAD TRANSLATION ACCESS:       8409  HIT:       8409  MISS:          0  HIT %:        100  MISS %:          0   MPKI: 0
PSCL4 PREFETCH  REQUESTED:          0  ISSUED:          0  USEFUL:          0  USELESS:          0
PSCL4 USEFUL LOAD PREFETCHES:          0 PREFETCH ISSUED TO LOWER LEVEL:          0  ACCURACY: -nan
PSCL4 TIMELY PREFETCHES:          0 LATE PREFETCHES: 0 DROPPED PREFETCHES: 0
PSCL4 PREFETCHES SAME FILL-ORIGIN LEVEL: 0 DIFFERENT FILL-ORIGIN LEVEL: 0

PSCL3 TOTAL     ACCESS:       8401  HIT:       8395  MISS:          6  HIT %:    99.9286  MISS %:  0.0714201   MPKI: 0.00012
PSCL3 LOAD TRANSLATION ACCESS:       8401  HIT:       8395  MISS:          6  HIT %:    99.9286  MISS %:  0.0714201   MPKI: 0.00012
PSCL3 PREFETCH  REQUESTED:          0  ISSUED:          0  USEFUL:          0  USELESS:          0
PSCL3 USEFUL LOAD PREFETCHES:          0 PREFETCH ISSUED TO LOWER LEVEL:          0  ACCURACY: -nan
PSCL3 TIMELY PREFETCHES:          0 LATE PREFETCHES: 0 DROPPED PREFETCHES: 0
PSCL3 PREFETCHES SAME FILL-ORIGIN LEVEL: 0 DIFFERENT FILL-ORIGIN LEVEL: 0

PSCL2 TOTAL     ACCESS:       8409  HIT:       8234  MISS:        175  HIT %:    97.9189  MISS %:     2.0811   MPKI: 0.0035
PSCL2 LOAD TRANSLATION ACCESS:       8409  HIT:       8234  MISS:        175  HIT %:    97.9189  MISS %:     2.0811   MPKI: 0.0035
PSCL2 PREFETCH  REQUESTED:          0  ISSUED:          0  USEFUL:          0  USELESS:          0
PSCL2 USEFUL LOAD PREFETCHES:          0 PREFETCH ISSUED TO LOWER LEVEL:          0  ACCURACY: -nan
PSCL2 TIMELY PREFETCHES:          0 LATE PREFETCHES: 0 DROPPED PREFETCHES: 0
PSCL2 PREFETCHES SAME FILL-ORIGIN LEVEL: 0 DIFFERENT FILL-ORIGIN LEVEL: 0

LLC TOTAL     ACCESS:     318880  HIT:     270734  MISS:      48146  HIT %:    84.9015  MISS %:    15.0985   MPKI: 0.96292
LLC LOAD      ACCESS:     119124  HIT:     111924  MISS:       7200  HIT %:    93.9559  MISS %:    6.04412   MPKI: 0.144
LLC RFO       ACCESS:      69747  HIT:      37945  MISS:      31802  HIT %:    54.4038  MISS %:    45.5962   MPKI: 0.63604
LLC PREFETCH  ACCESS:      53974  HIT:      45231  MISS:       8743  HIT %:    83.8015  MISS %:    16.1985   MPKI: 0.17486
LLC WRITEBACK ACCESS:      74593  HIT:      74453  MISS:        140  HIT %:    99.8123  MISS %:   0.187685   MPKI: 0.0028
LLC LOAD TRANSLATION ACCESS:       1442  HIT:       1181  MISS:        261  HIT %:    81.9001  MISS %:    18.0999   MPKI: 0.00522
LLC PREFETCH  REQUESTED:          0  ISSUED:          0  USEFUL:       5114  USELESS:       3362
LLC USEFUL LOAD PREFETCHES:       5114 PREFETCH ISSUED TO LOWER LEVEL:       8932  ACCURACY: 57.2548
LLC TIMELY PREFETCHES:       5114 LATE PREFETCHES: 189 DROPPED PREFETCHES: 0
LLC PREFETCHES SAME FILL-ORIGIN LEVEL: 8890 DIFFERENT FILL-ORIGIN LEVEL: 0
LLC AVERAGE MISS LATENCY: 696.533 cycles
LLC RQ	ACCESS:     190313	FORWARD:          0	MERGED:          0	TO_CACHE:     190313
LLC WQ	ACCESS:      74593	FORWARD:          0	MERGED:          0	TO_CACHE:      74593
LLC PQ	ACCESS:      54481	FORWARD:          0	MERGED:         40	TO_CACHE:      54441

LLC Dense regions hint to LLC: 0

RAW hits: 1466683
Loads Generated: 13142955
Loads sent to L1D: 11676270
Stores Generated: 6853201
Stores sent to L1D: 6853195
Major fault: 0 Minor fault: 2277
Allocated PAGES: 2277
 All Calls: 165921
 Critical Calls: 165921
------------------
Depth Distribution
------------------
depth 0: 0
depth 1: 76986
depth 2: 24343
depth 3: 19325
depth 4: 15779
depth 5: 13402
depth 6: 10125
depth 7: 4808
depth 8: 1663
depth 9: 172
depth 10: 21
depth 11: 5
depth 12: 1
depth 13: 0
depth 14: 0
depth 15: 0
depth 16: 0
depth 17: 0
depth 18: 0
depth 19: 0
depth 20: 0
depth 21: 0
depth 22: 0
depth 23: 0
depth 24: 0
depth 25: 0
depth 26: 0
depth 27: 0
depth 28: 0
depth 29: 0
Total: 166630
-----------------------------
-----------------------------
	Captured at Filter
-----------------------------
depth 0: 0
depth 1: 781
depth 2: 462
depth 3: 400
depth 4: 313
depth 5: 236
depth 6: 157
depth 7: 72
depth 8: 26
depth 9: 6
depth 10: 0
depth 11: 0
depth 12: 0
depth 13: 0
depth 14: 0
depth 15: 0
depth 16: 0
depth 17: 0
depth 18: 0
depth 19: 0
depth 20: 0
depth 21: 0
depth 22: 0
depth 23: 0
depth 24: 0
depth 25: 0
depth 26: 0
depth 27: 0
depth 28: 0
depth 29: 0
-----------------------------
-----------------------------
		Lost at Page
-----------------------------
depth 0: 0
depth 1: 3097
depth 2: 549
depth 3: 626
depth 4: 709
depth 5: 759
depth 6: 727
depth 7: 413
depth 8: 159
depth 9: 17
depth 10: 2
depth 11: 1
depth 12: 1
depth 13: 0
depth 14: 0
depth 15: 0
depth 16: 0
depth 17: 0
depth 18: 0
depth 19: 0
depth 20: 0
depth 21: 0
depth 22: 0
depth 23: 0
depth 24: 0
depth 25: 0
depth 26: 0
depth 27: 0
depth 28: 0
depth 29: 0
-----------------------------
-----------------------------
	Lost due to PQ Size
-----------------------------
0
-----------------------------
ST read accesses: 123494
ST write accesses: 12098
PT read accesses: 1752285
PT write accesses: 156901
FILTER read accesses: 466809
FILTER write accesses: 209271
GHR read accesses: 132286
GHR write accesses: 5675
GHR counter read accesses: 1377092
GHR counter write accesses: 149877
ST tag read accesses: 57856105
ST tag write accesses: 6203964

DRAM Statistics
 CHANNEL 0
 RQ ROW_BUFFER_HIT:      24438  ROW_BUFFER_MISS:      23568
 DBUS_CONGESTED:      46308
 WQ ROW_BUFFER_HIT:       5236  ROW_BUFFER_MISS:      17838  FULL:          0

 AVG_CONGESTED_CYCLE: 74
 All warmup complete: 2
Channel 0 Bank busy for read cycles: 0
Channel 0 Bank busy for write cycles: 0
Channel 0
Rank 0
0banks busy for read cycles: 69745712
0banks busy for write cycles: 7458
1banks busy for read cycles: 2155916
1banks busy for write cycles: 1093873
2banks busy for read cycles: 479365
2banks busy for write cycles: 299809
3banks busy for read cycles: 160140
3banks busy for write cycles: 147267
4banks busy for read cycles: 93176
4banks busy for write cycles: 103561
5banks busy for read cycles: 66771
5banks busy for write cycles: 86951
6banks busy for read cycles: 59010
6banks busy for write cycles: 85393
7banks busy for read cycles: 133254
7banks busy for write cycles: 116049
8banks busy for read cycles: 1492712
8banks busy for write cycles: 680961

CPU 0 Branch Prediction Accuracy: 94.7154% MPKI: 10.0037 Average ROB Occupancy at Mispredict: 33.2767
Branch types
NOT_BRANCH: 40534656 81.0693%
BRANCH_DIRECT_JUMP: 517874 1.03575%
BRANCH_INDIRECT: 114556 0.229112%
BRANCH_CONDITIONAL: 6668634 13.3373%
BRANCH_DIRECT_CALL: 959047 1.91809%
BRANCH_INDIRECT_CALL: 122815 0.24563%
BRANCH_RETURN: 1082080 2.16416%
BRANCH_OTHER: 0 0%

@sumon_overall_L1D         0         0         0         0         0         0
@Sumon_Early_by_class_L1D         0         0         0         0
@Sumon_Late_by_class_L1D         0         0         0         0

@Sumon_Early_by_cycle_L1D         0         0         0         0         0         0         0         0         0         0         0         0
@Sumon_Late_by_cycle_L1D         0         0         0         0         0         0         0         0         0         0         0         0
@Sumon_Early_stream_L1D         0         0         0         0         0         0         0         0         0         0         0         0
@Sumon_Early_CS_L1D         0         0         0         0         0         0         0         0         0         0         0         0
@Sumon_Early_CPLX_L1D         0         0         0         0         0         0         0         0         0         0         0         0
@Sumon_Late_stream_L1D         0         0         0         0         0         0         0         0         0         0         0         0
@Sumon_Late_CS_L1D         0         0         0         0         0         0         0         0         0         0         0         0
@Sumon_Late_CPLX_L1D         0         0         0         0         0         0         0         0         0         0         0         0
@sumon_overall_L2C      2258       385       121      2370    135856    135856
@Sumon_Early_by_class_L2C         0         0         0         0
@Sumon_Late_by_class_L2C         0         0         0         0

@Sumon_Early_by_cycle_L2C       879        95        82       101       261       707        54        28        26        17         4         4
@Sumon_Late_by_cycle_L2C       384         1         0         0         0         0         0         0         0         0         0         0
@Sumon_Early_stream_L2C         0         0         0         0         0         0         0         0         0         0         0         0
@Sumon_Early_CS_L2C         0         0         0         0         0         0         0         0         0         0         0         0
@Sumon_Early_CPLX_L2C         0         0         0         0         0         0         0         0         0         0         0         0
@Sumon_Late_stream_L2C         0         0         0         0         0         0         0         0         0         0         0         0
@Sumon_Late_CS_L2C         0         0         0         0         0         0         0         0         0         0         0         0
@Sumon_Late_CPLX_L2C         0         0         0         0         0         0         0         0         0         0         0         0
DRAM PAGES: 1048576
Allocated PAGES: 2277
