Initialize SIGNATURE TABLE
ST_SET: 1
ST_WAY: 256
ST_TAG_BIT: 16
ST_TAG_MASK: ffff

Initialize PATTERN TABLE
PT_SET: 512
PT_WAY: 4
SIG_DELTA_BIT: 7
C_SIG_BIT: 4
C_DELTA_BIT: 4

Initialize PREFETCH FILTER
FILTER_SET: 1024

*** ChampSim Multicore Out-of-Order Simulator ***

Warmup Instructions: 10000000
Simulation Instructions: 50000000
Number of CPUs: 1
LLC sets: 2048
LLC ways: 16
Off-chip DRAM Size: 4096 MB Channels: 1 Width: 64-bit Data Rate: 400 MT/s
CPU 0 runs traces/clientserver/server_020.champsimtrace.xz
.xz
CPU 0 Bimodal branch predictor
BTB has LRU replacement policy
ITLB has LRU replacement policy
DTLB has LRU replacement policy
STLB has LRU replacement policy
L1I has LRU replacement policy
L1D has LRU replacement policy
ST_WAYS: 256
PT_SETS: 512
L2C has LRU replacement policy
LLC has LRU replacement policy
Heartbeat CPU 0 instructions: 10000003 cycles: 3211618 heartbeat IPC: 3.1137 cumulative IPC: 3.1137 (Simulation time: 3 hr 21 min 53 sec) 

Warmup complete CPU 0 instructions: 10000003 cycles: 3211618 (Simulation time: 3 hr 21 min 58 sec) 

Heartbeat CPU 0 instructions: 20000001 cycles: 47937975 heartbeat IPC: 0.223582 cumulative IPC: 0.223582 (Simulation time: 4 hr 10 min 16 sec) 
Heartbeat CPU 0 instructions: 30000000 cycles: 93477797 heartbeat IPC: 0.219588 cumulative IPC: 0.221567 (Simulation time: 4 hr 41 min 33 sec) 
Heartbeat CPU 0 instructions: 40000001 cycles: 138941530 heartbeat IPC: 0.219956 cumulative IPC: 0.221027 (Simulation time: 4 hr 51 min 26 sec) 
Heartbeat CPU 0 instructions: 50000000 cycles: 183688486 heartbeat IPC: 0.223479 cumulative IPC: 0.221635 (Simulation time: 4 hr 59 min 12 sec) 
Heartbeat CPU 0 instructions: 60000000 cycles: 228991023 heartbeat IPC: 0.220738 cumulative IPC: 0.221455 (Simulation time: 5 hr 1 min 19 sec) 
Finished CPU 0 instructions: 50000003 cycles: 225779412 cumulative IPC: 0.221455 (Simulation time: 5 hr 1 min 19 sec) 

ChampSim completed all CPUs

Region of Interest Statistics

CPU 0 cumulative IPC: 0.221455 instructions: 50000003 cycles: 225779412
ITLB TOTAL     ACCESS:    9244346  HIT:    8872967  MISS:     371379  HIT %:    95.9826  MISS %:    4.01736   MPKI: 7.42758
ITLB LOAD TRANSLATION ACCESS:    9244346  HIT:    8872967  MISS:     371379  HIT %:    95.9826  MISS %:    4.01736   MPKI: 7.42758
ITLB PREFETCH  REQUESTED:          0  ISSUED:          0  USEFUL:          0  USELESS:          0
ITLB USEFUL LOAD PREFETCHES:          0 PREFETCH ISSUED TO LOWER LEVEL:          0  ACCURACY: -nan
ITLB TIMELY PREFETCHES:          0 LATE PREFETCHES: 0 DROPPED PREFETCHES: 0
ITLB PREFETCHES SAME FILL-ORIGIN LEVEL: 0 DIFFERENT FILL-ORIGIN LEVEL: 0
ITLB AVERAGE MISS LATENCY: 9.64398 cycles
ITLB RQ	ACCESS:   10835652	FORWARD:          0	MERGED:    1471837	TO_CACHE:    9363815

DTLB TOTAL     ACCESS:   11878447  HIT:   11455599  MISS:     422848  HIT %:    96.4402  MISS %:    3.55979   MPKI: 8.45696
DTLB LOAD TRANSLATION ACCESS:   11878447  HIT:   11455599  MISS:     422848  HIT %:    96.4402  MISS %:    3.55979   MPKI: 8.45696
DTLB PREFETCH  REQUESTED:          0  ISSUED:          0  USEFUL:          0  USELESS:          0
DTLB USEFUL LOAD PREFETCHES:          0 PREFETCH ISSUED TO LOWER LEVEL:          0  ACCURACY: -nan
DTLB TIMELY PREFETCHES:          0 LATE PREFETCHES: 0 DROPPED PREFETCHES: 0
DTLB PREFETCHES SAME FILL-ORIGIN LEVEL: 0 DIFFERENT FILL-ORIGIN LEVEL: 0
DTLB AVERAGE MISS LATENCY: 22.2159 cycles
DTLB RQ	ACCESS:   16631749	FORWARD:          0	MERGED:    4695585	TO_CACHE:   11936164

STLB TOTAL     ACCESS:     794227  HIT:     761402  MISS:      32825  HIT %:    95.8671  MISS %:    4.13295   MPKI: 0.6565
STLB LOAD TRANSLATION ACCESS:     794227  HIT:     761402  MISS:      32825  HIT %:    95.8671  MISS %:    4.13295   MPKI: 0.6565
STLB PREFETCH  REQUESTED:          0  ISSUED:          0  USEFUL:          0  USELESS:          0
STLB USEFUL LOAD PREFETCHES:          0 PREFETCH ISSUED TO LOWER LEVEL:          0  ACCURACY: -nan
STLB TIMELY PREFETCHES:          0 LATE PREFETCHES: 0 DROPPED PREFETCHES: 0
STLB PREFETCHES SAME FILL-ORIGIN LEVEL: 0 DIFFERENT FILL-ORIGIN LEVEL: 0
STLB AVERAGE MISS LATENCY: 177.175 cycles
STLB RQ	ACCESS:     794227	FORWARD:          0	MERGED:          0	TO_CACHE:     794227

STLB Hit, L1D data hit: 0
STLB Hit, L2C data hit: 0
STLB Hit, LLC data hit: 0
STLB Hit, LLC data miss: 0
STLB STLB hints to L2: 0
L1D TOTAL     ACCESS:   14026585  HIT:   12232269  MISS:    1794316  HIT %:    87.2077  MISS %:    12.7923   MPKI: 35.8863
L1D LOAD      ACCESS:    7960554  HIT:    7128986  MISS:     831568  HIT %:    89.5539  MISS %:    10.4461   MPKI: 16.6314
L1D RFO       ACCESS:    6066031  HIT:    5103283  MISS:     962748  HIT %:    84.1289  MISS %:    15.8711   MPKI: 19.255
L1D PREFETCH  REQUESTED:          0  ISSUED:          0  USEFUL:          0  USELESS:          0
L1D USEFUL LOAD PREFETCHES:          0 PREFETCH ISSUED TO LOWER LEVEL:          0  ACCURACY: -nan
L1D TIMELY PREFETCHES:          0 LATE PREFETCHES: 0 DROPPED PREFETCHES: 0
L1D PREFETCHES SAME FILL-ORIGIN LEVEL: 0 DIFFERENT FILL-ORIGIN LEVEL: 0
L1D AVERAGE MISS LATENCY: 900.472 cycles
L1D RQ	ACCESS:   11482469	FORWARD:          0	MERGED:    3352218	TO_CACHE:    8007755
L1D WQ	ACCESS:    8689751	FORWARD:     122496	MERGED:      65757	TO_CACHE:    8623994

L1D UNIQUE REGIONS ACCESSED: 0
L1D REGIONS CONFLICTS: 0
L1D Cross Page Prefetch Requests: 0
L1D Same Page Prefetch Requests: 0
L1D ROI Sum of L1D PQ occupancy: 0
L1D PREFETCHES PUSHED FROM L2C: 0
L1I TOTAL     ACCESS:   10118333  HIT:    7731121  MISS:    2387212  HIT %:    76.4071  MISS %:    23.5929   MPKI: 47.7442
L1I LOAD      ACCESS:   10118333  HIT:    7731121  MISS:    2387212  HIT %:    76.4071  MISS %:    23.5929   MPKI: 47.7442
L1I PREFETCH  REQUESTED:          0  ISSUED:          0  USEFUL:          0  USELESS:          0
L1I USEFUL LOAD PREFETCHES:          0 PREFETCH ISSUED TO LOWER LEVEL:          0  ACCURACY: -nan
L1I TIMELY PREFETCHES:          0 LATE PREFETCHES: 0 DROPPED PREFETCHES: 0
L1I PREFETCHES SAME FILL-ORIGIN LEVEL: 0 DIFFERENT FILL-ORIGIN LEVEL: 0
L1I AVERAGE MISS LATENCY: 17.5595 cycles
L1I RQ	ACCESS:   14764420	FORWARD:          0	MERGED:    3928768	TO_CACHE:   10835652

BTB TOTAL     ACCESS:    5369972  HIT:    5103286  MISS:     266686  HIT %:    95.0338  MISS %:    4.96625   MPKI: 5.33372
BTB BRANCH_DIRECT_JUMP	ACCESS:     456401  HIT:     454412  MISS:       1989
BTB BRANCH_INDIRECT	ACCESS:      50013  HIT:      49833  MISS:        180
BTB BRANCH_CONDITIONAL	ACCESS:    3043084  HIT:    3036854  MISS:       6230
BTB BRANCH_DIRECT_CALL	ACCESS:     742782  HIT:     738717  MISS:       4065
BTB BRANCH_INDIRECT_CALL	ACCESS:     167454  HIT:     138660  MISS:      28794
BTB BRANCH_RETURN	ACCESS:     910238  HIT:     684810  MISS:     225428
BTB BRANCH_OTHER ACCESS:          0  HIT:          0  MISS:          0

L2C TOTAL     ACCESS:    5937060  HIT:    4230812  MISS:    1706248  HIT %:    71.2611  MISS %:    28.7389   MPKI: 34.125
L2C LOAD      ACCESS:    3218770  HIT:    2637778  MISS:     580992  HIT %:    81.9499  MISS %:    18.0501   MPKI: 11.6198
L2C DATA LOAD MPKI: 9.09986
L2C INSTRUCTION LOAD MPKI: 2.51998
L2C RFO       ACCESS:     962742  HIT:      24341  MISS:     938401  HIT %:     2.5283  MISS %:    97.4717   MPKI: 18.768
L2C PREFETCH  ACCESS:     568782  HIT:     402515  MISS:     166267  HIT %:    70.7679  MISS %:    29.2321   MPKI: 3.32534
L2C DATA PREFETCH MPKI: 3.32534
L2C INSTRUCTION PREFETCH MPKI: 0
L2C WRITEBACK ACCESS:    1150542  HIT:    1148261  MISS:       2281  HIT %:    99.8017  MISS %:   0.198254   MPKI: 0.04562
L2C LOAD TRANSLATION ACCESS:      36224  HIT:      17917  MISS:      18307  HIT %:    49.4617  MISS %:    50.5383   MPKI: 0.36614
L2C PREFETCH  REQUESTED:    2911590  ISSUED:    2911492  USEFUL:     163307  USELESS:       2957
L2C USEFUL LOAD PREFETCHES:     163307 PREFETCH ISSUED TO LOWER LEVEL:    2431037  ACCURACY: 6.71759
L2C TIMELY PREFETCHES:     163307 LATE PREFETCHES: 22842 DROPPED PREFETCHES: 0
L2C PREFETCHES SAME FILL-ORIGIN LEVEL: 189109 DIFFERENT FILL-ORIGIN LEVEL: 2241928
L2C AVERAGE MISS LATENCY: 948.331 cycles
L2C RQ	ACCESS:    4217752	FORWARD:          0	MERGED:          0	TO_CACHE:    4217736
L2C WQ	ACCESS:    1150542	FORWARD:         17	MERGED:          0	TO_CACHE:    1150542
L2C PQ	ACCESS:    2911492	FORWARD:          0	MERGED:      45718	TO_CACHE:    2865773

L2C Instructions Evicting Data 118831
L2C Translations Evicting Data 16979
L2C Data Evicting Data 1423854
L2C Instructions Evicting Instructions 5882
L2C Translations Evicting Instructions 1121
L2C Data Evicting Instructions 119020
L2C Instructions Evicting Translations 1286
L2C Translations Evicting Translations 207
L2C Data Evicting Translations 16787
L2C Dense regions hint from L2: 0
PSCL5 TOTAL     ACCESS:      32825  HIT:      32825  MISS:          0  HIT %:        100  MISS %:          0   MPKI: 0
PSCL5 LOAD TRANSLATION ACCESS:      32825  HIT:      32825  MISS:          0  HIT %:        100  MISS %:          0   MPKI: 0
PSCL5 PREFETCH  REQUESTED:          0  ISSUED:          0  USEFUL:          0  USELESS:          0
PSCL5 USEFUL LOAD PREFETCHES:          0 PREFETCH ISSUED TO LOWER LEVEL:          0  ACCURACY: -nan
PSCL5 TIMELY PREFETCHES:          0 LATE PREFETCHES: 0 DROPPED PREFETCHES: 0
PSCL5 PREFETCHES SAME FILL-ORIGIN LEVEL: 0 DIFFERENT FILL-ORIGIN LEVEL: 0

PSCL4 TOTAL     ACCESS:      32170  HIT:      32073  MISS:         97  HIT %:    99.6985  MISS %:   0.301523   MPKI: 0.00194
PSCL4 LOAD TRANSLATION ACCESS:      32170  HIT:      32073  MISS:         97  HIT %:    99.6985  MISS %:   0.301523   MPKI: 0.00194
PSCL4 PREFETCH  REQUESTED:          0  ISSUED:          0  USEFUL:          0  USELESS:          0
PSCL4 USEFUL LOAD PREFETCHES:          0 PREFETCH ISSUED TO LOWER LEVEL:          0  ACCURACY: -nan
PSCL4 TIMELY PREFETCHES:          0 LATE PREFETCHES: 0 DROPPED PREFETCHES: 0
PSCL4 PREFETCHES SAME FILL-ORIGIN LEVEL: 0 DIFFERENT FILL-ORIGIN LEVEL: 0

PSCL3 TOTAL     ACCESS:      32559  HIT:      32462  MISS:         97  HIT %:    99.7021  MISS %:   0.297921   MPKI: 0.00194
PSCL3 LOAD TRANSLATION ACCESS:      32559  HIT:      32462  MISS:         97  HIT %:    99.7021  MISS %:   0.297921   MPKI: 0.00194
PSCL3 PREFETCH  REQUESTED:          0  ISSUED:          0  USEFUL:          0  USELESS:          0
PSCL3 USEFUL LOAD PREFETCHES:          0 PREFETCH ISSUED TO LOWER LEVEL:          0  ACCURACY: -nan
PSCL3 TIMELY PREFETCHES:          0 LATE PREFETCHES: 0 DROPPED PREFETCHES: 0
PSCL3 PREFETCHES SAME FILL-ORIGIN LEVEL: 0 DIFFERENT FILL-ORIGIN LEVEL: 0

PSCL2 TOTAL     ACCESS:      32825  HIT:      29595  MISS:       3230  HIT %:    90.1599  MISS %:    9.84006   MPKI: 0.0646
PSCL2 LOAD TRANSLATION ACCESS:      32825  HIT:      29595  MISS:       3230  HIT %:    90.1599  MISS %:    9.84006   MPKI: 0.0646
PSCL2 PREFETCH  REQUESTED:          0  ISSUED:          0  USEFUL:          0  USELESS:          0
PSCL2 USEFUL LOAD PREFETCHES:          0 PREFETCH ISSUED TO LOWER LEVEL:          0  ACCURACY: -nan
PSCL2 TIMELY PREFETCHES:          0 LATE PREFETCHES: 0 DROPPED PREFETCHES: 0
PSCL2 PREFETCHES SAME FILL-ORIGIN LEVEL: 0 DIFFERENT FILL-ORIGIN LEVEL: 0

LLC TOTAL     ACCESS:    3858439  HIT:    2518468  MISS:    1339971  HIT %:    65.2717  MISS %:    34.7283   MPKI: 26.7994
LLC LOAD      ACCESS:     558152  HIT:     407727  MISS:     150425  HIT %:    73.0495  MISS %:    26.9505   MPKI: 3.0085
LLC RFO       ACCESS:     938399  HIT:     148655  MISS:     789744  HIT %:    15.8413  MISS %:    84.1587   MPKI: 15.7949
LLC PREFETCH  ACCESS:    1254386  HIT:     865083  MISS:     389303  HIT %:    68.9647  MISS %:    31.0353   MPKI: 7.78606
LLC WRITEBACK ACCESS:    1089195  HIT:    1087448  MISS:       1747  HIT %:    99.8396  MISS %:   0.160394   MPKI: 0.03494
LLC LOAD TRANSLATION ACCESS:      18307  HIT:       9555  MISS:       8752  HIT %:    52.1932  MISS %:    47.8068   MPKI: 0.17504
LLC PREFETCH  REQUESTED:          0  ISSUED:          0  USEFUL:     124138  USELESS:     265046
LLC USEFUL LOAD PREFETCHES:     124138 PREFETCH ISSUED TO LOWER LEVEL:     416200  ACCURACY: 29.8265
LLC TIMELY PREFETCHES:     124138 LATE PREFETCHES: 26897 DROPPED PREFETCHES: 0
LLC PREFETCHES SAME FILL-ORIGIN LEVEL: 412800 DIFFERENT FILL-ORIGIN LEVEL: 0
LLC AVERAGE MISS LATENCY: 1421.71 cycles
LLC RQ	ACCESS:    1514858	FORWARD:          0	MERGED:          0	TO_CACHE:    1514858
LLC WQ	ACCESS:    1089195	FORWARD:          0	MERGED:          0	TO_CACHE:    1089195
LLC PQ	ACCESS:    2431037	FORWARD:          0	MERGED:       2472	TO_CACHE:    2428565

LLC Dense regions hint to LLC: 0

RAW hits: 897053
Loads Generated: 12379521
Loads sent to L1D: 11482469
Stores Generated: 8689727
Stores sent to L1D: 8689751
Major fault: 0 Minor fault: 14374
Allocated PAGES: 14374
 All Calls: 999323
 Critical Calls: 999323
------------------
Depth Distribution
------------------
depth 0: 0
depth 1: 802298
depth 2: 474640
depth 3: 404758
depth 4: 374755
depth 5: 356037
depth 6: 339958
depth 7: 314815
depth 8: 231210
depth 9: 160675
depth 10: 39305
depth 11: 5337
depth 12: 202
depth 13: 30
depth 14: 7
depth 15: 3
depth 16: 0
depth 17: 0
depth 18: 0
depth 19: 0
depth 20: 0
depth 21: 0
depth 22: 0
depth 23: 0
depth 24: 0
depth 25: 0
depth 26: 0
depth 27: 0
depth 28: 0
depth 29: 0
Total: 3504030
-----------------------------
-----------------------------
	Captured at Filter
-----------------------------
depth 0: 0
depth 1: 3844
depth 2: 1500
depth 3: 1222
depth 4: 945
depth 5: 929
depth 6: 930
depth 7: 963
depth 8: 802
depth 9: 608
depth 10: 148
depth 11: 25
depth 12: 6
depth 13: 0
depth 14: 0
depth 15: 0
depth 16: 0
depth 17: 0
depth 18: 0
depth 19: 0
depth 20: 0
depth 21: 0
depth 22: 0
depth 23: 0
depth 24: 0
depth 25: 0
depth 26: 0
depth 27: 0
depth 28: 0
depth 29: 0
-----------------------------
-----------------------------
		Lost at Page
-----------------------------
depth 0: 0
depth 1: 36846
depth 2: 16835
depth 3: 16601
depth 4: 20110
depth 5: 24962
depth 6: 30258
depth 7: 34477
depth 8: 29956
depth 9: 24242
depth 10: 6895
depth 11: 1123
depth 12: 49
depth 13: 6
depth 14: 1
depth 15: 2
depth 16: 0
depth 17: 0
depth 18: 0
depth 19: 0
depth 20: 0
depth 21: 0
depth 22: 0
depth 23: 0
depth 24: 0
depth 25: 0
depth 26: 0
depth 27: 0
depth 28: 0
depth 29: 0
-----------------------------
-----------------------------
	Lost due to PQ Size
-----------------------------
684
-----------------------------
ST read accesses: 772730
ST write accesses: 58828
PT read accesses: 20732645
PT write accesses: 1055388
FILTER read accesses: 5459313
FILTER write accesses: 2141280
GHR read accesses: 1714365
GHR write accesses: 200979
GHR counter read accesses: 17327256
GHR counter write accesses: 1264539
ST tag read accesses: 350073646
ST tag write accesses: 27799225

DRAM Statistics
 CHANNEL 0
 RQ ROW_BUFFER_HIT:     434665  ROW_BUFFER_MISS:     903361
 DBUS_CONGESTED:    2042716
 WQ ROW_BUFFER_HIT:     192835  ROW_BUFFER_MISS:     685763  FULL:          0

 AVG_CONGESTED_CYCLE: 77
 All warmup complete: 2
Channel 0 Bank busy for read cycles: 0
Channel 0 Bank busy for write cycles: 0
Channel 0
Rank 0
0banks busy for read cycles: 22145745
0banks busy for write cycles: 20628
1banks busy for read cycles: 17100078
1banks busy for write cycles: 3182869
2banks busy for read cycles: 10194303
2banks busy for write cycles: 2034073
3banks busy for read cycles: 6617763
3banks busy for write cycles: 1720693
4banks busy for read cycles: 4924113
4banks busy for write cycles: 1623960
5banks busy for read cycles: 4414454
5banks busy for write cycles: 1745336
6banks busy for read cycles: 4489817
6banks busy for write cycles: 2265700
7banks busy for read cycles: 5916997
7banks busy for write cycles: 5102776
8banks busy for read cycles: 67915746
8banks busy for write cycles: 64364362

CPU 0 Branch Prediction Accuracy: 96.2778% MPKI: 6.17182 Average ROB Occupancy at Mispredict: 54.2482
Branch types
NOT_BRANCH: 41709094 83.4182%
BRANCH_DIRECT_JUMP: 456401 0.912802%
BRANCH_INDIRECT: 50013 0.100026%
BRANCH_CONDITIONAL: 5963707 11.9274%
BRANCH_DIRECT_CALL: 742782 1.48556%
BRANCH_INDIRECT_CALL: 167454 0.334908%
BRANCH_RETURN: 910238 1.82048%
BRANCH_OTHER: 0 0%

@sumon_overall_L1D         0         0         0         0         0         0
@Sumon_Early_by_class_L1D         0         0         0         0
@Sumon_Late_by_class_L1D         0         0         0         0

@Sumon_Early_by_cycle_L1D         0         0         0         0         0         0         0         0         0         0         0         0
@Sumon_Late_by_cycle_L1D         0         0         0         0         0         0         0         0         0         0         0         0
@Sumon_Early_stream_L1D         0         0         0         0         0         0         0         0         0         0         0         0
@Sumon_Early_CS_L1D         0         0         0         0         0         0         0         0         0         0         0         0
@Sumon_Early_CPLX_L1D         0         0         0         0         0         0         0         0         0         0         0         0
@Sumon_Late_stream_L1D         0         0         0         0         0         0         0         0         0         0         0         0
@Sumon_Late_CS_L1D         0         0         0         0         0         0         0         0         0         0         0         0
@Sumon_Late_CPLX_L1D         0         0         0         0         0         0         0         0         0         0         0         0
@sumon_overall_L2C    163307     22842      2957    166267   2911492   2911590
@Sumon_Early_by_class_L2C         0         0         0         0
@Sumon_Late_by_class_L2C         0         0         0         0

@Sumon_Early_by_cycle_L2C    149760      3343      1881      1169       667      3160       444        24        56      1101       491      1211
@Sumon_Late_by_cycle_L2C      5952      2509      2025      2453      2340      6259      1304         0         0         0         0         0
@Sumon_Early_stream_L2C         0         0         0         0         0         0         0         0         0         0         0         0
@Sumon_Early_CS_L2C         0         0         0         0         0         0         0         0         0         0         0         0
@Sumon_Early_CPLX_L2C         0         0         0         0         0         0         0         0         0         0         0         0
@Sumon_Late_stream_L2C         0         0         0         0         0         0         0         0         0         0         0         0
@Sumon_Late_CS_L2C         0         0         0         0         0         0         0         0         0         0         0         0
@Sumon_Late_CPLX_L2C         0         0         0         0         0         0         0         0         0         0         0         0
DRAM PAGES: 1048576
Allocated PAGES: 14374
