Initialize SIGNATURE TABLE
ST_SET: 1
ST_WAY: 256
ST_TAG_BIT: 16
ST_TAG_MASK: ffff

Initialize PATTERN TABLE
PT_SET: 512
PT_WAY: 4
SIG_DELTA_BIT: 7
C_SIG_BIT: 4
C_DELTA_BIT: 4

Initialize PREFETCH FILTER
FILTER_SET: 1024

*** ChampSim Multicore Out-of-Order Simulator ***

Warmup Instructions: 10000000
Simulation Instructions: 50000000
Number of CPUs: 1
LLC sets: 2048
LLC ways: 16
Off-chip DRAM Size: 4096 MB Channels: 1 Width: 64-bit Data Rate: 400 MT/s
CPU 0 runs traces/clientserver/server_009.champsimtrace.xz
.xz
CPU 0 Bimodal branch predictor
BTB has LRU replacement policy
ITLB has LRU replacement policy
DTLB has LRU replacement policy
STLB has LRU replacement policy
L1I has LRU replacement policy
L1D has LRU replacement policy
ST_WAYS: 256
PT_SETS: 512
L2C has LRU replacement policy
LLC has LRU replacement policy
Heartbeat CPU 0 instructions: 10000001 cycles: 2768841 heartbeat IPC: 3.61162 cumulative IPC: 3.61162 (Simulation time: 3 hr 33 min 18 sec) 

Warmup complete CPU 0 instructions: 10000001 cycles: 2768841 (Simulation time: 3 hr 33 min 23 sec) 

Heartbeat CPU 0 instructions: 20000002 cycles: 23405556 heartbeat IPC: 0.484573 cumulative IPC: 0.484573 (Simulation time: 3 hr 50 min 51 sec) 
Heartbeat CPU 0 instructions: 30000002 cycles: 44303833 heartbeat IPC: 0.478508 cumulative IPC: 0.481522 (Simulation time: 4 hr 6 min 49 sec) 
Heartbeat CPU 0 instructions: 40000000 cycles: 65748187 heartbeat IPC: 0.466323 cumulative IPC: 0.476347 (Simulation time: 4 hr 20 min 26 sec) 
Heartbeat CPU 0 instructions: 50000002 cycles: 86374219 heartbeat IPC: 0.484824 cumulative IPC: 0.478438 (Simulation time: 4 hr 31 min 59 sec) 
Heartbeat CPU 0 instructions: 60000001 cycles: 113664317 heartbeat IPC: 0.366433 cumulative IPC: 0.450875 (Simulation time: 4 hr 41 min 58 sec) 
Finished CPU 0 instructions: 50000000 cycles: 110895476 cumulative IPC: 0.450875 (Simulation time: 4 hr 41 min 58 sec) 

ChampSim completed all CPUs

Region of Interest Statistics

CPU 0 cumulative IPC: 0.450875 instructions: 50000000 cycles: 110895476
ITLB TOTAL     ACCESS:    8300510  HIT:    8115357  MISS:     185153  HIT %:    97.7694  MISS %:    2.23062   MPKI: 3.70306
ITLB LOAD TRANSLATION ACCESS:    8300510  HIT:    8115357  MISS:     185153  HIT %:    97.7694  MISS %:    2.23062   MPKI: 3.70306
ITLB PREFETCH  REQUESTED:          0  ISSUED:          0  USEFUL:          0  USELESS:          0
ITLB USEFUL LOAD PREFETCHES:          0 PREFETCH ISSUED TO LOWER LEVEL:          0  ACCURACY: -nan
ITLB TIMELY PREFETCHES:          0 LATE PREFETCHES: 0 DROPPED PREFETCHES: 0
ITLB PREFETCHES SAME FILL-ORIGIN LEVEL: 0 DIFFERENT FILL-ORIGIN LEVEL: 0
ITLB AVERAGE MISS LATENCY: 17.1267 cycles
ITLB RQ	ACCESS:   10027601	FORWARD:          0	MERGED:    1679317	TO_CACHE:    8348284

DTLB TOTAL     ACCESS:   10466031  HIT:    9422864  MISS:    1043167  HIT %:    90.0328  MISS %:    9.96717   MPKI: 20.8633
DTLB LOAD TRANSLATION ACCESS:   10466031  HIT:    9422864  MISS:    1043167  HIT %:    90.0328  MISS %:    9.96717   MPKI: 20.8633
DTLB PREFETCH  REQUESTED:          0  ISSUED:          0  USEFUL:          0  USELESS:          0
DTLB USEFUL LOAD PREFETCHES:          0 PREFETCH ISSUED TO LOWER LEVEL:          0  ACCURACY: -nan
DTLB TIMELY PREFETCHES:          0 LATE PREFETCHES: 0 DROPPED PREFETCHES: 0
DTLB PREFETCHES SAME FILL-ORIGIN LEVEL: 0 DIFFERENT FILL-ORIGIN LEVEL: 0
DTLB AVERAGE MISS LATENCY: 12.6975 cycles
DTLB RQ	ACCESS:   13102703	FORWARD:          0	MERGED:    2602094	TO_CACHE:   10500609

STLB TOTAL     ACCESS:    1228320  HIT:    1117106  MISS:     111214  HIT %:    90.9458  MISS %:    9.05416   MPKI: 2.22428
STLB LOAD TRANSLATION ACCESS:    1228320  HIT:    1117106  MISS:     111214  HIT %:    90.9458  MISS %:    9.05416   MPKI: 2.22428
STLB PREFETCH  REQUESTED:          0  ISSUED:          0  USEFUL:          0  USELESS:          0
STLB USEFUL LOAD PREFETCHES:          0 PREFETCH ISSUED TO LOWER LEVEL:          0  ACCURACY: -nan
STLB TIMELY PREFETCHES:          0 LATE PREFETCHES: 0 DROPPED PREFETCHES: 0
STLB PREFETCHES SAME FILL-ORIGIN LEVEL: 0 DIFFERENT FILL-ORIGIN LEVEL: 0
STLB AVERAGE MISS LATENCY: 48.076 cycles
STLB RQ	ACCESS:    1228320	FORWARD:          0	MERGED:          0	TO_CACHE:    1228320

STLB Hit, L1D data hit: 0
STLB Hit, L2C data hit: 0
STLB Hit, LLC data hit: 0
STLB Hit, LLC data miss: 0
STLB STLB hints to L2: 0
L1D TOTAL     ACCESS:   12966804  HIT:   11695215  MISS:    1271589  HIT %:    90.1935  MISS %:     9.8065   MPKI: 25.4318
L1D LOAD      ACCESS:    8112372  HIT:    6932914  MISS:    1179458  HIT %:     85.461  MISS %:     14.539   MPKI: 23.5892
L1D RFO       ACCESS:    4854432  HIT:    4762301  MISS:      92131  HIT %:    98.1021  MISS %:    1.89787   MPKI: 1.84262
L1D PREFETCH  REQUESTED:          0  ISSUED:          0  USEFUL:          0  USELESS:          0
L1D USEFUL LOAD PREFETCHES:          0 PREFETCH ISSUED TO LOWER LEVEL:          0  ACCURACY: -nan
L1D TIMELY PREFETCHES:          0 LATE PREFETCHES: 0 DROPPED PREFETCHES: 0
L1D PREFETCHES SAME FILL-ORIGIN LEVEL: 0 DIFFERENT FILL-ORIGIN LEVEL: 0
L1D AVERAGE MISS LATENCY: 30.4541 cycles
L1D RQ	ACCESS:   11459454	FORWARD:          0	MERGED:    3240248	TO_CACHE:    8141972
L1D WQ	ACCESS:    5045877	FORWARD:      77234	MERGED:      85146	TO_CACHE:    4960731

L1D UNIQUE REGIONS ACCESSED: 0
L1D REGIONS CONFLICTS: 0
L1D Cross Page Prefetch Requests: 0
L1D Same Page Prefetch Requests: 0
L1D ROI Sum of L1D PQ occupancy: 0
L1D PREFETCHES PUSHED FROM L2C: 0
L1I TOTAL     ACCESS:    9637352  HIT:    8423267  MISS:    1214085  HIT %:    87.4023  MISS %:    12.5977   MPKI: 24.2817
L1I LOAD      ACCESS:    9637352  HIT:    8423267  MISS:    1214085  HIT %:    87.4023  MISS %:    12.5977   MPKI: 24.2817
L1I PREFETCH  REQUESTED:          0  ISSUED:          0  USEFUL:          0  USELESS:          0
L1I USEFUL LOAD PREFETCHES:          0 PREFETCH ISSUED TO LOWER LEVEL:          0  ACCURACY: -nan
L1I TIMELY PREFETCHES:          0 LATE PREFETCHES: 0 DROPPED PREFETCHES: 0
L1I PREFETCHES SAME FILL-ORIGIN LEVEL: 0 DIFFERENT FILL-ORIGIN LEVEL: 0
L1I AVERAGE MISS LATENCY: 30.0961 cycles
L1I RQ	ACCESS:   14400412	FORWARD:          0	MERGED:    4372811	TO_CACHE:   10027601

BTB TOTAL     ACCESS:    5173686  HIT:    4398171  MISS:     775515  HIT %:    85.0104  MISS %:    14.9896   MPKI: 15.5103
BTB BRANCH_DIRECT_JUMP	ACCESS:     463492  HIT:     404158  MISS:      59334
BTB BRANCH_INDIRECT	ACCESS:     174870  HIT:     123350  MISS:      51520
BTB BRANCH_CONDITIONAL	ACCESS:    2812699  HIT:    2571063  MISS:     241636
BTB BRANCH_DIRECT_CALL	ACCESS:     679008  HIT:     567416  MISS:     111592
BTB BRANCH_INDIRECT_CALL	ACCESS:     165073  HIT:     152920  MISS:      12153
BTB BRANCH_RETURN	ACCESS:     878544  HIT:     579264  MISS:     299280
BTB BRANCH_OTHER ACCESS:          0  HIT:          0  MISS:          0

L2C TOTAL     ACCESS:    3149626  HIT:    2175394  MISS:     974232  HIT %:    69.0683  MISS %:    30.9317   MPKI: 19.4846
L2C LOAD      ACCESS:    2393534  HIT:    1541921  MISS:     851613  HIT %:    64.4203  MISS %:    35.5797   MPKI: 17.0323
L2C DATA LOAD MPKI: 5.7543
L2C INSTRUCTION LOAD MPKI: 11.278
L2C RFO       ACCESS:      92125  HIT:      39948  MISS:      52177  HIT %:    43.3628  MISS %:    56.6372   MPKI: 1.04354
L2C PREFETCH  ACCESS:     278189  HIT:     269214  MISS:       8975  HIT %:    96.7738  MISS %:    3.22622   MPKI: 0.1795
L2C DATA PREFETCH MPKI: 0.1795
L2C INSTRUCTION PREFETCH MPKI: 0
L2C WRITEBACK ACCESS:     245087  HIT:     242444  MISS:       2643  HIT %:    98.9216  MISS %:    1.07839   MPKI: 0.05286
L2C LOAD TRANSLATION ACCESS:     140691  HIT:      81867  MISS:      58824  HIT %:    58.1892  MISS %:    41.8108   MPKI: 1.17648
L2C PREFETCH  REQUESTED:     828850  ISSUED:     828839  USEFUL:       8154  USELESS:        816
L2C USEFUL LOAD PREFETCHES:       8154 PREFETCH ISSUED TO LOWER LEVEL:     437301  ACCURACY: 1.86462
L2C TIMELY PREFETCHES:       8154 LATE PREFETCHES: 1131 DROPPED PREFETCHES: 0
L2C PREFETCHES SAME FILL-ORIGIN LEVEL: 10106 DIFFERENT FILL-ORIGIN LEVEL: 427195
L2C AVERAGE MISS LATENCY: 42.5317 cycles
L2C RQ	ACCESS:    2626365	FORWARD:          0	MERGED:          0	TO_CACHE:    2626350
L2C WQ	ACCESS:     245087	FORWARD:         16	MERGED:          0	TO_CACHE:     245087
L2C PQ	ACCESS:     828839	FORWARD:          0	MERGED:     112806	TO_CACHE:     716032

L2C Instructions Evicting Data 203662
L2C Translations Evicting Data 21881
L2C Data Evicting Data 124414
L2C Instructions Evicting Instructions 326066
L2C Translations Evicting Instructions 33851
L2C Data Evicting Instructions 203079
L2C Instructions Evicting Translations 34170
L2C Translations Evicting Translations 3092
L2C Data Evicting Translations 21374
L2C Dense regions hint from L2: 0
PSCL5 TOTAL     ACCESS:     111214  HIT:     111214  MISS:          0  HIT %:        100  MISS %:          0   MPKI: 0
PSCL5 LOAD TRANSLATION ACCESS:     111214  HIT:     111214  MISS:          0  HIT %:        100  MISS %:          0   MPKI: 0
PSCL5 PREFETCH  REQUESTED:          0  ISSUED:          0  USEFUL:          0  USELESS:          0
PSCL5 USEFUL LOAD PREFETCHES:          0 PREFETCH ISSUED TO LOWER LEVEL:          0  ACCURACY: -nan
PSCL5 TIMELY PREFETCHES:          0 LATE PREFETCHES: 0 DROPPED PREFETCHES: 0
PSCL5 PREFETCHES SAME FILL-ORIGIN LEVEL: 0 DIFFERENT FILL-ORIGIN LEVEL: 0

PSCL4 TOTAL     ACCESS:     103102  HIT:     102785  MISS:        317  HIT %:    99.6925  MISS %:   0.307463   MPKI: 0.00634
PSCL4 LOAD TRANSLATION ACCESS:     103102  HIT:     102785  MISS:        317  HIT %:    99.6925  MISS %:   0.307463   MPKI: 0.00634
PSCL4 PREFETCH  REQUESTED:          0  ISSUED:          0  USEFUL:          0  USELESS:          0
PSCL4 USEFUL LOAD PREFETCHES:          0 PREFETCH ISSUED TO LOWER LEVEL:          0  ACCURACY: -nan
PSCL4 TIMELY PREFETCHES:          0 LATE PREFETCHES: 0 DROPPED PREFETCHES: 0
PSCL4 PREFETCHES SAME FILL-ORIGIN LEVEL: 0 DIFFERENT FILL-ORIGIN LEVEL: 0

PSCL3 TOTAL     ACCESS:     110394  HIT:     109510  MISS:        884  HIT %:    99.1992  MISS %:   0.800768   MPKI: 0.01768
PSCL3 LOAD TRANSLATION ACCESS:     110394  HIT:     109510  MISS:        884  HIT %:    99.1992  MISS %:   0.800768   MPKI: 0.01768
PSCL3 PREFETCH  REQUESTED:          0  ISSUED:          0  USEFUL:          0  USELESS:          0
PSCL3 USEFUL LOAD PREFETCHES:          0 PREFETCH ISSUED TO LOWER LEVEL:          0  ACCURACY: -nan
PSCL3 TIMELY PREFETCHES:          0 LATE PREFETCHES: 0 DROPPED PREFETCHES: 0
PSCL3 PREFETCHES SAME FILL-ORIGIN LEVEL: 0 DIFFERENT FILL-ORIGIN LEVEL: 0

PSCL2 TOTAL     ACCESS:     111214  HIT:      82864  MISS:      28350  HIT %:    74.5086  MISS %:    25.4914   MPKI: 0.567
PSCL2 LOAD TRANSLATION ACCESS:     111214  HIT:      82864  MISS:      28350  HIT %:    74.5086  MISS %:    25.4914   MPKI: 0.567
PSCL2 PREFETCH  REQUESTED:          0  ISSUED:          0  USEFUL:          0  USELESS:          0
PSCL2 USEFUL LOAD PREFETCHES:          0 PREFETCH ISSUED TO LOWER LEVEL:          0  ACCURACY: -nan
PSCL2 TIMELY PREFETCHES:          0 LATE PREFETCHES: 0 DROPPED PREFETCHES: 0
PSCL2 PREFETCHES SAME FILL-ORIGIN LEVEL: 0 DIFFERENT FILL-ORIGIN LEVEL: 0

LLC TOTAL     ACCESS:    1533790  HIT:    1427858  MISS:     105932  HIT %:    93.0934  MISS %:    6.90655   MPKI: 2.11864
LLC LOAD      ACCESS:     850484  HIT:     815124  MISS:      35360  HIT %:    95.8424  MISS %:    4.15763   MPKI: 0.7072
LLC RFO       ACCESS:      52174  HIT:      41646  MISS:      10528  HIT %:    79.8214  MISS %:    20.1786   MPKI: 0.21056
LLC PREFETCH  ACCESS:     427912  HIT:     370605  MISS:      57307  HIT %:    86.6078  MISS %:    13.3922   MPKI: 1.14614
LLC WRITEBACK ACCESS:     144396  HIT:     144203  MISS:        193  HIT %:    99.8663  MISS %:    0.13366   MPKI: 0.00386
LLC LOAD TRANSLATION ACCESS:      58824  HIT:      56280  MISS:       2544  HIT %:    95.6752  MISS %:    4.32477   MPKI: 0.05088
LLC PREFETCH  REQUESTED:          0  ISSUED:          0  USEFUL:      28279  USELESS:      29654
LLC USEFUL LOAD PREFETCHES:      28279 PREFETCH ISSUED TO LOWER LEVEL:      58703  ACCURACY: 48.173
LLC TIMELY PREFETCHES:      28279 LATE PREFETCHES: 1396 DROPPED PREFETCHES: 0
LLC PREFETCHES SAME FILL-ORIGIN LEVEL: 58517 DIFFERENT FILL-ORIGIN LEVEL: 0
LLC AVERAGE MISS LATENCY: 222.399 cycles
LLC RQ	ACCESS:     961483	FORWARD:          0	MERGED:          0	TO_CACHE:     961482
LLC WQ	ACCESS:     144396	FORWARD:          1	MERGED:          0	TO_CACHE:     144396
LLC PQ	ACCESS:     437301	FORWARD:          0	MERGED:       4442	TO_CACHE:     432859

LLC Dense regions hint to LLC: 0

RAW hits: 772313
Loads Generated: 12231765
Loads sent to L1D: 11459454
Stores Generated: 5045874
Stores sent to L1D: 5045877
Major fault: 0 Minor fault: 5580
Allocated PAGES: 5580
 All Calls: 1289387
 Critical Calls: 1289387
------------------
Depth Distribution
------------------
depth 0: 0
depth 1: 663641
depth 2: 179689
depth 3: 66157
depth 4: 16815
depth 5: 314
depth 6: 111
depth 7: 83
depth 8: 49
depth 9: 19
depth 10: 7
depth 11: 3
depth 12: 3
depth 13: 0
depth 14: 0
depth 15: 0
depth 16: 0
depth 17: 0
depth 18: 0
depth 19: 0
depth 20: 0
depth 21: 0
depth 22: 0
depth 23: 0
depth 24: 0
depth 25: 0
depth 26: 0
depth 27: 0
depth 28: 0
depth 29: 0
Total: 926891
-----------------------------
-----------------------------
	Captured at Filter
-----------------------------
depth 0: 0
depth 1: 484770
depth 2: 434828
depth 3: 335275
depth 4: 5676
depth 5: 280
depth 6: 1
depth 7: 1
depth 8: 0
depth 9: 0
depth 10: 0
depth 11: 0
depth 12: 0
depth 13: 0
depth 14: 0
depth 15: 0
depth 16: 0
depth 17: 0
depth 18: 0
depth 19: 0
depth 20: 0
depth 21: 0
depth 22: 0
depth 23: 0
depth 24: 0
depth 25: 0
depth 26: 0
depth 27: 0
depth 28: 0
depth 29: 0
-----------------------------
-----------------------------
		Lost at Page
-----------------------------
depth 0: 0
depth 1: 44436
depth 2: 3500
depth 3: 2191
depth 4: 1147
depth 5: 24
depth 6: 11
depth 7: 8
depth 8: 6
depth 9: 1
depth 10: 0
depth 11: 0
depth 12: 0
depth 13: 0
depth 14: 0
depth 15: 0
depth 16: 0
depth 17: 0
depth 18: 0
depth 19: 0
depth 20: 0
depth 21: 0
depth 22: 0
depth 23: 0
depth 24: 0
depth 25: 0
depth 26: 0
depth 27: 0
depth 28: 0
depth 29: 0
-----------------------------
-----------------------------
	Lost due to PQ Size
-----------------------------
1833
-----------------------------
ST read accesses: 1016579
ST write accesses: 162870
PT read accesses: 17527930
PT write accesses: 1335784
FILTER read accesses: 4243134
FILTER write accesses: 1059063
GHR read accesses: 1588603
GHR write accesses: 41854
GHR counter read accesses: 15166098
GHR counter write accesses: 1258553
ST tag read accesses: 543087606
ST tag write accesses: 65816056

DRAM Statistics
 CHANNEL 0
 RQ ROW_BUFFER_HIT:      18712  ROW_BUFFER_MISS:      87026
 DBUS_CONGESTED:      72873
 WQ ROW_BUFFER_HIT:      11546  ROW_BUFFER_MISS:      41053  FULL:          0

 AVG_CONGESTED_CYCLE: 67
 All warmup complete: 2
Channel 0 Bank busy for read cycles: 0
Channel 0 Bank busy for write cycles: 0
Channel 0
Rank 0
0banks busy for read cycles: 91696049
0banks busy for write cycles: 25226
1banks busy for read cycles: 8373162
1banks busy for write cycles: 3776881
2banks busy for read cycles: 2312656
2banks busy for write cycles: 1113578
3banks busy for read cycles: 701478
3banks busy for write cycles: 494626
4banks busy for read cycles: 289403
4banks busy for write cycles: 324626
5banks busy for read cycles: 128337
5banks busy for write cycles: 254429
6banks busy for read cycles: 65668
6banks busy for write cycles: 232380
7banks busy for read cycles: 59638
7banks busy for write cycles: 286551
8banks busy for read cycles: 159223
8banks busy for write cycles: 601566

CPU 0 Branch Prediction Accuracy: 93.4981% MPKI: 12.6299 Average ROB Occupancy at Mispredict: 25.4619
Branch types
NOT_BRANCH: 40287182 80.5744%
BRANCH_DIRECT_JUMP: 463492 0.926984%
BRANCH_INDIRECT: 174870 0.34974%
BRANCH_CONDITIONAL: 7351543 14.7031%
BRANCH_DIRECT_CALL: 679008 1.35802%
BRANCH_INDIRECT_CALL: 165073 0.330146%
BRANCH_RETURN: 878544 1.75709%
BRANCH_OTHER: 0 0%

@sumon_overall_L1D         0         0         0         0         0         0
@Sumon_Early_by_class_L1D         0         0         0         0
@Sumon_Late_by_class_L1D         0         0         0         0

@Sumon_Early_by_cycle_L1D         0         0         0         0         0         0         0         0         0         0         0         0
@Sumon_Late_by_cycle_L1D         0         0         0         0         0         0         0         0         0         0         0         0
@Sumon_Early_stream_L1D         0         0         0         0         0         0         0         0         0         0         0         0
@Sumon_Early_CS_L1D         0         0         0         0         0         0         0         0         0         0         0         0
@Sumon_Early_CPLX_L1D         0         0         0         0         0         0         0         0         0         0         0         0
@Sumon_Late_stream_L1D         0         0         0         0         0         0         0         0         0         0         0         0
@Sumon_Late_CS_L1D         0         0         0         0         0         0         0         0         0         0         0         0
@Sumon_Late_CPLX_L1D         0         0         0         0         0         0         0         0         0         0         0         0
@sumon_overall_L2C      8154      1131       816      8975    828839    828850
@Sumon_Early_by_class_L2C         0         0         0         0
@Sumon_Late_by_class_L2C         0         0         0         0

@Sumon_Early_by_cycle_L2C       889      1697      1360      1013       530      1570       735       221        47         6         4        82
@Sumon_Late_by_cycle_L2C      1026        76        10         1         2        16         0         0         0         0         0         0
@Sumon_Early_stream_L2C         0         0         0         0         0         0         0         0         0         0         0         0
@Sumon_Early_CS_L2C         0         0         0         0         0         0         0         0         0         0         0         0
@Sumon_Early_CPLX_L2C         0         0         0         0         0         0         0         0         0         0         0         0
@Sumon_Late_stream_L2C         0         0         0         0         0         0         0         0         0         0         0         0
@Sumon_Late_CS_L2C         0         0         0         0         0         0         0         0         0         0         0         0
@Sumon_Late_CPLX_L2C         0         0         0         0         0         0         0         0         0         0         0         0
DRAM PAGES: 1048576
Allocated PAGES: 5580
