Initialize SIGNATURE TABLE
ST_SET: 1
ST_WAY: 256
ST_TAG_BIT: 16
ST_TAG_MASK: ffff

Initialize PATTERN TABLE
PT_SET: 512
PT_WAY: 4
SIG_DELTA_BIT: 7
C_SIG_BIT: 4
C_DELTA_BIT: 4

Initialize PREFETCH FILTER
FILTER_SET: 1024

*** ChampSim Multicore Out-of-Order Simulator ***

Warmup Instructions: 10000000
Simulation Instructions: 50000000
Number of CPUs: 1
LLC sets: 2048
LLC ways: 16
Off-chip DRAM Size: 4096 MB Channels: 1 Width: 64-bit Data Rate: 400 MT/s
CPU 0 runs traces/clientserver/server_013.champsimtrace.xz
.xz
CPU 0 Bimodal branch predictor
BTB has LRU replacement policy
ITLB has LRU replacement policy
DTLB has LRU replacement policy
STLB has LRU replacement policy
L1I has LRU replacement policy
L1D has LRU replacement policy
ST_WAYS: 256
PT_SETS: 512
L2C has LRU replacement policy
LLC has LRU replacement policy
Heartbeat CPU 0 instructions: 10000000 cycles: 2771741 heartbeat IPC: 3.60784 cumulative IPC: 3.60784 (Simulation time: 0 hr 13 min 9 sec) 

Warmup complete CPU 0 instructions: 10000004 cycles: 2771742 (Simulation time: 0 hr 13 min 52 sec) 

Heartbeat CPU 0 instructions: 20000001 cycles: 23993716 heartbeat IPC: 0.47121 cumulative IPC: 0.47121 (Simulation time: 2 hr 36 min 52 sec) 
Heartbeat CPU 0 instructions: 30000002 cycles: 45008876 heartbeat IPC: 0.475847 cumulative IPC: 0.473517 (Simulation time: 2 hr 39 min 6 sec) 
Heartbeat CPU 0 instructions: 40000002 cycles: 66026358 heartbeat IPC: 0.475794 cumulative IPC: 0.474274 (Simulation time: 2 hr 42 min 13 sec) 
Heartbeat CPU 0 instructions: 50000000 cycles: 87640679 heartbeat IPC: 0.462656 cumulative IPC: 0.471315 (Simulation time: 2 hr 45 min 43 sec) 
Heartbeat CPU 0 instructions: 60000000 cycles: 108916999 heartbeat IPC: 0.470006 cumulative IPC: 0.471053 (Simulation time: 2 hr 46 min 40 sec) 
Finished CPU 0 instructions: 50000001 cycles: 106145273 cumulative IPC: 0.471053 (Simulation time: 2 hr 46 min 40 sec) 

ChampSim completed all CPUs

Region of Interest Statistics

CPU 0 cumulative IPC: 0.471053 instructions: 50000001 cycles: 106145273
ITLB TOTAL     ACCESS:    7871304  HIT:    7670821  MISS:     200483  HIT %:     97.453  MISS %:    2.54701   MPKI: 4.00966
ITLB LOAD TRANSLATION ACCESS:    7871304  HIT:    7670821  MISS:     200483  HIT %:     97.453  MISS %:    2.54701   MPKI: 4.00966
ITLB PREFETCH  REQUESTED:          0  ISSUED:          0  USEFUL:          0  USELESS:          0
ITLB USEFUL LOAD PREFETCHES:          0 PREFETCH ISSUED TO LOWER LEVEL:          0  ACCURACY: -nan
ITLB TIMELY PREFETCHES:          0 LATE PREFETCHES: 0 DROPPED PREFETCHES: 0
ITLB PREFETCHES SAME FILL-ORIGIN LEVEL: 0 DIFFERENT FILL-ORIGIN LEVEL: 0
ITLB AVERAGE MISS LATENCY: 17.9021 cycles
ITLB RQ	ACCESS:    9667931	FORWARD:          0	MERGED:    1744137	TO_CACHE:    7923794

DTLB TOTAL     ACCESS:   10040902  HIT:    9379961  MISS:     660941  HIT %:    93.4175  MISS %:    6.58249   MPKI: 13.2188
DTLB LOAD TRANSLATION ACCESS:   10040902  HIT:    9379961  MISS:     660941  HIT %:    93.4175  MISS %:    6.58249   MPKI: 13.2188
DTLB PREFETCH  REQUESTED:          0  ISSUED:          0  USEFUL:          0  USELESS:          0
DTLB USEFUL LOAD PREFETCHES:          0 PREFETCH ISSUED TO LOWER LEVEL:          0  ACCURACY: -nan
DTLB TIMELY PREFETCHES:          0 LATE PREFETCHES: 0 DROPPED PREFETCHES: 0
DTLB PREFETCHES SAME FILL-ORIGIN LEVEL: 0 DIFFERENT FILL-ORIGIN LEVEL: 0
DTLB AVERAGE MISS LATENCY: 15.3116 cycles
DTLB RQ	ACCESS:   12394448	FORWARD:          0	MERGED:    2315867	TO_CACHE:   10078581

STLB TOTAL     ACCESS:     861424  HIT:     740634  MISS:     120790  HIT %:    85.9779  MISS %:    14.0221   MPKI: 2.4158
STLB LOAD TRANSLATION ACCESS:     861424  HIT:     740634  MISS:     120790  HIT %:    85.9779  MISS %:    14.0221   MPKI: 2.4158
STLB PREFETCH  REQUESTED:          0  ISSUED:          0  USEFUL:          0  USELESS:          0
STLB USEFUL LOAD PREFETCHES:          0 PREFETCH ISSUED TO LOWER LEVEL:          0  ACCURACY: -nan
STLB TIMELY PREFETCHES:          0 LATE PREFETCHES: 0 DROPPED PREFETCHES: 0
STLB PREFETCHES SAME FILL-ORIGIN LEVEL: 0 DIFFERENT FILL-ORIGIN LEVEL: 0
STLB AVERAGE MISS LATENCY: 49.1734 cycles
STLB RQ	ACCESS:     861424	FORWARD:          0	MERGED:          0	TO_CACHE:     861424

STLB Hit, L1D data hit: 0
STLB Hit, L2C data hit: 0
STLB Hit, LLC data hit: 0
STLB Hit, LLC data miss: 0
STLB STLB hints to L2: 0
L1D TOTAL     ACCESS:   12252885  HIT:   11600980  MISS:     651905  HIT %:    94.6796  MISS %:    5.32042   MPKI: 13.0381
L1D LOAD      ACCESS:    7259338  HIT:    6698552  MISS:     560786  HIT %:     92.275  MISS %:    7.72503   MPKI: 11.2157
L1D RFO       ACCESS:    4993547  HIT:    4902428  MISS:      91119  HIT %:    98.1753  MISS %:    1.82474   MPKI: 1.82238
L1D PREFETCH  REQUESTED:          0  ISSUED:          0  USEFUL:          0  USELESS:          0
L1D USEFUL LOAD PREFETCHES:          0 PREFETCH ISSUED TO LOWER LEVEL:          0  ACCURACY: -nan
L1D TIMELY PREFETCHES:          0 LATE PREFETCHES: 0 DROPPED PREFETCHES: 0
L1D PREFETCHES SAME FILL-ORIGIN LEVEL: 0 DIFFERENT FILL-ORIGIN LEVEL: 0
L1D AVERAGE MISS LATENCY: 49.4529 cycles
L1D RQ	ACCESS:   10677132	FORWARD:          0	MERGED:    3301627	TO_CACHE:    7291323
L1D WQ	ACCESS:    5192932	FORWARD:      84182	MERGED:      89807	TO_CACHE:    5103125

L1D UNIQUE REGIONS ACCESSED: 0
L1D REGIONS CONFLICTS: 0
L1D Cross Page Prefetch Requests: 0
L1D Same Page Prefetch Requests: 0
L1D ROI Sum of L1D PQ occupancy: 0
L1D PREFETCHES PUSHED FROM L2C: 0
L1I TOTAL     ACCESS:    9222730  HIT:    7870255  MISS:    1352475  HIT %:    85.3354  MISS %:    14.6646   MPKI: 27.0495
L1I LOAD      ACCESS:    9222730  HIT:    7870255  MISS:    1352475  HIT %:    85.3354  MISS %:    14.6646   MPKI: 27.0495
L1I PREFETCH  REQUESTED:          0  ISSUED:          0  USEFUL:          0  USELESS:          0
L1I USEFUL LOAD PREFETCHES:          0 PREFETCH ISSUED TO LOWER LEVEL:          0  ACCURACY: -nan
L1I TIMELY PREFETCHES:          0 LATE PREFETCHES: 0 DROPPED PREFETCHES: 0
L1I PREFETCHES SAME FILL-ORIGIN LEVEL: 0 DIFFERENT FILL-ORIGIN LEVEL: 0
L1I AVERAGE MISS LATENCY: 30.4106 cycles
L1I RQ	ACCESS:   13834515	FORWARD:          0	MERGED:    4166584	TO_CACHE:    9667931

BTB TOTAL     ACCESS:    4435084  HIT:    3605586  MISS:     829498  HIT %:    81.2969  MISS %:    18.7031   MPKI: 16.59
BTB BRANCH_DIRECT_JUMP	ACCESS:     460299  HIT:     393852  MISS:      66447
BTB BRANCH_INDIRECT	ACCESS:     145929  HIT:     112911  MISS:      33018
BTB BRANCH_CONDITIONAL	ACCESS:    2139896  HIT:    1862301  MISS:     277595
BTB BRANCH_DIRECT_CALL	ACCESS:     662481  HIT:     536156  MISS:     126325
BTB BRANCH_INDIRECT_CALL	ACCESS:     164978  HIT:     152164  MISS:      12814
BTB BRANCH_RETURN	ACCESS:     861501  HIT:     548202  MISS:     313299
BTB BRANCH_OTHER ACCESS:          0  HIT:          0  MISS:          0

L2C TOTAL     ACCESS:    2512466  HIT:    1393199  MISS:    1119267  HIT %:    55.4515  MISS %:    44.5485   MPKI: 22.3853
L2C LOAD      ACCESS:    1913241  HIT:     931486  MISS:     981755  HIT %:    48.6863  MISS %:    51.3137   MPKI: 19.6351
L2C DATA LOAD MPKI: 6.49162
L2C INSTRUCTION LOAD MPKI: 13.1435
L2C RFO       ACCESS:      91094  HIT:      34816  MISS:      56278  HIT %:    38.2199  MISS %:    61.7801   MPKI: 1.12556
L2C PREFETCH  ACCESS:      95686  HIT:      84607  MISS:      11079  HIT %:    88.4215  MISS %:    11.5785   MPKI: 0.22158
L2C DATA PREFETCH MPKI: 0.22158
L2C INSTRUCTION PREFETCH MPKI: 0
L2C WRITEBACK ACCESS:     259393  HIT:     256571  MISS:       2822  HIT %:    98.9121  MISS %:    1.08792   MPKI: 0.05644
L2C LOAD TRANSLATION ACCESS:     153052  HIT:      85719  MISS:      67333  HIT %:    56.0065  MISS %:    43.9935   MPKI: 1.34666
L2C PREFETCH  REQUESTED:     528635  ISSUED:     528632  USEFUL:      10147  USELESS:        935
L2C USEFUL LOAD PREFETCHES:      10147 PREFETCH ISSUED TO LOWER LEVEL:     425514  ACCURACY: 2.38465
L2C TIMELY PREFETCHES:      10147 LATE PREFETCHES: 1339 DROPPED PREFETCHES: 0
L2C PREFETCHES SAME FILL-ORIGIN LEVEL: 12418 DIFFERENT FILL-ORIGIN LEVEL: 413096
L2C AVERAGE MISS LATENCY: 42.371 cycles
L2C RQ	ACCESS:    2157432	FORWARD:          0	MERGED:          0	TO_CACHE:    2157387
L2C WQ	ACCESS:     259393	FORWARD:         45	MERGED:          0	TO_CACHE:     259393
L2C PQ	ACCESS:     528632	FORWARD:          0	MERGED:       6822	TO_CACHE:     521810

L2C Instructions Evicting Data 230315
L2C Translations Evicting Data 23397
L2C Data Evicting Data 140213
L2C Instructions Evicting Instructions 386528
L2C Translations Evicting Instructions 40209
L2C Data Evicting Instructions 228601
L2C Instructions Evicting Translations 40331
L2C Translations Evicting Translations 3727
L2C Data Evicting Translations 23124
L2C Dense regions hint from L2: 0
PSCL5 TOTAL     ACCESS:     120790  HIT:     120790  MISS:          0  HIT %:        100  MISS %:          0   MPKI: 0
PSCL5 LOAD TRANSLATION ACCESS:     120790  HIT:     120790  MISS:          0  HIT %:        100  MISS %:          0   MPKI: 0
PSCL5 PREFETCH  REQUESTED:          0  ISSUED:          0  USEFUL:          0  USELESS:          0
PSCL5 USEFUL LOAD PREFETCHES:          0 PREFETCH ISSUED TO LOWER LEVEL:          0  ACCURACY: -nan
PSCL5 TIMELY PREFETCHES:          0 LATE PREFETCHES: 0 DROPPED PREFETCHES: 0
PSCL5 PREFETCHES SAME FILL-ORIGIN LEVEL: 0 DIFFERENT FILL-ORIGIN LEVEL: 0

PSCL4 TOTAL     ACCESS:     113345  HIT:     113012  MISS:        333  HIT %:    99.7062  MISS %:   0.293793   MPKI: 0.00666
PSCL4 LOAD TRANSLATION ACCESS:     113345  HIT:     113012  MISS:        333  HIT %:    99.7062  MISS %:   0.293793   MPKI: 0.00666
PSCL4 PREFETCH  REQUESTED:          0  ISSUED:          0  USEFUL:          0  USELESS:          0
PSCL4 USEFUL LOAD PREFETCHES:          0 PREFETCH ISSUED TO LOWER LEVEL:          0  ACCURACY: -nan
PSCL4 TIMELY PREFETCHES:          0 LATE PREFETCHES: 0 DROPPED PREFETCHES: 0
PSCL4 PREFETCHES SAME FILL-ORIGIN LEVEL: 0 DIFFERENT FILL-ORIGIN LEVEL: 0

PSCL3 TOTAL     ACCESS:     119922  HIT:     118905  MISS:       1017  HIT %:    99.1519  MISS %:   0.848051   MPKI: 0.02034
PSCL3 LOAD TRANSLATION ACCESS:     119922  HIT:     118905  MISS:       1017  HIT %:    99.1519  MISS %:   0.848051   MPKI: 0.02034
PSCL3 PREFETCH  REQUESTED:          0  ISSUED:          0  USEFUL:          0  USELESS:          0
PSCL3 USEFUL LOAD PREFETCHES:          0 PREFETCH ISSUED TO LOWER LEVEL:          0  ACCURACY: -nan
PSCL3 TIMELY PREFETCHES:          0 LATE PREFETCHES: 0 DROPPED PREFETCHES: 0
PSCL3 PREFETCHES SAME FILL-ORIGIN LEVEL: 0 DIFFERENT FILL-ORIGIN LEVEL: 0

PSCL2 TOTAL     ACCESS:     120790  HIT:      89778  MISS:      31012  HIT %:    74.3257  MISS %:    25.6743   MPKI: 0.62024
PSCL2 LOAD TRANSLATION ACCESS:     120790  HIT:      89778  MISS:      31012  HIT %:    74.3257  MISS %:    25.6743   MPKI: 0.62024
PSCL2 PREFETCH  REQUESTED:          0  ISSUED:          0  USEFUL:          0  USELESS:          0
PSCL2 USEFUL LOAD PREFETCHES:          0 PREFETCH ISSUED TO LOWER LEVEL:          0  ACCURACY: -nan
PSCL2 TIMELY PREFETCHES:          0 LATE PREFETCHES: 0 DROPPED PREFETCHES: 0
PSCL2 PREFETCHES SAME FILL-ORIGIN LEVEL: 0 DIFFERENT FILL-ORIGIN LEVEL: 0

LLC TOTAL     ACCESS:    1678115  HIT:    1565695  MISS:     112420  HIT %:    93.3008  MISS %:    6.69918   MPKI: 2.2484
LLC LOAD      ACCESS:     980416  HIT:     945758  MISS:      34658  HIT %:     96.465  MISS %:    3.53503   MPKI: 0.69316
LLC RFO       ACCESS:      56277  HIT:      44565  MISS:      11712  HIT %:    79.1887  MISS %:    20.8113   MPKI: 0.23424
LLC PREFETCH  ACCESS:     413771  HIT:     350502  MISS:      63269  HIT %:    84.7092  MISS %:    15.2908   MPKI: 1.26538
LLC WRITEBACK ACCESS:     160318  HIT:     160090  MISS:        228  HIT %:    99.8578  MISS %:   0.142217   MPKI: 0.00456
LLC LOAD TRANSLATION ACCESS:      67333  HIT:      64780  MISS:       2553  HIT %:    96.2084  MISS %:     3.7916   MPKI: 0.05106
LLC PREFETCH  REQUESTED:          0  ISSUED:          0  USEFUL:      32442  USELESS:      30570
LLC USEFUL LOAD PREFETCHES:      32442 PREFETCH ISSUED TO LOWER LEVEL:      64904  ACCURACY: 49.9846
LLC TIMELY PREFETCHES:      32442 LATE PREFETCHES: 1635 DROPPED PREFETCHES: 0
LLC PREFETCHES SAME FILL-ORIGIN LEVEL: 64683 DIFFERENT FILL-ORIGIN LEVEL: 0
LLC AVERAGE MISS LATENCY: 231.914 cycles
LLC RQ	ACCESS:    1104027	FORWARD:          0	MERGED:          0	TO_CACHE:    1104026
LLC WQ	ACCESS:     160318	FORWARD:          1	MERGED:          0	TO_CACHE:     160318
LLC PQ	ACCESS:     425514	FORWARD:          0	MERGED:       6230	TO_CACHE:     419284

LLC Dense regions hint to LLC: 0

RAW hits: 781480
Loads Generated: 11458610
Loads sent to L1D: 10677132
Stores Generated: 5192923
Stores sent to L1D: 5192932
Major fault: 0 Minor fault: 5304
Allocated PAGES: 5304
 All Calls: 672186
 Critical Calls: 672186
------------------
Depth Distribution
------------------
depth 0: 0
depth 1: 484545
depth 2: 71125
depth 3: 43376
depth 4: 24121
depth 5: 3803
depth 6: 65
depth 7: 10
depth 8: 6
depth 9: 5
depth 10: 5
depth 11: 2
depth 12: 2
depth 13: 0
depth 14: 0
depth 15: 0
depth 16: 0
depth 17: 0
depth 18: 0
depth 19: 0
depth 20: 0
depth 21: 0
depth 22: 0
depth 23: 0
depth 24: 0
depth 25: 0
depth 26: 0
depth 27: 0
depth 28: 0
depth 29: 0
Total: 627065
-----------------------------
-----------------------------
	Captured at Filter
-----------------------------
depth 0: 0
depth 1: 1476
depth 2: 196
depth 3: 118
depth 4: 81
depth 5: 2
depth 6: 0
depth 7: 1
depth 8: 1
depth 9: 1
depth 10: 0
depth 11: 0
depth 12: 0
depth 13: 0
depth 14: 0
depth 15: 0
depth 16: 0
depth 17: 0
depth 18: 0
depth 19: 0
depth 20: 0
depth 21: 0
depth 22: 0
depth 23: 0
depth 24: 0
depth 25: 0
depth 26: 0
depth 27: 0
depth 28: 0
depth 29: 0
-----------------------------
-----------------------------
		Lost at Page
-----------------------------
depth 0: 0
depth 1: 32518
depth 2: 2174
depth 3: 2051
depth 4: 1598
depth 5: 298
depth 6: 8
depth 7: 5
depth 8: 4
depth 9: 1
depth 10: 1
depth 11: 0
depth 12: 0
depth 13: 0
depth 14: 0
depth 15: 0
depth 16: 0
depth 17: 0
depth 18: 0
depth 19: 0
depth 20: 0
depth 21: 0
depth 22: 0
depth 23: 0
depth 24: 0
depth 25: 0
depth 26: 0
depth 27: 0
depth 28: 0
depth 29: 0
-----------------------------
-----------------------------
	Lost due to PQ Size
-----------------------------
2549
-----------------------------
ST read accesses: 380559
ST write accesses: 180207
PT read accesses: 6193849
PT write accesses: 444983
FILTER read accesses: 2209938
FILTER write accesses: 1153201
GHR read accesses: 1650538
GHR write accesses: 29382
GHR counter read accesses: 5514472
GHR counter write accesses: 587323
ST tag read accesses: 307703811
ST tag write accesses: 55931583

DRAM Statistics
 CHANNEL 0
 RQ ROW_BUFFER_HIT:      19299  ROW_BUFFER_MISS:      92892
 DBUS_CONGESTED:      79265
 WQ ROW_BUFFER_HIT:      12142  ROW_BUFFER_MISS:      46482  FULL:          0

 AVG_CONGESTED_CYCLE: 67
 All warmup complete: 2
Channel 0 Bank busy for read cycles: 0
Channel 0 Bank busy for write cycles: 0
Channel 0
Rank 0
0banks busy for read cycles: 85487360
0banks busy for write cycles: 28124
1banks busy for read cycles: 8786535
1banks busy for write cycles: 4169830
2banks busy for read cycles: 2504617
2banks busy for write cycles: 1227869
3banks busy for read cycles: 786450
3banks busy for write cycles: 562051
4banks busy for read cycles: 309541
4banks busy for write cycles: 376994
5banks busy for read cycles: 123282
5banks busy for write cycles: 288430
6banks busy for read cycles: 54040
6banks busy for write cycles: 266460
7banks busy for read cycles: 45522
7banks busy for write cycles: 343509
8banks busy for read cycles: 216021
8banks busy for write cycles: 568639

CPU 0 Branch Prediction Accuracy: 92.9857% MPKI: 13.0204 Average ROB Occupancy at Mispredict: 22.0064
Branch types
NOT_BRANCH: 40718329 81.4367%
BRANCH_DIRECT_JUMP: 460299 0.920598%
BRANCH_INDIRECT: 145929 0.291858%
BRANCH_CONDITIONAL: 6986158 13.9723%
BRANCH_DIRECT_CALL: 662481 1.32496%
BRANCH_INDIRECT_CALL: 164978 0.329956%
BRANCH_RETURN: 861501 1.723%
BRANCH_OTHER: 0 0%

@sumon_overall_L1D         0         0         0         0         0         0
@Sumon_Early_by_class_L1D         0         0         0         0
@Sumon_Late_by_class_L1D         0         0         0         0

@Sumon_Early_by_cycle_L1D         0         0         0         0         0         0         0         0         0         0         0         0
@Sumon_Late_by_cycle_L1D         0         0         0         0         0         0         0         0         0         0         0         0
@Sumon_Early_stream_L1D         0         0         0         0         0         0         0         0         0         0         0         0
@Sumon_Early_CS_L1D         0         0         0         0         0         0         0         0         0         0         0         0
@Sumon_Early_CPLX_L1D         0         0         0         0         0         0         0         0         0         0         0         0
@Sumon_Late_stream_L1D         0         0         0         0         0         0         0         0         0         0         0         0
@Sumon_Late_CS_L1D         0         0         0         0         0         0         0         0         0         0         0         0
@Sumon_Late_CPLX_L1D         0         0         0         0         0         0         0         0         0         0         0         0
@sumon_overall_L2C     10147      1339       935     11079    528632    528635
@Sumon_Early_by_class_L2C         0         0         0         0
@Sumon_Late_by_class_L2C         0         0         0         0

@Sumon_Early_by_cycle_L2C      1249      2167      1553      1290       712      1880       904       247        42        34         0        69
@Sumon_Late_by_cycle_L2C      1300        32         7         0         0         0         0         0         0         0         0         0
@Sumon_Early_stream_L2C         0         0         0         0         0         0         0         0         0         0         0         0
@Sumon_Early_CS_L2C         0         0         0         0         0         0         0         0         0         0         0         0
@Sumon_Early_CPLX_L2C         0         0         0         0         0         0         0         0         0         0         0         0
@Sumon_Late_stream_L2C         0         0         0         0         0         0         0         0         0         0         0         0
@Sumon_Late_CS_L2C         0         0         0         0         0         0         0         0         0         0         0         0
@Sumon_Late_CPLX_L2C         0         0         0         0         0         0         0         0         0         0         0         0
DRAM PAGES: 1048576
Allocated PAGES: 5304
