Initialize SIGNATURE TABLE
ST_SET: 1
ST_WAY: 256
ST_TAG_BIT: 16
ST_TAG_MASK: ffff

Initialize PATTERN TABLE
PT_SET: 512
PT_WAY: 4
SIG_DELTA_BIT: 7
C_SIG_BIT: 4
C_DELTA_BIT: 4

Initialize PREFETCH FILTER
FILTER_SET: 1024

*** ChampSim Multicore Out-of-Order Simulator ***

Warmup Instructions: 10000000
Simulation Instructions: 50000000
Number of CPUs: 1
LLC sets: 2048
LLC ways: 16
Off-chip DRAM Size: 4096 MB Channels: 1 Width: 64-bit Data Rate: 400 MT/s
CPU 0 runs traces/clientserver/server_034.champsimtrace.xz
.xz
CPU 0 Bimodal branch predictor
BTB has LRU replacement policy
ITLB has LRU replacement policy
DTLB has LRU replacement policy
STLB has LRU replacement policy
L1I has LRU replacement policy
L1D has LRU replacement policy
ST_WAYS: 256
PT_SETS: 512
L2C has LRU replacement policy
LLC has LRU replacement policy
Heartbeat CPU 0 instructions: 10000000 cycles: 2760031 heartbeat IPC: 3.62315 cumulative IPC: 3.62315 (Simulation time: 3 hr 9 min 18 sec) 

Warmup complete CPU 0 instructions: 10000004 cycles: 2760032 (Simulation time: 3 hr 9 min 21 sec) 

Heartbeat CPU 0 instructions: 20000002 cycles: 23050518 heartbeat IPC: 0.492842 cumulative IPC: 0.492842 (Simulation time: 3 hr 23 min 43 sec) 
Heartbeat CPU 0 instructions: 30000001 cycles: 43184226 heartbeat IPC: 0.496679 cumulative IPC: 0.494753 (Simulation time: 3 hr 41 min 8 sec) 
Heartbeat CPU 0 instructions: 40000000 cycles: 63243439 heartbeat IPC: 0.498524 cumulative IPC: 0.496004 (Simulation time: 3 hr 57 min 25 sec) 
Heartbeat CPU 0 instructions: 50000001 cycles: 83224209 heartbeat IPC: 0.500481 cumulative IPC: 0.497116 (Simulation time: 4 hr 12 min 22 sec) 
Heartbeat CPU 0 instructions: 60000002 cycles: 103123056 heartbeat IPC: 0.502542 cumulative IPC: 0.498191 (Simulation time: 4 hr 24 min 46 sec) 
Finished CPU 0 instructions: 50000003 cycles: 100363037 cumulative IPC: 0.498191 (Simulation time: 4 hr 24 min 46 sec) 

ChampSim completed all CPUs

Region of Interest Statistics

CPU 0 cumulative IPC: 0.498191 instructions: 50000003 cycles: 100363037
ITLB TOTAL     ACCESS:    8927682  HIT:    8422833  MISS:     504849  HIT %:    94.3451  MISS %:    5.65487   MPKI: 10.097
ITLB LOAD TRANSLATION ACCESS:    8927682  HIT:    8422833  MISS:     504849  HIT %:    94.3451  MISS %:    5.65487   MPKI: 10.097
ITLB PREFETCH  REQUESTED:          0  ISSUED:          0  USEFUL:          0  USELESS:          0
ITLB USEFUL LOAD PREFETCHES:          0 PREFETCH ISSUED TO LOWER LEVEL:          0  ACCURACY: -nan
ITLB TIMELY PREFETCHES:          0 LATE PREFETCHES: 0 DROPPED PREFETCHES: 0
ITLB PREFETCHES SAME FILL-ORIGIN LEVEL: 0 DIFFERENT FILL-ORIGIN LEVEL: 0
ITLB AVERAGE MISS LATENCY: 9.04495 cycles
ITLB RQ	ACCESS:   10605075	FORWARD:          0	MERGED:    1552956	TO_CACHE:    9052119

DTLB TOTAL     ACCESS:   10793300  HIT:   10376066  MISS:     417234  HIT %:    96.1343  MISS %:    3.86568   MPKI: 8.34468
DTLB LOAD TRANSLATION ACCESS:   10793300  HIT:   10376066  MISS:     417234  HIT %:    96.1343  MISS %:    3.86568   MPKI: 8.34468
DTLB PREFETCH  REQUESTED:          0  ISSUED:          0  USEFUL:          0  USELESS:          0
DTLB USEFUL LOAD PREFETCHES:          0 PREFETCH ISSUED TO LOWER LEVEL:          0  ACCURACY: -nan
DTLB TIMELY PREFETCHES:          0 LATE PREFETCHES: 0 DROPPED PREFETCHES: 0
DTLB PREFETCHES SAME FILL-ORIGIN LEVEL: 0 DIFFERENT FILL-ORIGIN LEVEL: 0
DTLB AVERAGE MISS LATENCY: 9.22369 cycles
DTLB RQ	ACCESS:   14323539	FORWARD:          0	MERGED:    3518077	TO_CACHE:   10805462

STLB TOTAL     ACCESS:     922082  HIT:     920906  MISS:       1176  HIT %:    99.8725  MISS %:   0.127537   MPKI: 0.02352
STLB LOAD TRANSLATION ACCESS:     922082  HIT:     920906  MISS:       1176  HIT %:    99.8725  MISS %:   0.127537   MPKI: 0.02352
STLB PREFETCH  REQUESTED:          0  ISSUED:          0  USEFUL:          0  USELESS:          0
STLB USEFUL LOAD PREFETCHES:          0 PREFETCH ISSUED TO LOWER LEVEL:          0  ACCURACY: -nan
STLB TIMELY PREFETCHES:          0 LATE PREFETCHES: 0 DROPPED PREFETCHES: 0
STLB PREFETCHES SAME FILL-ORIGIN LEVEL: 0 DIFFERENT FILL-ORIGIN LEVEL: 0
STLB AVERAGE MISS LATENCY: 86.4056 cycles
STLB RQ	ACCESS:     922082	FORWARD:          0	MERGED:          0	TO_CACHE:     922082

STLB Hit, L1D data hit: 0
STLB Hit, L2C data hit: 0
STLB Hit, LLC data hit: 0
STLB Hit, LLC data miss: 0
STLB STLB hints to L2: 0
L1D TOTAL     ACCESS:   14224005  HIT:   13613897  MISS:     610108  HIT %:    95.7107  MISS %:    4.28928   MPKI: 12.2022
L1D LOAD      ACCESS:    7875433  HIT:    7353934  MISS:     521499  HIT %:    93.3782  MISS %:    6.62185   MPKI: 10.43
L1D RFO       ACCESS:    6348572  HIT:    6259963  MISS:      88609  HIT %:    98.6043  MISS %:    1.39573   MPKI: 1.77218
L1D PREFETCH  REQUESTED:          0  ISSUED:          0  USEFUL:          0  USELESS:          0
L1D USEFUL LOAD PREFETCHES:          0 PREFETCH ISSUED TO LOWER LEVEL:          0  ACCURACY: -nan
L1D TIMELY PREFETCHES:          0 LATE PREFETCHES: 0 DROPPED PREFETCHES: 0
L1D PREFETCHES SAME FILL-ORIGIN LEVEL: 0 DIFFERENT FILL-ORIGIN LEVEL: 0
L1D AVERAGE MISS LATENCY: 19.5906 cycles
L1D RQ	ACCESS:   11182776	FORWARD:          0	MERGED:    3139100	TO_CACHE:    7891318
L1D WQ	ACCESS:    6515360	FORWARD:     152358	MERGED:      83139	TO_CACHE:    6432221

L1D UNIQUE REGIONS ACCESSED: 0
L1D REGIONS CONFLICTS: 0
L1D Cross Page Prefetch Requests: 0
L1D Same Page Prefetch Requests: 0
L1D ROI Sum of L1D PQ occupancy: 0
L1D PREFETCHES PUSHED FROM L2C: 0
L1I TOTAL     ACCESS:    9869076  HIT:    6562814  MISS:    3306262  HIT %:    66.4988  MISS %:    33.5012   MPKI: 66.1252
L1I LOAD      ACCESS:    9869076  HIT:    6562814  MISS:    3306262  HIT %:    66.4988  MISS %:    33.5012   MPKI: 66.1252
L1I PREFETCH  REQUESTED:          0  ISSUED:          0  USEFUL:          0  USELESS:          0
L1I USEFUL LOAD PREFETCHES:          0 PREFETCH ISSUED TO LOWER LEVEL:          0  ACCURACY: -nan
L1I TIMELY PREFETCHES:          0 LATE PREFETCHES: 0 DROPPED PREFETCHES: 0
L1I PREFETCHES SAME FILL-ORIGIN LEVEL: 0 DIFFERENT FILL-ORIGIN LEVEL: 0
L1I AVERAGE MISS LATENCY: 14.3265 cycles
L1I RQ	ACCESS:   14722294	FORWARD:          0	MERGED:    4117219	TO_CACHE:   10605075

BTB TOTAL     ACCESS:    6353114  HIT:    5342181  MISS:    1010933  HIT %:    84.0876  MISS %:    15.9124   MPKI: 20.2187
BTB BRANCH_DIRECT_JUMP	ACCESS:     767599  HIT:     688313  MISS:      79286
BTB BRANCH_INDIRECT	ACCESS:     108584  HIT:      73824  MISS:      34760
BTB BRANCH_CONDITIONAL	ACCESS:    2951217  HIT:    2732156  MISS:     219061
BTB BRANCH_DIRECT_CALL	ACCESS:    1050916  HIT:     928179  MISS:     122737
BTB BRANCH_INDIRECT_CALL	ACCESS:     211941  HIT:     142942  MISS:      68999
BTB BRANCH_RETURN	ACCESS:    1262857  HIT:     776767  MISS:     486090
BTB BRANCH_OTHER ACCESS:          0  HIT:          0  MISS:          0

L2C TOTAL     ACCESS:    4407017  HIT:    4328271  MISS:      78746  HIT %:    98.2132  MISS %:    1.78683   MPKI: 1.57492
L2C LOAD      ACCESS:    3827748  HIT:    3762686  MISS:      65062  HIT %:    98.3003  MISS %:    1.69975   MPKI: 1.30124
L2C DATA LOAD MPKI: 0.81064
L2C INSTRUCTION LOAD MPKI: 0.4906
L2C RFO       ACCESS:      88609  HIT:      77838  MISS:      10771  HIT %:    87.8443  MISS %:    12.1557   MPKI: 0.21542
L2C PREFETCH  ACCESS:     257353  HIT:     256975  MISS:        378  HIT %:    99.8531  MISS %:    0.14688   MPKI: 0.00756
L2C DATA PREFETCH MPKI: 0.00756
L2C INSTRUCTION PREFETCH MPKI: 0
L2C WRITEBACK ACCESS:     232092  HIT:     229933  MISS:       2159  HIT %:    99.0698  MISS %:   0.930235   MPKI: 0.04318
L2C LOAD TRANSLATION ACCESS:       1215  HIT:        839  MISS:        376  HIT %:    69.0535  MISS %:    30.9465   MPKI: 0.00752
L2C PREFETCH  REQUESTED:     411435  ISSUED:     411435  USEFUL:        223  USELESS:        135
L2C USEFUL LOAD PREFETCHES:        223 PREFETCH ISSUED TO LOWER LEVEL:     146095  ACCURACY: 0.15264
L2C TIMELY PREFETCHES:        223 LATE PREFETCHES: 211 DROPPED PREFETCHES: 0
L2C PREFETCHES SAME FILL-ORIGIN LEVEL: 589 DIFFERENT FILL-ORIGIN LEVEL: 145506
L2C AVERAGE MISS LATENCY: 45.9305 cycles
L2C RQ	ACCESS:    3917586	FORWARD:          0	MERGED:          0	TO_CACHE:    3917573
L2C WQ	ACCESS:     232092	FORWARD:         13	MERGED:          0	TO_CACHE:     232092
L2C PQ	ACCESS:     411435	FORWARD:          0	MERGED:       5604	TO_CACHE:     405831

L2C Instructions Evicting Data 8892
L2C Translations Evicting Data 304
L2C Data Evicting Data 42333
L2C Instructions Evicting Instructions 15350
L2C Translations Evicting Instructions 32
L2C Data Evicting Instructions 7756
L2C Instructions Evicting Translations 62
L2C Translations Evicting Translations 4
L2C Data Evicting Translations 429
L2C Dense regions hint from L2: 0
PSCL5 TOTAL     ACCESS:       1176  HIT:       1176  MISS:          0  HIT %:        100  MISS %:          0   MPKI: 0
PSCL5 LOAD TRANSLATION ACCESS:       1176  HIT:       1176  MISS:          0  HIT %:        100  MISS %:          0   MPKI: 0
PSCL5 PREFETCH  REQUESTED:          0  ISSUED:          0  USEFUL:          0  USELESS:          0
PSCL5 USEFUL LOAD PREFETCHES:          0 PREFETCH ISSUED TO LOWER LEVEL:          0  ACCURACY: -nan
PSCL5 TIMELY PREFETCHES:          0 LATE PREFETCHES: 0 DROPPED PREFETCHES: 0
PSCL5 PREFETCHES SAME FILL-ORIGIN LEVEL: 0 DIFFERENT FILL-ORIGIN LEVEL: 0

PSCL4 TOTAL     ACCESS:        997  HIT:        994  MISS:          3  HIT %:    99.6991  MISS %:   0.300903   MPKI: 6e-05
PSCL4 LOAD TRANSLATION ACCESS:        997  HIT:        994  MISS:          3  HIT %:    99.6991  MISS %:   0.300903   MPKI: 6e-05
PSCL4 PREFETCH  REQUESTED:          0  ISSUED:          0  USEFUL:          0  USELESS:          0
PSCL4 USEFUL LOAD PREFETCHES:          0 PREFETCH ISSUED TO LOWER LEVEL:          0  ACCURACY: -nan
PSCL4 TIMELY PREFETCHES:          0 LATE PREFETCHES: 0 DROPPED PREFETCHES: 0
PSCL4 PREFETCHES SAME FILL-ORIGIN LEVEL: 0 DIFFERENT FILL-ORIGIN LEVEL: 0

PSCL3 TOTAL     ACCESS:        997  HIT:        994  MISS:          3  HIT %:    99.6991  MISS %:   0.300903   MPKI: 6e-05
PSCL3 LOAD TRANSLATION ACCESS:        997  HIT:        994  MISS:          3  HIT %:    99.6991  MISS %:   0.300903   MPKI: 6e-05
PSCL3 PREFETCH  REQUESTED:          0  ISSUED:          0  USEFUL:          0  USELESS:          0
PSCL3 USEFUL LOAD PREFETCHES:          0 PREFETCH ISSUED TO LOWER LEVEL:          0  ACCURACY: -nan
PSCL3 TIMELY PREFETCHES:          0 LATE PREFETCHES: 0 DROPPED PREFETCHES: 0
PSCL3 PREFETCHES SAME FILL-ORIGIN LEVEL: 0 DIFFERENT FILL-ORIGIN LEVEL: 0

PSCL2 TOTAL     ACCESS:       1176  HIT:       1136  MISS:         40  HIT %:    96.5986  MISS %:    3.40136   MPKI: 0.0008
PSCL2 LOAD TRANSLATION ACCESS:       1176  HIT:       1136  MISS:         40  HIT %:    96.5986  MISS %:    3.40136   MPKI: 0.0008
PSCL2 PREFETCH  REQUESTED:          0  ISSUED:          0  USEFUL:          0  USELESS:          0
PSCL2 USEFUL LOAD PREFETCHES:          0 PREFETCH ISSUED TO LOWER LEVEL:          0  ACCURACY: -nan
PSCL2 TIMELY PREFETCHES:          0 LATE PREFETCHES: 0 DROPPED PREFETCHES: 0
PSCL2 PREFETCHES SAME FILL-ORIGIN LEVEL: 0 DIFFERENT FILL-ORIGIN LEVEL: 0

LLC TOTAL     ACCESS:     252965  HIT:     237989  MISS:      14976  HIT %:    94.0798  MISS %:    5.92019   MPKI: 0.29952
LLC LOAD      ACCESS:      64851  HIT:      59562  MISS:       5289  HIT %:    91.8444  MISS %:    8.15562   MPKI: 0.10578
LLC RFO       ACCESS:      10771  HIT:       7957  MISS:       2814  HIT %:    73.8743  MISS %:    26.1257   MPKI: 0.05628
LLC PREFETCH  ACCESS:     145017  HIT:     138275  MISS:       6742  HIT %:    95.3509  MISS %:    4.64911   MPKI: 0.13484
LLC WRITEBACK ACCESS:      31950  HIT:      31949  MISS:          1  HIT %:    99.9969  MISS %: 0.00312989   MPKI: 2e-05
LLC LOAD TRANSLATION ACCESS:        376  HIT:        246  MISS:        130  HIT %:    65.4255  MISS %:    34.5745   MPKI: 0.0026
LLC PREFETCH  REQUESTED:          0  ISSUED:          0  USEFUL:       3073  USELESS:         33
LLC USEFUL LOAD PREFETCHES:       3073 PREFETCH ISSUED TO LOWER LEVEL:       7227  ACCURACY: 42.5211
LLC TIMELY PREFETCHES:       3073 LATE PREFETCHES: 485 DROPPED PREFETCHES: 0
LLC PREFETCHES SAME FILL-ORIGIN LEVEL: 7187 DIFFERENT FILL-ORIGIN LEVEL: 0
LLC AVERAGE MISS LATENCY: 169.256 cycles
LLC RQ	ACCESS:      75998	FORWARD:          0	MERGED:          0	TO_CACHE:      75998
LLC WQ	ACCESS:      31950	FORWARD:          0	MERGED:          0	TO_CACHE:      31950
LLC PQ	ACCESS:     146095	FORWARD:          0	MERGED:        406	TO_CACHE:     145689

LLC Dense regions hint to LLC: 0

RAW hits: 861344
Loads Generated: 12044118
Loads sent to L1D: 11182776
Stores Generated: 6515355
Stores sent to L1D: 6515360
Major fault: 0 Minor fault: 1190
Allocated PAGES: 1190
 All Calls: 625635
 Critical Calls: 625635
------------------
Depth Distribution
------------------
depth 0: 0
depth 1: 448265
depth 2: 37407
depth 3: 279
depth 4: 10
depth 5: 8
depth 6: 5
depth 7: 0
depth 8: 0
depth 9: 0
depth 10: 0
depth 11: 0
depth 12: 0
depth 13: 0
depth 14: 0
depth 15: 0
depth 16: 0
depth 17: 0
depth 18: 0
depth 19: 0
depth 20: 0
depth 21: 0
depth 22: 0
depth 23: 0
depth 24: 0
depth 25: 0
depth 26: 0
depth 27: 0
depth 28: 0
depth 29: 0
Total: 485974
-----------------------------
-----------------------------
	Captured at Filter
-----------------------------
depth 0: 0
depth 1: 27999
depth 2: 14384
depth 3: 694
depth 4: 0
depth 5: 1
depth 6: 0
depth 7: 0
depth 8: 0
depth 9: 0
depth 10: 0
depth 11: 0
depth 12: 0
depth 13: 0
depth 14: 0
depth 15: 0
depth 16: 0
depth 17: 0
depth 18: 0
depth 19: 0
depth 20: 0
depth 21: 0
depth 22: 0
depth 23: 0
depth 24: 0
depth 25: 0
depth 26: 0
depth 27: 0
depth 28: 0
depth 29: 0
-----------------------------
-----------------------------
		Lost at Page
-----------------------------
depth 0: 0
depth 1: 29086
depth 2: 494
depth 3: 5
depth 4: 0
depth 5: 0
depth 6: 0
depth 7: 0
depth 8: 0
depth 9: 0
depth 10: 0
depth 11: 0
depth 12: 0
depth 13: 0
depth 14: 0
depth 15: 0
depth 16: 0
depth 17: 0
depth 18: 0
depth 19: 0
depth 20: 0
depth 21: 0
depth 22: 0
depth 23: 0
depth 24: 0
depth 25: 0
depth 26: 0
depth 27: 0
depth 28: 0
depth 29: 0
-----------------------------
-----------------------------
	Lost due to PQ Size
-----------------------------
0
-----------------------------
ST read accesses: 501196
ST write accesses: 20290
PT read accesses: 5882635
PT write accesses: 612459
FILTER read accesses: 1047205
FILTER write accesses: 84499
GHR read accesses: 333255
GHR write accesses: 23085
GHR counter read accesses: 4882604
GHR counter write accesses: 526292
ST tag read accesses: 208072268
ST tag write accesses: 34839555

DRAM Statistics
 CHANNEL 0
 RQ ROW_BUFFER_HIT:       5813  ROW_BUFFER_MISS:       9162
 DBUS_CONGESTED:       5817
 WQ ROW_BUFFER_HIT:          8  ROW_BUFFER_MISS:         78  FULL:          0

 AVG_CONGESTED_CYCLE: 63
 All warmup complete: 2
Channel 0 Bank busy for read cycles: 0
Channel 0 Bank busy for write cycles: 0
Channel 0
Rank 0
0banks busy for read cycles: 98827279
0banks busy for write cycles: 79
1banks busy for read cycles: 1052793
1banks busy for write cycles: 13359
2banks busy for read cycles: 342562
2banks busy for write cycles: 232
3banks busy for read cycles: 89646
3banks busy for write cycles: 143
4banks busy for read cycles: 25235
4banks busy for write cycles: 82
5banks busy for read cycles: 7214
5banks busy for write cycles: 156
6banks busy for read cycles: 3018
6banks busy for write cycles: 221
7banks busy for read cycles: 860
7banks busy for write cycles: 0
8banks busy for read cycles: 159
8banks busy for write cycles: 0

CPU 0 Branch Prediction Accuracy: 93.1693% MPKI: 13.3539 Average ROB Occupancy at Mispredict: 17.5255
Branch types
NOT_BRANCH: 40224727 80.4494%
BRANCH_DIRECT_JUMP: 767599 1.5352%
BRANCH_INDIRECT: 108584 0.217168%
BRANCH_CONDITIONAL: 6373090 12.7462%
BRANCH_DIRECT_CALL: 1050916 2.10183%
BRANCH_INDIRECT_CALL: 211941 0.423882%
BRANCH_RETURN: 1262857 2.52571%
BRANCH_OTHER: 0 0%

@sumon_overall_L1D         0         0         0         0         0         0
@Sumon_Early_by_class_L1D         0         0         0         0
@Sumon_Late_by_class_L1D         0         0         0         0

@Sumon_Early_by_cycle_L1D         0         0         0         0         0         0         0         0         0         0         0         0
@Sumon_Late_by_cycle_L1D         0         0         0         0         0         0         0         0         0         0         0         0
@Sumon_Early_stream_L1D         0         0         0         0         0         0         0         0         0         0         0         0
@Sumon_Early_CS_L1D         0         0         0         0         0         0         0         0         0         0         0         0
@Sumon_Early_CPLX_L1D         0         0         0         0         0         0         0         0         0         0         0         0
@Sumon_Late_stream_L1D         0         0         0         0         0         0         0         0         0         0         0         0
@Sumon_Late_CS_L1D         0         0         0         0         0         0         0         0         0         0         0         0
@Sumon_Late_CPLX_L1D         0         0         0         0         0         0         0         0         0         0         0         0
@sumon_overall_L2C       223       211       135       378    411435    411435
@Sumon_Early_by_class_L2C         0         0         0         0
@Sumon_Late_by_class_L2C         0         0         0         0

@Sumon_Early_by_cycle_L2C        65         9        12         3         4       116         1         0         6         1         1         5
@Sumon_Late_by_cycle_L2C       199        12         0         0         0         0         0         0         0         0         0         0
@Sumon_Early_stream_L2C         0         0         0         0         0         0         0         0         0         0         0         0
@Sumon_Early_CS_L2C         0         0         0         0         0         0         0         0         0         0         0         0
@Sumon_Early_CPLX_L2C         0         0         0         0         0         0         0         0         0         0         0         0
@Sumon_Late_stream_L2C         0         0         0         0         0         0         0         0         0         0         0         0
@Sumon_Late_CS_L2C         0         0         0         0         0         0         0         0         0         0         0         0
@Sumon_Late_CPLX_L2C         0         0         0         0         0         0         0         0         0         0         0         0
DRAM PAGES: 1048576
Allocated PAGES: 1190
