
*** ChampSim Multicore Out-of-Order Simulator ***

Warmup Instructions: 10000000
Simulation Instructions: 50000000
Number of CPUs: 1
LLC sets: 2048
LLC ways: 16
Off-chip DRAM Size: 4096 MB Channels: 1 Width: 64-bit Data Rate: 1600 MT/s
CPU 0 runs traces/SPEC2017/619.lbm_s-3766B.champsimtrace.xz
.xz
CPU 0 Bimodal branch predictor
BTB has LRU replacement policy
ITLB has LRU replacement policy
DTLB has LRU replacement policy
STLB has LRU replacement policy
L1I has LRU replacement policy
IP Table Entries: 256
L1D has LRU replacement policy
IP_Table L2 entries: 256
L2C has LRU replacement policy
LLC has LRU replacement policy
Heartbeat CPU 0 instructions: 10000000 cycles: 2732981 heartbeat IPC: 3.65901 cumulative IPC: 3.65901 (Simulation time: 0 hr 19 min 8 sec) 

Warmup complete CPU 0 instructions: 10000004 cycles: 2732982 (Simulation time: 0 hr 19 min 8 sec) 

Heartbeat CPU 0 instructions: 20000000 cycles: 13789310 heartbeat IPC: 0.904459 cumulative IPC: 0.904459 (Simulation time: 0 hr 47 min 3 sec) 
Heartbeat CPU 0 instructions: 30000000 cycles: 25089100 heartbeat IPC: 0.884972 cumulative IPC: 0.89461 (Simulation time: 1 hr 18 min 51 sec) 
Heartbeat CPU 0 instructions: 40000002 cycles: 36538355 heartbeat IPC: 0.873419 cumulative IPC: 0.887433 (Simulation time: 1 hr 47 min 2 sec) 
Heartbeat CPU 0 instructions: 50000000 cycles: 48215619 heartbeat IPC: 0.856365 cumulative IPC: 0.879456 (Simulation time: 2 hr 0 min 0 sec) 
Heartbeat CPU 0 instructions: 60000000 cycles: 59363039 heartbeat IPC: 0.897069 cumulative IPC: 0.882923 (Simulation time: 2 hr 7 min 20 sec) 
Finished CPU 0 instructions: 50000000 cycles: 56630075 cumulative IPC: 0.882923 (Simulation time: 2 hr 7 min 20 sec) 

ChampSim completed all CPUs

Region of Interest Statistics

CPU 0 cumulative IPC: 0.882923 instructions: 50000000 cycles: 56630075
ITLB TOTAL     ACCESS:    6481781  HIT:    6481781  MISS:          0  HIT %:        100  MISS %:          0   MPKI: 0
ITLB LOAD TRANSLATION ACCESS:    6481781  HIT:    6481781  MISS:          0  HIT %:        100  MISS %:          0   MPKI: 0
ITLB PREFETCH  REQUESTED:          0  ISSUED:          0  USEFUL:          0  USELESS:          0
ITLB USEFUL LOAD PREFETCHES:          0 PREFETCH ISSUED TO LOWER LEVEL:          0  ACCURACY: -nan
ITLB TIMELY PREFETCHES:          0 LATE PREFETCHES: 0 DROPPED PREFETCHES: 0
ITLB PREFETCHES SAME FILL-ORIGIN LEVEL: 0 DIFFERENT FILL-ORIGIN LEVEL: 0
ITLB AVERAGE MISS LATENCY: -nan cycles
ITLB RQ	ACCESS:    8492442	FORWARD:          0	MERGED:    2010661	TO_CACHE:    6481781

DTLB TOTAL     ACCESS:    6617373  HIT:    6586270  MISS:      31103  HIT %:      99.53  MISS %:    0.47002   MPKI: 0.62206
DTLB LOAD TRANSLATION ACCESS:    6617373  HIT:    6586270  MISS:      31103  HIT %:      99.53  MISS %:    0.47002   MPKI: 0.62206
DTLB PREFETCH  REQUESTED:          0  ISSUED:          0  USEFUL:          0  USELESS:          0
DTLB USEFUL LOAD PREFETCHES:          0 PREFETCH ISSUED TO LOWER LEVEL:          0  ACCURACY: -nan
DTLB TIMELY PREFETCHES:          0 LATE PREFETCHES: 0 DROPPED PREFETCHES: 0
DTLB PREFETCHES SAME FILL-ORIGIN LEVEL: 0 DIFFERENT FILL-ORIGIN LEVEL: 0
DTLB AVERAGE MISS LATENCY: 146.113 cycles
DTLB RQ	ACCESS:    9267548	FORWARD:          0	MERGED:    2642657	TO_CACHE:    6624891

STLB TOTAL     ACCESS:     229911  HIT:     213033  MISS:      16878  HIT %:    92.6589  MISS %:     7.3411   MPKI: 0.33756
STLB LOAD TRANSLATION ACCESS:      31103  HIT:      14225  MISS:      16878  HIT %:    45.7351  MISS %:    54.2649   MPKI: 0.33756
STLB TRANSLATION FROM L1D PREFETCHER ACCESS:     198808  HIT:     198808  MISS:          0  HIT %:        100  MISS %:          0   MPKI: 0
STLB PREFETCH  REQUESTED:          0  ISSUED:          0  USEFUL:          0  USELESS:          0
STLB USEFUL LOAD PREFETCHES:          0 PREFETCH ISSUED TO LOWER LEVEL:          0  ACCURACY: -nan
STLB TIMELY PREFETCHES:          0 LATE PREFETCHES: 0 DROPPED PREFETCHES: 0
STLB PREFETCHES SAME FILL-ORIGIN LEVEL: 0 DIFFERENT FILL-ORIGIN LEVEL: 0
STLB AVERAGE MISS LATENCY: 247.829 cycles
STLB RQ	ACCESS:     312383	FORWARD:          0	MERGED:      82472	TO_CACHE:     229911

STLB Hit, L1D data hit: 0
STLB Hit, L2C data hit: 0
STLB Hit, LLC data hit: 0
STLB Hit, LLC data miss: 0
STLB STLB hints to L2: 0
L1D TOTAL     ACCESS:    9463826  HIT:    7682093  MISS:    1781733  HIT %:    81.1732  MISS %:    18.8268   MPKI: 35.6347
L1D LOAD      ACCESS:    3759737  HIT:    3746505  MISS:      13232  HIT %:    99.6481  MISS %:    0.35194   MPKI: 0.26464
L1D RFO       ACCESS:    5428478  HIT:    3916706  MISS:    1511772  HIT %:    72.1511  MISS %:    27.8489   MPKI: 30.2354
L1D PREFETCH  ACCESS:     275611  HIT:      18882  MISS:     256729  HIT %:    6.85096  MISS %:     93.149   MPKI: 5.13458
L1D PREFETCH  REQUESTED:     563289  ISSUED:     562569  USEFUL:     252119  USELESS:       4614
L1D USEFUL LOAD PREFETCHES:     252119 PREFETCH ISSUED TO LOWER LEVEL:     256729  ACCURACY: 98.2043
L1D TIMELY PREFETCHES:     252119 LATE PREFETCHES: 42191 DROPPED PREFETCHES: 0
L1D PREFETCHES SAME FILL-ORIGIN LEVEL: 256729 DIFFERENT FILL-ORIGIN LEVEL: 0
L1D AVERAGE MISS LATENCY: 465.089 cycles
L1D RQ	ACCESS:   11085512	FORWARD:          0	MERGED:    3742955	TO_CACHE:    3804180
L1D WQ	ACCESS:    7443211	FORWARD:    3538377	MERGED:    1979843	TO_CACHE:    5463368
L1D PQ	ACCESS:     281289	FORWARD:          0	MERGED:          9	TO_CACHE:     281280

L1D UNIQUE REGIONS ACCESSED: 0
L1D REGIONS CONFLICTS: 0
L1D Cross Page Prefetch Requests: 0
L1D Same Page Prefetch Requests: 338222
L1D ROI Sum of L1D PQ occupancy: 178729889
L1D PREFETCHES PUSHED FROM L2C: 0
L1I TOTAL     ACCESS:    8492440  HIT:    8492440  MISS:          0  HIT %:        100  MISS %:          0   MPKI: 0
L1I LOAD      ACCESS:    8492440  HIT:    8492440  MISS:          0  HIT %:        100  MISS %:          0   MPKI: 0
L1I PREFETCH  REQUESTED:          0  ISSUED:          0  USEFUL:          0  USELESS:          0
L1I USEFUL LOAD PREFETCHES:          0 PREFETCH ISSUED TO LOWER LEVEL:          0  ACCURACY: -nan
L1I TIMELY PREFETCHES:          0 LATE PREFETCHES: 0 DROPPED PREFETCHES: 0
L1I PREFETCHES SAME FILL-ORIGIN LEVEL: 0 DIFFERENT FILL-ORIGIN LEVEL: 0
L1I AVERAGE MISS LATENCY: -nan cycles
L1I RQ	ACCESS:   11936214	FORWARD:          0	MERGED:    3443772	TO_CACHE:    8492442

BTB TOTAL     ACCESS:     535381  HIT:     535375  MISS:          6  HIT %:    99.9989  MISS %:  0.0011207   MPKI: 0.00012
BTB BRANCH_DIRECT_JUMP	ACCESS:       2268  HIT:       2267  MISS:          1
BTB BRANCH_INDIRECT	ACCESS:          0  HIT:          0  MISS:          0
BTB BRANCH_CONDITIONAL	ACCESS:     533113  HIT:     533108  MISS:          5
BTB BRANCH_DIRECT_CALL	ACCESS:          0  HIT:          0  MISS:          0
BTB BRANCH_INDIRECT_CALL	ACCESS:          0  HIT:          0  MISS:          0
BTB BRANCH_RETURN	ACCESS:          0  HIT:          0  MISS:          0
BTB BRANCH_OTHER ACCESS:          0  HIT:          0  MISS:          0

L2C TOTAL     ACCESS:    3596003  HIT:    2495114  MISS:    1100889  HIT %:    69.3858  MISS %:    30.6142   MPKI: 22.0178
L2C LOAD      ACCESS:      13232  HIT:       3258  MISS:       9974  HIT %:    24.6221  MISS %:    75.3779   MPKI: 0.19948
L2C DATA LOAD MPKI: 0.19948
L2C INSTRUCTION LOAD MPKI: 0
L2C RFO       ACCESS:    1511771  HIT:     682994  MISS:     828777  HIT %:    45.1784  MISS %:    54.8216   MPKI: 16.5755
L2C PREFETCH  ACCESS:     542348  HIT:     282361  MISS:     259987  HIT %:    52.0627  MISS %:    47.9373   MPKI: 5.19974
L2C DATA PREFETCH MPKI: 5.19974
L2C INSTRUCTION PREFETCH MPKI: 0
L2C WRITEBACK ACCESS:    1511773  HIT:    1511755  MISS:         18  HIT %:    99.9988  MISS %: 0.00119065   MPKI: 0.00036
L2C LOAD TRANSLATION ACCESS:      16879  HIT:      14746  MISS:       2133  HIT %:     87.363  MISS %:     12.637   MPKI: 0.04266
L2C PREFETCH  REQUESTED:     423430  ISSUED:     423430  USEFUL:       3258  USELESS:     256899
L2C USEFUL LOAD PREFETCHES:       3258 PREFETCH ISSUED TO LOWER LEVEL:     260468  ACCURACY: 1.25083
L2C TIMELY PREFETCHES:       3258 LATE PREFETCHES: 481 DROPPED PREFETCHES: 0
L2C PREFETCHES SAME FILL-ORIGIN LEVEL: 179831 DIFFERENT FILL-ORIGIN LEVEL: 0
L2C AVERAGE MISS LATENCY: 853.652 cycles
L2C RQ	ACCESS:    1541897	FORWARD:          0	MERGED:          0	TO_CACHE:    1541897
L2C WQ	ACCESS:    1511773	FORWARD:          0	MERGED:          0	TO_CACHE:    1511773
L2C PQ	ACCESS:     680159	FORWARD:          0	MERGED:      65547	TO_CACHE:     614612

L2C Instructions Evicting Data 0
L2C Translations Evicting Data 2128
L2C Data Evicting Data 1096609
L2C Instructions Evicting Instructions 0
L2C Translations Evicting Instructions 0
L2C Data Evicting Instructions 0
L2C Instructions Evicting Translations 0
L2C Translations Evicting Translations 5
L2C Data Evicting Translations 2129
L2C Dense regions hint from L2: 0
PSCL5 TOTAL     ACCESS:      16878  HIT:      16878  MISS:          0  HIT %:        100  MISS %:          0   MPKI: 0
PSCL5 LOAD TRANSLATION ACCESS:      16878  HIT:      16878  MISS:          0  HIT %:        100  MISS %:          0   MPKI: 0
PSCL5 PREFETCH  REQUESTED:          0  ISSUED:          0  USEFUL:          0  USELESS:          0
PSCL5 USEFUL LOAD PREFETCHES:          0 PREFETCH ISSUED TO LOWER LEVEL:          0  ACCURACY: -nan
PSCL5 TIMELY PREFETCHES:          0 LATE PREFETCHES: 0 DROPPED PREFETCHES: 0
PSCL5 PREFETCHES SAME FILL-ORIGIN LEVEL: 0 DIFFERENT FILL-ORIGIN LEVEL: 0

PSCL4 TOTAL     ACCESS:      16878  HIT:      16878  MISS:          0  HIT %:        100  MISS %:          0   MPKI: 0
PSCL4 LOAD TRANSLATION ACCESS:      16878  HIT:      16878  MISS:          0  HIT %:        100  MISS %:          0   MPKI: 0
PSCL4 PREFETCH  REQUESTED:          0  ISSUED:          0  USEFUL:          0  USELESS:          0
PSCL4 USEFUL LOAD PREFETCHES:          0 PREFETCH ISSUED TO LOWER LEVEL:          0  ACCURACY: -nan
PSCL4 TIMELY PREFETCHES:          0 LATE PREFETCHES: 0 DROPPED PREFETCHES: 0
PSCL4 PREFETCHES SAME FILL-ORIGIN LEVEL: 0 DIFFERENT FILL-ORIGIN LEVEL: 0

PSCL3 TOTAL     ACCESS:      16878  HIT:      16878  MISS:          0  HIT %:        100  MISS %:          0   MPKI: 0
PSCL3 LOAD TRANSLATION ACCESS:      16878  HIT:      16878  MISS:          0  HIT %:        100  MISS %:          0   MPKI: 0
PSCL3 PREFETCH  REQUESTED:          0  ISSUED:          0  USEFUL:          0  USELESS:          0
PSCL3 USEFUL LOAD PREFETCHES:          0 PREFETCH ISSUED TO LOWER LEVEL:          0  ACCURACY: -nan
PSCL3 TIMELY PREFETCHES:          0 LATE PREFETCHES: 0 DROPPED PREFETCHES: 0
PSCL3 PREFETCHES SAME FILL-ORIGIN LEVEL: 0 DIFFERENT FILL-ORIGIN LEVEL: 0

PSCL2 TOTAL     ACCESS:      16878  HIT:      16860  MISS:         18  HIT %:    99.8934  MISS %:   0.106648   MPKI: 0.00036
PSCL2 LOAD TRANSLATION ACCESS:      16878  HIT:      16860  MISS:         18  HIT %:    99.8934  MISS %:   0.106648   MPKI: 0.00036
PSCL2 PREFETCH  REQUESTED:          0  ISSUED:          0  USEFUL:          0  USELESS:          0
PSCL2 USEFUL LOAD PREFETCHES:          0 PREFETCH ISSUED TO LOWER LEVEL:          0  ACCURACY: -nan
PSCL2 TIMELY PREFETCHES:          0 LATE PREFETCHES: 0 DROPPED PREFETCHES: 0
PSCL2 PREFETCHES SAME FILL-ORIGIN LEVEL: 0 DIFFERENT FILL-ORIGIN LEVEL: 0

LLC TOTAL     ACCESS:    1929520  HIT:     847548  MISS:    1081972  HIT %:    43.9253  MISS %:    56.0747   MPKI: 21.6394
LLC LOAD      ACCESS:       9493  HIT:          0  MISS:       9493  HIT %:          0  MISS %:        100   MPKI: 0.18986
LLC RFO       ACCESS:     828772  HIT:      18912  MISS:     809860  HIT %:    2.28193  MISS %:    97.7181   MPKI: 16.1972
LLC PREFETCH  ACCESS:     260468  HIT:          0  MISS:     260468  HIT %:          0  MISS %:        100   MPKI: 5.20936
LLC WRITEBACK ACCESS:     828654  HIT:     828636  MISS:         18  HIT %:    99.9978  MISS %:  0.0021722   MPKI: 0.00036
LLC LOAD TRANSLATION ACCESS:       2133  HIT:          0  MISS:       2133  HIT %:          0  MISS %:        100   MPKI: 0.04266
LLC PREFETCH  REQUESTED:          0  ISSUED:          0  USEFUL:          0  USELESS:     261437
LLC USEFUL LOAD PREFETCHES:          0 PREFETCH ISSUED TO LOWER LEVEL:     260468  ACCURACY: 0
LLC TIMELY PREFETCHES:          0 LATE PREFETCHES: 0 DROPPED PREFETCHES: 0
LLC PREFETCHES SAME FILL-ORIGIN LEVEL: 0 DIFFERENT FILL-ORIGIN LEVEL: 0
LLC AVERAGE MISS LATENCY: 837.417 cycles
LLC RQ	ACCESS:     840418	FORWARD:          0	MERGED:          0	TO_CACHE:     840413
LLC WQ	ACCESS:     828653	FORWARD:          5	MERGED:          0	TO_CACHE:     828653
LLC PQ	ACCESS:     260468	FORWARD:          0	MERGED:          0	TO_CACHE:     260468

LLC Dense regions hint to LLC: 0

RAW hits: 588582
Loads Generated: 11674098
Loads sent to L1D: 11085512
Stores Generated: 7443187
Stores sent to L1D: 7443211
Major fault: 0 Minor fault: 13292
Allocated PAGES: 13292

stream: 
stream:times selected: 1813341
stream:pref_filled: 41938
stream:pref_useful: 39966
stream:pref_late: 4611
stream:misses: 13499
stream:misses_by_poll: 0

CS: 
CS:times selected: 322043
CS:pref_filled: 185144
CS:pref_useful: 184103
CS:pref_late: 3097
CS:misses: 6418
CS:misses_by_poll: 1066

CPLX: 
CPLX:times selected: 1490614
CPLX:pref_filled: 81605
CPLX:pref_useful: 80004
CPLX:pref_late: 5655
CPLX:misses: 36189
CPLX:misses_by_poll: 678

NL_L1: 
NL:times selected: 468
NL:pref_filled: 25
NL:pref_useful: 23
NL:pref_late: 9
NL:misses: 32
NL:misses_by_poll: 0

total selections: 3626466
total_filled: 256729
total_useful: 252119
total_late: 13372
total_polluted: 1744
total_misses_after_warmup: 57675
conflicts: 44163
Degree Incremented Times: 60223
Degree Decremented Times: 0

L1 IP Table Write Accesses: 3444222
L1 IP Table Read Accesses: 3400059
L1 RST Write Accesses: 1465856
L1 RST Read Accesses: 2931712
L1 CSPT Write Accesses: 1465856
L1 CSPT Read Accesses: 4745645
L1 RR Filter Tag Write Accesses: 282009
L1 RR Filter Tag Read Accesses: 250192403
L1 IP Table Tag Write Accesses: 3804180
L1 IP Table Tag Read Accesses: 3804180
L1 RST Tag Write Accesses: 0
L1 RST Tag Read Accesses: 13186298
L1 RR Filter Write Accesses: 0
L1 RR Filter Read Accesses: 11327554
test: 135809
L2 IP Table Read Accesses: 443725
L2 IP Table Write Accesses: 430518
L2 IP Table Tag Read Accesses: 221890
L2 IP Table Tag Write Accesses: 221890

DRAM Statistics
 CHANNEL 0
 RQ ROW_BUFFER_HIT:     167931  ROW_BUFFER_MISS:     914024
 DBUS_CONGESTED:    1490130
 WQ ROW_BUFFER_HIT:     134672  ROW_BUFFER_MISS:     674218  FULL:          0

 AVG_CONGESTED_CYCLE: 14
 All warmup complete: 2
Channel 0 Bank busy for read cycles: 0
Channel 0 Bank busy for write cycles: 0
Channel 0
Rank 0
0banks busy for read cycles: 3625
0banks busy for write cycles: 0
1banks busy for read cycles: 295776
1banks busy for write cycles: 85244
2banks busy for read cycles: 390744
2banks busy for write cycles: 85244
3banks busy for read cycles: 681116
3banks busy for write cycles: 85244
4banks busy for read cycles: 936909
4banks busy for write cycles: 85244
5banks busy for read cycles: 2346589
5banks busy for write cycles: 85244
6banks busy for read cycles: 5265924
6banks busy for write cycles: 85282
7banks busy for read cycles: 8946311
7banks busy for write cycles: 894996
8banks busy for read cycles: 13410345
8banks busy for write cycles: 22946239

CPU 0 Branch Prediction Accuracy: 99.7002% MPKI: 0.0321 Average ROB Occupancy at Mispredict: 49.1863
Branch types
NOT_BRANCH: 49464288 98.9286%
BRANCH_DIRECT_JUMP: 2268 0.004536%
BRANCH_INDIRECT: 0 0%
BRANCH_CONDITIONAL: 533113 1.06623%
BRANCH_DIRECT_CALL: 0 0%
BRANCH_INDIRECT_CALL: 0 0%
BRANCH_RETURN: 0 0%
BRANCH_OTHER: 0 0%

@sumon_overall_L1D    252119     42191      4614    256729    562569    563289
@Sumon_Early_by_class_L1D     32972    160618     58508         6
@Sumon_Late_by_class_L1D      4545      3097      5654         6

@Sumon_Early_by_cycle_L1D      9577     11500     10062     19641     17886    135516     45560      2344        33         0         0         0
@Sumon_Late_by_cycle_L1D      5865      2452      2897      1206       257       598        27         0         0         0         0         0
@Sumon_Early_stream_L1D      2760      5011      4244      7097      4878      8966        16         0         0         0         0         0
@Sumon_Early_CS_L1D      2548      2529      2014      6516      6740    103709     36201       361         0         0         0         0
@Sumon_Early_CPLX_L1D      4266      3956      3800      6027      6266     22835      9342      1983        33         0         0         0
@Sumon_Late_stream_L1D      1933       941       924       326       126       273        22         0         0         0         0         0
@Sumon_Late_CS_L1D      1328       471       703       325        68       198         4         0         0         0         0         0
@Sumon_Late_CPLX_L1D      2603      1040      1268       554        61       127         1         0         0         0         0         0
@sumon_overall_L2C      3258       481    256899    259987    423430    423430
@Sumon_Early_by_class_L2C      1568      1688         0         0
@Sumon_Late_by_class_L2C       385        55         0         0

@Sumon_Early_by_cycle_L2C       130       117        62       658       113      1237       891        50         0         0         0         0
@Sumon_Late_by_cycle_L2C       198        35        25       161        15        47         0         0         0         0         0         0
@Sumon_Early_stream_L2C       112        97        52       579        88       632         8         0         0         0         0         0
@Sumon_Early_CS_L2C        18        20        10        78        25       605       883        49         0         0         0         0
@Sumon_Early_CPLX_L2C         0         0         0         0         0         0         0         0         0         0         0         0
@Sumon_Late_stream_L2C       136        34        23       137        14        41         0         0         0         0         0         0
@Sumon_Late_CS_L2C        21         1         2        24         1         6         0         0         0         0         0         0
@Sumon_Late_CPLX_L2C         0         0         0         0         0         0         0         0         0         0         0         0
DRAM PAGES: 1048576
Allocated PAGES: 13292
