
*** ChampSim Multicore Out-of-Order Simulator ***

Warmup Instructions: 10000000
Simulation Instructions: 50000000
Number of CPUs: 1
LLC sets: 2048
LLC ways: 16
Off-chip DRAM Size: 4096 MB Channels: 1 Width: 64-bit Data Rate: 1600 MT/s
CPU 0 runs traces/SPEC2017/654.roms_s-523B.champsimtrace.xz
.xz
CPU 0 Bimodal branch predictor
BTB has LRU replacement policy
ITLB has LRU replacement policy
DTLB has LRU replacement policy
STLB has LRU replacement policy
L1I has LRU replacement policy
IP Table Entries: 256
L1D has LRU replacement policy
IP_Table L2 entries: 256
L2C has LRU replacement policy
LLC has LRU replacement policy
Heartbeat CPU 0 instructions: 10000002 cycles: 2873036 heartbeat IPC: 3.48064 cumulative IPC: 3.48064 (Simulation time: 0 hr 20 min 1 sec) 

Warmup complete CPU 0 instructions: 10000002 cycles: 2873036 (Simulation time: 0 hr 20 min 1 sec) 

Heartbeat CPU 0 instructions: 20000000 cycles: 14512071 heartbeat IPC: 0.859178 cumulative IPC: 0.859178 (Simulation time: 0 hr 35 min 43 sec) 
Heartbeat CPU 0 instructions: 30000002 cycles: 27880941 heartbeat IPC: 0.748007 cumulative IPC: 0.799747 (Simulation time: 0 hr 59 min 57 sec) 
Heartbeat CPU 0 instructions: 40000001 cycles: 41914841 heartbeat IPC: 0.71256 cumulative IPC: 0.768407 (Simulation time: 1 hr 22 min 0 sec) 
Heartbeat CPU 0 instructions: 50000002 cycles: 52559769 heartbeat IPC: 0.939415 cumulative IPC: 0.805044 (Simulation time: 1 hr 42 min 19 sec) 
Heartbeat CPU 0 instructions: 60000003 cycles: 63300027 heartbeat IPC: 0.931076 cumulative IPC: 0.827445 (Simulation time: 1 hr 54 min 58 sec) 
Finished CPU 0 instructions: 50000001 cycles: 60426991 cumulative IPC: 0.827445 (Simulation time: 1 hr 54 min 58 sec) 

ChampSim completed all CPUs

Region of Interest Statistics

CPU 0 cumulative IPC: 0.827445 instructions: 50000001 cycles: 60426991
ITLB TOTAL     ACCESS:    7558097  HIT:    7558096  MISS:          1  HIT %:        100  MISS %: 1.32308e-05   MPKI: 2e-05
ITLB LOAD TRANSLATION ACCESS:    7558097  HIT:    7558096  MISS:          1  HIT %:        100  MISS %: 1.32308e-05   MPKI: 2e-05
ITLB PREFETCH  REQUESTED:          0  ISSUED:          0  USEFUL:          0  USELESS:          0
ITLB USEFUL LOAD PREFETCHES:          0 PREFETCH ISSUED TO LOWER LEVEL:          0  ACCURACY: -nan
ITLB TIMELY PREFETCHES:          0 LATE PREFETCHES: 0 DROPPED PREFETCHES: 0
ITLB PREFETCHES SAME FILL-ORIGIN LEVEL: 0 DIFFERENT FILL-ORIGIN LEVEL: 0
ITLB AVERAGE MISS LATENCY: 622 cycles
ITLB RQ	ACCESS:    9265132	FORWARD:          0	MERGED:    1707035	TO_CACHE:    7558097

DTLB TOTAL     ACCESS:   13254762  HIT:   13226605  MISS:      28157  HIT %:    99.7876  MISS %:   0.212429   MPKI: 0.56314
DTLB LOAD TRANSLATION ACCESS:   13254762  HIT:   13226605  MISS:      28157  HIT %:    99.7876  MISS %:   0.212429   MPKI: 0.56314
DTLB PREFETCH  REQUESTED:          0  ISSUED:          0  USEFUL:          0  USELESS:          0
DTLB USEFUL LOAD PREFETCHES:          0 PREFETCH ISSUED TO LOWER LEVEL:          0  ACCURACY: -nan
DTLB TIMELY PREFETCHES:          0 LATE PREFETCHES: 0 DROPPED PREFETCHES: 0
DTLB PREFETCHES SAME FILL-ORIGIN LEVEL: 0 DIFFERENT FILL-ORIGIN LEVEL: 0
DTLB AVERAGE MISS LATENCY: 228.002 cycles
DTLB RQ	ACCESS:   14574280	FORWARD:          0	MERGED:    1297455	TO_CACHE:   13276825

STLB TOTAL     ACCESS:    1181460  HIT:    1153436  MISS:      28024  HIT %:     97.628  MISS %:    2.37198   MPKI: 0.56048
STLB LOAD TRANSLATION ACCESS:      28158  HIT:        134  MISS:      28024  HIT %:   0.475886  MISS %:    99.5241   MPKI: 0.56048
STLB TRANSLATION FROM L1D PREFETCHER ACCESS:    1153302  HIT:    1153302  MISS:          0  HIT %:        100  MISS %:          0   MPKI: 0
STLB PREFETCH  REQUESTED:          0  ISSUED:          0  USEFUL:          0  USELESS:          0
STLB USEFUL LOAD PREFETCHES:          0 PREFETCH ISSUED TO LOWER LEVEL:          0  ACCURACY: -nan
STLB TIMELY PREFETCHES:          0 LATE PREFETCHES: 0 DROPPED PREFETCHES: 0
STLB PREFETCHES SAME FILL-ORIGIN LEVEL: 0 DIFFERENT FILL-ORIGIN LEVEL: 0
STLB AVERAGE MISS LATENCY: 219.636 cycles
STLB RQ	ACCESS:    2652192	FORWARD:          0	MERGED:    1470732	TO_CACHE:    1181460

STLB Hit, L1D data hit: 0
STLB Hit, L2C data hit: 0
STLB Hit, LLC data hit: 0
STLB Hit, LLC data miss: 0
STLB STLB hints to L2: 0
L1D TOTAL     ACCESS:   15308970  HIT:   14035833  MISS:    1273137  HIT %:    91.6837  MISS %:    8.31628   MPKI: 25.4627
L1D LOAD      ACCESS:   11301775  HIT:   11267697  MISS:      34078  HIT %:    99.6985  MISS %:   0.301528   MPKI: 0.68156
L1D RFO       ACCESS:    1405551  HIT:    1135462  MISS:     270089  HIT %:    80.7841  MISS %:    19.2159   MPKI: 5.40178
L1D PREFETCH  ACCESS:    2601644  HIT:    1632674  MISS:     968970  HIT %:    62.7555  MISS %:    37.2445   MPKI: 19.3794
L1D PREFETCH  REQUESTED:    5349881  ISSUED:    5249044  USEFUL:     906247  USELESS:      62726
L1D USEFUL LOAD PREFETCHES:     906247 PREFETCH ISSUED TO LOWER LEVEL:     979518  ACCURACY: 92.5197
L1D TIMELY PREFETCHES:     906247 LATE PREFETCHES: 115536 DROPPED PREFETCHES: 0
L1D PREFETCHES SAME FILL-ORIGIN LEVEL: 979518 DIFFERENT FILL-ORIGIN LEVEL: 0
L1D AVERAGE MISS LATENCY: 39694.5 cycles
L1D RQ	ACCESS:   18805199	FORWARD:          0	MERGED:    7343772	TO_CACHE:   11461128
L1D WQ	ACCESS:    3113152	FORWARD:        299	MERGED:          0	TO_CACHE:    3113152
L1D PQ	ACCESS:    2625010	FORWARD:          0	MERGED:        976	TO_CACHE:    2624034

L1D UNIQUE REGIONS ACCESSED: 0
L1D REGIONS CONFLICTS: 0
L1D Cross Page Prefetch Requests: 0
L1D Same Page Prefetch Requests: 3500159
L1D ROI Sum of L1D PQ occupancy: 55904830
L1D PREFETCHES PUSHED FROM L2C: 0
L1I TOTAL     ACCESS:    9265090  HIT:    9265024  MISS:         66  HIT %:    99.9993  MISS %: 0.000712351   MPKI: 0.00132
L1I LOAD      ACCESS:    9265090  HIT:    9265024  MISS:         66  HIT %:    99.9993  MISS %: 0.000712351   MPKI: 0.00132
L1I PREFETCH  REQUESTED:          0  ISSUED:          0  USEFUL:          0  USELESS:          0
L1I USEFUL LOAD PREFETCHES:          0 PREFETCH ISSUED TO LOWER LEVEL:          0  ACCURACY: -nan
L1I TIMELY PREFETCHES:          0 LATE PREFETCHES: 0 DROPPED PREFETCHES: 0
L1I PREFETCHES SAME FILL-ORIGIN LEVEL: 0 DIFFERENT FILL-ORIGIN LEVEL: 0
L1I AVERAGE MISS LATENCY: 352.758 cycles
L1I RQ	ACCESS:   13002341	FORWARD:          0	MERGED:    3737209	TO_CACHE:    9265132

BTB TOTAL     ACCESS:    3177522  HIT:    3177490  MISS:         32  HIT %:     99.999  MISS %: 0.00100707   MPKI: 0.00064
BTB BRANCH_DIRECT_JUMP	ACCESS:     264284  HIT:     264280  MISS:          4
BTB BRANCH_INDIRECT	ACCESS:          0  HIT:          0  MISS:          0
BTB BRANCH_CONDITIONAL	ACCESS:    2913238  HIT:    2913210  MISS:         28
BTB BRANCH_DIRECT_CALL	ACCESS:          0  HIT:          0  MISS:          0
BTB BRANCH_INDIRECT_CALL	ACCESS:          0  HIT:          0  MISS:          0
BTB BRANCH_RETURN	ACCESS:          0  HIT:          0  MISS:          0
BTB BRANCH_OTHER ACCESS:          0  HIT:          0  MISS:          0

L2C TOTAL     ACCESS:    4654946  HIT:    3333066  MISS:    1321880  HIT %:    71.6027  MISS %:    28.3973   MPKI: 26.4376
L2C LOAD      ACCESS:      34141  HIT:       4193  MISS:      29948  HIT %:    12.2814  MISS %:    87.7186   MPKI: 0.59896
L2C DATA LOAD MPKI: 0.59764
L2C INSTRUCTION LOAD MPKI: 0.00132
L2C RFO       ACCESS:     268381  HIT:          0  MISS:     268381  HIT %:          0  MISS %:        100   MPKI: 5.36762
L2C PREFETCH  ACCESS:    3922646  HIT:    2905085  MISS:    1017561  HIT %:    74.0593  MISS %:    25.9407   MPKI: 20.3512
L2C DATA PREFETCH MPKI: 20.3512
L2C INSTRUCTION PREFETCH MPKI: 0
L2C WRITEBACK ACCESS:     401734  HIT:     401693  MISS:         41  HIT %:    99.9898  MISS %:  0.0102058   MPKI: 0.00082
L2C LOAD TRANSLATION ACCESS:      28044  HIT:      22095  MISS:       5949  HIT %:    78.7869  MISS %:    21.2131   MPKI: 0.11898
L2C PREFETCH  REQUESTED:    4236351  ISSUED:    4207869  USEFUL:       2609  USELESS:    1014905
L2C USEFUL LOAD PREFETCHES:       2609 PREFETCH ISSUED TO LOWER LEVEL:    1018622  ACCURACY: 0.25613
L2C TIMELY PREFETCHES:       2609 LATE PREFETCHES: 1058 DROPPED PREFETCHES: 0
L2C PREFETCHES SAME FILL-ORIGIN LEVEL: 858452 DIFFERENT FILL-ORIGIN LEVEL: 0
L2C AVERAGE MISS LATENCY: 399.98 cycles
L2C RQ	ACCESS:     330571	FORWARD:          0	MERGED:          0	TO_CACHE:     330568
L2C WQ	ACCESS:     401734	FORWARD:          3	MERGED:          0	TO_CACHE:     401734
L2C PQ	ACCESS:    5178547	FORWARD:          0	MERGED:     282281	TO_CACHE:    4896266

L2C Instructions Evicting Data 66
L2C Translations Evicting Data 5915
L2C Data Evicting Data 1309830
L2C Instructions Evicting Instructions 0
L2C Translations Evicting Instructions 0
L2C Data Evicting Instructions 66
L2C Instructions Evicting Translations 0
L2C Translations Evicting Translations 34
L2C Data Evicting Translations 5928
L2C Dense regions hint from L2: 0
PSCL5 TOTAL     ACCESS:      28024  HIT:      28024  MISS:          0  HIT %:        100  MISS %:          0   MPKI: 0
PSCL5 LOAD TRANSLATION ACCESS:      28024  HIT:      28024  MISS:          0  HIT %:        100  MISS %:          0   MPKI: 0
PSCL5 PREFETCH  REQUESTED:          0  ISSUED:          0  USEFUL:          0  USELESS:          0
PSCL5 USEFUL LOAD PREFETCHES:          0 PREFETCH ISSUED TO LOWER LEVEL:          0  ACCURACY: -nan
PSCL5 TIMELY PREFETCHES:          0 LATE PREFETCHES: 0 DROPPED PREFETCHES: 0
PSCL5 PREFETCHES SAME FILL-ORIGIN LEVEL: 0 DIFFERENT FILL-ORIGIN LEVEL: 0

PSCL4 TOTAL     ACCESS:      28024  HIT:      28024  MISS:          0  HIT %:        100  MISS %:          0   MPKI: 0
PSCL4 LOAD TRANSLATION ACCESS:      28024  HIT:      28024  MISS:          0  HIT %:        100  MISS %:          0   MPKI: 0
PSCL4 PREFETCH  REQUESTED:          0  ISSUED:          0  USEFUL:          0  USELESS:          0
PSCL4 USEFUL LOAD PREFETCHES:          0 PREFETCH ISSUED TO LOWER LEVEL:          0  ACCURACY: -nan
PSCL4 TIMELY PREFETCHES:          0 LATE PREFETCHES: 0 DROPPED PREFETCHES: 0
PSCL4 PREFETCHES SAME FILL-ORIGIN LEVEL: 0 DIFFERENT FILL-ORIGIN LEVEL: 0

PSCL3 TOTAL     ACCESS:      28024  HIT:      28020  MISS:          4  HIT %:    99.9857  MISS %:  0.0142735   MPKI: 8e-05
PSCL3 LOAD TRANSLATION ACCESS:      28024  HIT:      28020  MISS:          4  HIT %:    99.9857  MISS %:  0.0142735   MPKI: 8e-05
PSCL3 PREFETCH  REQUESTED:          0  ISSUED:          0  USEFUL:          0  USELESS:          0
PSCL3 USEFUL LOAD PREFETCHES:          0 PREFETCH ISSUED TO LOWER LEVEL:          0  ACCURACY: -nan
PSCL3 TIMELY PREFETCHES:          0 LATE PREFETCHES: 0 DROPPED PREFETCHES: 0
PSCL3 PREFETCHES SAME FILL-ORIGIN LEVEL: 0 DIFFERENT FILL-ORIGIN LEVEL: 0

PSCL2 TOTAL     ACCESS:      28024  HIT:      27942  MISS:         82  HIT %:    99.7074  MISS %:   0.292606   MPKI: 0.00164
PSCL2 LOAD TRANSLATION ACCESS:      28024  HIT:      27942  MISS:         82  HIT %:    99.7074  MISS %:   0.292606   MPKI: 0.00164
PSCL2 PREFETCH  REQUESTED:          0  ISSUED:          0  USEFUL:          0  USELESS:          0
PSCL2 USEFUL LOAD PREFETCHES:          0 PREFETCH ISSUED TO LOWER LEVEL:          0  ACCURACY: -nan
PSCL2 TIMELY PREFETCHES:          0 LATE PREFETCHES: 0 DROPPED PREFETCHES: 0
PSCL2 PREFETCHES SAME FILL-ORIGIN LEVEL: 0 DIFFERENT FILL-ORIGIN LEVEL: 0

LLC TOTAL     ACCESS:    1723290  HIT:     401479  MISS:    1321811  HIT %:    23.2972  MISS %:    76.7028   MPKI: 26.4362
LLC LOAD      ACCESS:      28890  HIT:         30  MISS:      28860  HIT %:   0.103842  MISS %:    99.8962   MPKI: 0.5772
LLC RFO       ACCESS:     268381  HIT:          0  MISS:     268381  HIT %:          0  MISS %:        100   MPKI: 5.36762
LLC PREFETCH  ACCESS:    1018619  HIT:          6  MISS:    1018613  HIT %: 0.000589033  MISS %:    99.9994   MPKI: 20.3723
LLC WRITEBACK ACCESS:     401451  HIT:     401421  MISS:         30  HIT %:    99.9925  MISS %: 0.00747289   MPKI: 0.0006
LLC LOAD TRANSLATION ACCESS:       5949  HIT:         22  MISS:       5927  HIT %:    0.36981  MISS %:    99.6302   MPKI: 0.11854
LLC PREFETCH  REQUESTED:          0  ISSUED:          0  USEFUL:          2  USELESS:    1017762
LLC USEFUL LOAD PREFETCHES:          2 PREFETCH ISSUED TO LOWER LEVEL:    1018616  ACCURACY: 0.000196345
LLC TIMELY PREFETCHES:          2 LATE PREFETCHES: 0 DROPPED PREFETCHES: 0
LLC PREFETCHES SAME FILL-ORIGIN LEVEL: 0 DIFFERENT FILL-ORIGIN LEVEL: 0
LLC AVERAGE MISS LATENCY: 369.179 cycles
LLC RQ	ACCESS:     303221	FORWARD:          0	MERGED:          0	TO_CACHE:     303221
LLC WQ	ACCESS:     401451	FORWARD:          0	MERGED:          0	TO_CACHE:     401451
LLC PQ	ACCESS:    1018622	FORWARD:          0	MERGED:          0	TO_CACHE:    1018622

LLC Dense regions hint to LLC: 0

RAW hits: 3910
Loads Generated: 18809114
Loads sent to L1D: 18805199
Stores Generated: 3113153
Stores sent to L1D: 3113152
Major fault: 0 Minor fault: 19648
Allocated PAGES: 19648

stream: 
stream:times selected: 2334739
stream:pref_filled: 1075105
stream:pref_useful: 1005740
stream:pref_late: 22723
stream:misses: 377
stream:misses_by_poll: 0

CS: 
CS:times selected: 2266826
CS:pref_filled: 1334
CS:pref_useful: 1213
CS:pref_late: 80
CS:misses: 188628
CS:misses_by_poll: 9

CPLX: 
CPLX:times selected: 67832
CPLX:pref_filled: 1220
CPLX:pref_useful: 616
CPLX:pref_late: 16
CPLX:misses: 6518
CPLX:misses_by_poll: 0

NL_L1: 
NL:times selected: 28
NL:pref_filled: 1
NL:pref_useful: 1
NL:pref_late: 0
NL:misses: 10
NL:misses_by_poll: 0

total selections: 4669425
total_filled: 968970
total_useful: 906247
total_late: 22823
total_polluted: 9
total_misses_after_warmup: 193424
conflicts: 1946
Degree Incremented Times: 121918
Degree Decremented Times: 0

L1 IP Table Write Accesses: 11451322
L1 IP Table Read Accesses: 11449376
L1 RST Write Accesses: 2032068
L1 RST Read Accesses: 4064136
L1 CSPT Write Accesses: 2032068
L1 CSPT Read Accesses: 2204476
L1 RR Filter Tag Write Accesses: 2725847
L1 RR Filter Tag Read Accesses: 392289541
L1 IP Table Tag Write Accesses: 11461121
L1 IP Table Tag Read Accesses: 11461121
L1 RST Tag Write Accesses: 0
L1 RST Tag Read Accesses: 18321191
L1 RR Filter Write Accesses: 0
L1 RR Filter Read Accesses: 17386370
test: 57411
L2 IP Table Read Accesses: 1509952
L2 IP Table Write Accesses: 1476168
L2 IP Table Tag Read Accesses: 755060
L2 IP Table Tag Write Accesses: 755060

DRAM Statistics
 CHANNEL 0
 RQ ROW_BUFFER_HIT:     389470  ROW_BUFFER_MISS:     932311
 DBUS_CONGESTED:    1188342
 WQ ROW_BUFFER_HIT:      64870  ROW_BUFFER_MISS:     337338  FULL:          0

 AVG_CONGESTED_CYCLE: 14
 All warmup complete: 2
Channel 0 Bank busy for read cycles: 0
Channel 0 Bank busy for write cycles: 0
Channel 0
Rank 0
0banks busy for read cycles: 58244
0banks busy for write cycles: 0
1banks busy for read cycles: 7231799
1banks busy for write cycles: 79231
2banks busy for read cycles: 7491770
2banks busy for write cycles: 78840
3banks busy for read cycles: 6116832
3banks busy for write cycles: 78567
4banks busy for read cycles: 3662729
4banks busy for write cycles: 78237
5banks busy for read cycles: 3038371
5banks busy for write cycles: 77930
6banks busy for read cycles: 3202427
6banks busy for write cycles: 78267
7banks busy for read cycles: 5070597
7banks busy for write cycles: 498494
8banks busy for read cycles: 9952040
8banks busy for write cycles: 13632617

CPU 0 Branch Prediction Accuracy: 99.8382% MPKI: 0.10508 Average ROB Occupancy at Mispredict: 76.9477
Branch types
NOT_BRANCH: 46753073 93.5061%
BRANCH_DIRECT_JUMP: 264284 0.528568%
BRANCH_INDIRECT: 0 0%
BRANCH_CONDITIONAL: 2982611 5.96522%
BRANCH_DIRECT_CALL: 0 0%
BRANCH_INDIRECT_CALL: 0 0%
BRANCH_RETURN: 0 0%
BRANCH_OTHER: 0 0%

@sumon_overall_L1D    906247    115536     62726    968970   5249044   5349881
@Sumon_Early_by_class_L1D    904552      1070       616         0
@Sumon_Late_by_class_L1D     22657        80        16         0

@Sumon_Early_by_cycle_L1D     32955     40498     76413    161480    203327    323326     63646      4322       263        17         0         0
@Sumon_Late_by_cycle_L1D     11374      5042      3902      1219       578       631        11         0         0         0         0         0
@Sumon_Early_stream_L1D     32837     40290     76144    161259    203069    322901     63460      4313       262        17         0         0
@Sumon_Early_CS_L1D       106       180       244       163        99       268         3         7         0         0         0         0
@Sumon_Early_CPLX_L1D        10        27        24        57       157       156       183         2         0         0         0         0
@Sumon_Late_stream_L1D     11317      5023      3888      1215       574       629        11         0         0         0         0         0
@Sumon_Late_CS_L1D        53        10        12         2         2         1         0         0         0         0         0         0
@Sumon_Late_CPLX_L1D         3         6         2         2         2         1         0         0         0         0         0         0
@sumon_overall_L2C      2609      1058   1014905   1017561   4207869   4236351
@Sumon_Early_by_class_L2C      2579         0         0         0
@Sumon_Late_by_class_L2C      1019         2         0         0

@Sumon_Early_by_cycle_L2C       256       243       171       373       270      1166        96         0        11        22         1         0
@Sumon_Late_by_cycle_L2C       157       220       235       279        77        90         0         0         0         0         0         0
@Sumon_Early_stream_L2C       253       237       166       369       269      1158        96         0        10        21         0         0
@Sumon_Early_CS_L2C         0         0         0         0         0         0         0         0         0         0         0         0
@Sumon_Early_CPLX_L2C         0         0         0         0         0         0         0         0         0         0         0         0
@Sumon_Late_stream_L2C       126       213       235       278        77        90         0         0         0         0         0         0
@Sumon_Late_CS_L2C         1         0         0         1         0         0         0         0         0         0         0         0
@Sumon_Late_CPLX_L2C         0         0         0         0         0         0         0         0         0         0         0         0
DRAM PAGES: 1048576
Allocated PAGES: 19648
