
*** ChampSim Multicore Out-of-Order Simulator ***

Warmup Instructions: 10000000
Simulation Instructions: 50000000
Number of CPUs: 1
LLC sets: 2048
LLC ways: 16
Off-chip DRAM Size: 4096 MB Channels: 1 Width: 64-bit Data Rate: 6400 MT/s
CPU 0 runs traces/clientserver/server_023.champsimtrace.xz
.xz
CPU 0 Bimodal branch predictor
BTB has LRU replacement policy
ITLB has LRU replacement policy
DTLB has LRU replacement policy
STLB has LRU replacement policy
L1I has LRU replacement policy
IP Table Entries: 256
Initialize DRRIP state for L1D
IP_Table L2 entries: 256
L2C has LRU replacement policy
LLC has LRU replacement policy
Heartbeat CPU 0 instructions: 10000001 cycles: 2874456 heartbeat IPC: 3.47892 cumulative IPC: 3.47892 (Simulation time: 0 hr 18 min 4 sec) 

Warmup complete CPU 0 instructions: 10000001 cycles: 2874456 (Simulation time: 0 hr 18 min 4 sec) 

Heartbeat CPU 0 instructions: 20000000 cycles: 26265822 heartbeat IPC: 0.427508 cumulative IPC: 0.427508 (Simulation time: 0 hr 35 min 36 sec) 
Heartbeat CPU 0 instructions: 30000003 cycles: 49663559 heartbeat IPC: 0.427392 cumulative IPC: 0.42745 (Simulation time: 0 hr 52 min 44 sec) 
Heartbeat CPU 0 instructions: 40000001 cycles: 73251716 heartbeat IPC: 0.423941 cumulative IPC: 0.426274 (Simulation time: 1 hr 10 min 2 sec) 
Heartbeat CPU 0 instructions: 50000000 cycles: 97068631 heartbeat IPC: 0.41987 cumulative IPC: 0.424655 (Simulation time: 1 hr 27 min 28 sec) 
Heartbeat CPU 0 instructions: 60000000 cycles: 120616150 heartbeat IPC: 0.424673 cumulative IPC: 0.424658 (Simulation time: 1 hr 43 min 8 sec) 
Finished CPU 0 instructions: 50000000 cycles: 117741697 cumulative IPC: 0.424658 (Simulation time: 1 hr 43 min 8 sec) 

ChampSim completed all CPUs

Region of Interest Statistics

CPU 0 cumulative IPC: 0.424658 instructions: 50000000 cycles: 117741697
ITLB TOTAL     ACCESS:    8438810  HIT:    7989722  MISS:     449088  HIT %:    94.6783  MISS %:     5.3217   MPKI: 8.98176
ITLB LOAD TRANSLATION ACCESS:    8438810  HIT:    7989722  MISS:     449088  HIT %:    94.6783  MISS %:     5.3217   MPKI: 8.98176
ITLB PREFETCH  REQUESTED:          0  ISSUED:          0  USEFUL:          0  USELESS:          0
ITLB USEFUL LOAD PREFETCHES:          0 PREFETCH ISSUED TO LOWER LEVEL:          0  ACCURACY: -nan
ITLB TIMELY PREFETCHES:          0 LATE PREFETCHES: 0 DROPPED PREFETCHES: 0
ITLB PREFETCHES SAME FILL-ORIGIN LEVEL: 0 DIFFERENT FILL-ORIGIN LEVEL: 0
ITLB AVERAGE MISS LATENCY: 9.06699 cycles
ITLB RQ	ACCESS:    9945969	FORWARD:          0	MERGED:    1395902	TO_CACHE:    8550067

DTLB TOTAL     ACCESS:   12306428  HIT:   11835097  MISS:     471331  HIT %:      96.17  MISS %:    3.82996   MPKI: 9.42662
DTLB LOAD TRANSLATION ACCESS:   12306428  HIT:   11835097  MISS:     471331  HIT %:      96.17  MISS %:    3.82996   MPKI: 9.42662
DTLB PREFETCH  REQUESTED:          0  ISSUED:          0  USEFUL:          0  USELESS:          0
DTLB USEFUL LOAD PREFETCHES:          0 PREFETCH ISSUED TO LOWER LEVEL:          0  ACCURACY: -nan
DTLB TIMELY PREFETCHES:          0 LATE PREFETCHES: 0 DROPPED PREFETCHES: 0
DTLB PREFETCHES SAME FILL-ORIGIN LEVEL: 0 DIFFERENT FILL-ORIGIN LEVEL: 0
DTLB AVERAGE MISS LATENCY: 9.41263 cycles
DTLB RQ	ACCESS:   15413016	FORWARD:          0	MERGED:    3086388	TO_CACHE:   12326628

STLB TOTAL     ACCESS:    1405533  HIT:    1403182  MISS:       2351  HIT %:    99.8327  MISS %:   0.167268   MPKI: 0.04702
STLB LOAD TRANSLATION ACCESS:     920419  HIT:     918068  MISS:       2351  HIT %:    99.7446  MISS %:   0.255427   MPKI: 0.04702
STLB TRANSLATION FROM L1D PREFETCHER ACCESS:     485114  HIT:     485114  MISS:          0  HIT %:        100  MISS %:          0   MPKI: 0
STLB PREFETCH  REQUESTED:          0  ISSUED:          0  USEFUL:          0  USELESS:          0
STLB USEFUL LOAD PREFETCHES:          0 PREFETCH ISSUED TO LOWER LEVEL:          0  ACCURACY: -nan
STLB TIMELY PREFETCHES:          0 LATE PREFETCHES: 0 DROPPED PREFETCHES: 0
STLB PREFETCHES SAME FILL-ORIGIN LEVEL: 0 DIFFERENT FILL-ORIGIN LEVEL: 0
STLB AVERAGE MISS LATENCY: 90.6159 cycles
STLB RQ	ACCESS:    1556166	FORWARD:          0	MERGED:     150633	TO_CACHE:    1405533

STLB Hit, L1D data hit: 0
STLB Hit, L2C data hit: 0
STLB Hit, LLC data hit: 0
STLB Hit, LLC data miss: 0
STLB STLB hints to L2: 0
L1D TOTAL     ACCESS:   15529221  HIT:   14372701  MISS:    1156520  HIT %:    92.5526  MISS %:    7.44738   MPKI: 23.1304
L1D LOAD      ACCESS:    8647862  HIT:    7952260  MISS:     695602  HIT %:    91.9564  MISS %:    8.04363   MPKI: 13.912
L1D RFO       ACCESS:    6315936  HIT:    6046471  MISS:     269465  HIT %:    95.7336  MISS %:    4.26643   MPKI: 5.3893
L1D PREFETCH  ACCESS:     565423  HIT:     373970  MISS:     191453  HIT %:    66.1399  MISS %:    33.8601   MPKI: 3.82906
L1D PREFETCH  REQUESTED:    1271755  ISSUED:    1271755  USEFUL:      63995  USELESS:     127464
L1D USEFUL LOAD PREFETCHES:      63995 PREFETCH ISSUED TO LOWER LEVEL:     244732  ACCURACY: 26.149
L1D TIMELY PREFETCHES:      63995 LATE PREFETCHES: 53068 DROPPED PREFETCHES: 0
L1D PREFETCHES SAME FILL-ORIGIN LEVEL: 244732 DIFFERENT FILL-ORIGIN LEVEL: 0
L1D AVERAGE MISS LATENCY: 2.89127e+06 cycles
L1D RQ	ACCESS:   11936135	FORWARD:          0	MERGED:    3147826	TO_CACHE:    8685618
L1D WQ	ACCESS:    6773043	FORWARD:     102952	MERGED:      45645	TO_CACHE:    6727398
L1D PQ	ACCESS:     636008	FORWARD:          0	MERGED:          0	TO_CACHE:     635747

L1D UNIQUE REGIONS ACCESSED: 0
L1D REGIONS CONFLICTS: 0
L1D Cross Page Prefetch Requests: 0
L1D Same Page Prefetch Requests: 755753
L1D ROI Sum of L1D PQ occupancy: 8156806
L1D PREFETCHES PUSHED FROM L2C: 0
L1I TOTAL     ACCESS:    9525194  HIT:    7001230  MISS:    2523964  HIT %:    73.5022  MISS %:    26.4978   MPKI: 50.4793
L1I LOAD      ACCESS:    9525194  HIT:    7001230  MISS:    2523964  HIT %:    73.5022  MISS %:    26.4978   MPKI: 50.4793
L1I PREFETCH  REQUESTED:          0  ISSUED:          0  USEFUL:          0  USELESS:          0
L1I USEFUL LOAD PREFETCHES:          0 PREFETCH ISSUED TO LOWER LEVEL:          0  ACCURACY: -nan
L1I TIMELY PREFETCHES:          0 LATE PREFETCHES: 0 DROPPED PREFETCHES: 0
L1I PREFETCHES SAME FILL-ORIGIN LEVEL: 0 DIFFERENT FILL-ORIGIN LEVEL: 0
L1I AVERAGE MISS LATENCY: 18.0395 cycles
L1I RQ	ACCESS:   13809320	FORWARD:          0	MERGED:    3863351	TO_CACHE:    9945969

BTB TOTAL     ACCESS:    6178793  HIT:    4426191  MISS:    1752602  HIT %:    71.6352  MISS %:    28.3648   MPKI: 35.052
BTB BRANCH_DIRECT_JUMP	ACCESS:     566390  HIT:     416144  MISS:     150246
BTB BRANCH_INDIRECT	ACCESS:     195613  HIT:     162820  MISS:      32793
BTB BRANCH_CONDITIONAL	ACCESS:    3323726  HIT:    2859052  MISS:     464674
BTB BRANCH_DIRECT_CALL	ACCESS:     884206  HIT:     538148  MISS:     346058
BTB BRANCH_INDIRECT_CALL	ACCESS:     162323  HIT:      91555  MISS:      70768
BTB BRANCH_RETURN	ACCESS:    1046535  HIT:     358472  MISS:     688063
BTB BRANCH_OTHER ACCESS:          0  HIT:          0  MISS:          0

L2C TOTAL     ACCESS:    4668227  HIT:    4000405  MISS:     667822  HIT %:    85.6943  MISS %:    14.3057   MPKI: 13.3564
L2C LOAD      ACCESS:    3166458  HIT:    2741908  MISS:     424550  HIT %:    86.5923  MISS %:    13.4077   MPKI: 8.491
L2C DATA LOAD MPKI: 1.93054
L2C INSTRUCTION LOAD MPKI: 6.56046
L2C RFO       ACCESS:     269169  HIT:     189635  MISS:      79534  HIT %:     70.452  MISS %:     29.548   MPKI: 1.59068
L2C PREFETCH  ACCESS:     778971  HIT:     628089  MISS:     150882  HIT %:    80.6306  MISS %:    19.3694   MPKI: 3.01764
L2C DATA PREFETCH MPKI: 3.01764
L2C INSTRUCTION PREFETCH MPKI: 0
L2C WRITEBACK ACCESS:     451044  HIT:     440237  MISS:      10807  HIT %:     97.604  MISS %:      2.396   MPKI: 0.21614
L2C LOAD TRANSLATION ACCESS:       2585  HIT:        536  MISS:       2049  HIT %:     20.735  MISS %:     79.265   MPKI: 0.04098
L2C PREFETCH  REQUESTED:     547331  ISSUED:     547331  USEFUL:      23824  USELESS:     126981
L2C USEFUL LOAD PREFETCHES:      23824 PREFETCH ISSUED TO LOWER LEVEL:     153299  ACCURACY: 15.5409
L2C TIMELY PREFETCHES:      23824 LATE PREFETCHES: 2417 DROPPED PREFETCHES: 0
L2C PREFETCHES SAME FILL-ORIGIN LEVEL: 75595 DIFFERENT FILL-ORIGIN LEVEL: 0
L2C AVERAGE MISS LATENCY: 37.9497 cycles
L2C RQ	ACCESS:    3438336	FORWARD:          0	MERGED:          0	TO_CACHE:    3438212
L2C WQ	ACCESS:     451044	FORWARD:        140	MERGED:          0	TO_CACHE:     451044
L2C PQ	ACCESS:     792063	FORWARD:          0	MERGED:       6695	TO_CACHE:     785352

L2C Instructions Evicting Data 154200
L2C Translations Evicting Data 1336
L2C Data Evicting Data 177182
L2C Instructions Evicting Instructions 173082
L2C Translations Evicting Instructions 707
L2C Data Evicting Instructions 148484
L2C Instructions Evicting Translations 741
L2C Translations Evicting Translations 6
L2C Data Evicting Translations 1277
L2C Dense regions hint from L2: 0
PSCL5 TOTAL     ACCESS:       2351  HIT:       2351  MISS:          0  HIT %:        100  MISS %:          0   MPKI: 0
PSCL5 LOAD TRANSLATION ACCESS:       2351  HIT:       2351  MISS:          0  HIT %:        100  MISS %:          0   MPKI: 0
PSCL5 PREFETCH  REQUESTED:          0  ISSUED:          0  USEFUL:          0  USELESS:          0
PSCL5 USEFUL LOAD PREFETCHES:          0 PREFETCH ISSUED TO LOWER LEVEL:          0  ACCURACY: -nan
PSCL5 TIMELY PREFETCHES:          0 LATE PREFETCHES: 0 DROPPED PREFETCHES: 0
PSCL5 PREFETCHES SAME FILL-ORIGIN LEVEL: 0 DIFFERENT FILL-ORIGIN LEVEL: 0

PSCL4 TOTAL     ACCESS:       2220  HIT:       2209  MISS:         11  HIT %:    99.5045  MISS %:   0.495495   MPKI: 0.00022
PSCL4 LOAD TRANSLATION ACCESS:       2220  HIT:       2209  MISS:         11  HIT %:    99.5045  MISS %:   0.495495   MPKI: 0.00022
PSCL4 PREFETCH  REQUESTED:          0  ISSUED:          0  USEFUL:          0  USELESS:          0
PSCL4 USEFUL LOAD PREFETCHES:          0 PREFETCH ISSUED TO LOWER LEVEL:          0  ACCURACY: -nan
PSCL4 TIMELY PREFETCHES:          0 LATE PREFETCHES: 0 DROPPED PREFETCHES: 0
PSCL4 PREFETCHES SAME FILL-ORIGIN LEVEL: 0 DIFFERENT FILL-ORIGIN LEVEL: 0

PSCL3 TOTAL     ACCESS:       2336  HIT:       2325  MISS:         11  HIT %:    99.5291  MISS %:    0.47089   MPKI: 0.00022
PSCL3 LOAD TRANSLATION ACCESS:       2336  HIT:       2325  MISS:         11  HIT %:    99.5291  MISS %:    0.47089   MPKI: 0.00022
PSCL3 PREFETCH  REQUESTED:          0  ISSUED:          0  USEFUL:          0  USELESS:          0
PSCL3 USEFUL LOAD PREFETCHES:          0 PREFETCH ISSUED TO LOWER LEVEL:          0  ACCURACY: -nan
PSCL3 TIMELY PREFETCHES:          0 LATE PREFETCHES: 0 DROPPED PREFETCHES: 0
PSCL3 PREFETCHES SAME FILL-ORIGIN LEVEL: 0 DIFFERENT FILL-ORIGIN LEVEL: 0

PSCL2 TOTAL     ACCESS:       2351  HIT:       2136  MISS:        215  HIT %:     90.855  MISS %:    9.14504   MPKI: 0.0043
PSCL2 LOAD TRANSLATION ACCESS:       2351  HIT:       2136  MISS:        215  HIT %:     90.855  MISS %:    9.14504   MPKI: 0.0043
PSCL2 PREFETCH  REQUESTED:          0  ISSUED:          0  USEFUL:          0  USELESS:          0
PSCL2 USEFUL LOAD PREFETCHES:          0 PREFETCH ISSUED TO LOWER LEVEL:          0  ACCURACY: -nan
PSCL2 TIMELY PREFETCHES:          0 LATE PREFETCHES: 0 DROPPED PREFETCHES: 0
PSCL2 PREFETCHES SAME FILL-ORIGIN LEVEL: 0 DIFFERENT FILL-ORIGIN LEVEL: 0

LLC TOTAL     ACCESS:     783793  HIT:     744535  MISS:      39258  HIT %:    94.9913  MISS %:    5.00872   MPKI: 0.78516
LLC LOAD      ACCESS:     422235  HIT:     417016  MISS:       5219  HIT %:     98.764  MISS %:    1.23604   MPKI: 0.10438
LLC RFO       ACCESS:      79431  HIT:      61021  MISS:      18410  HIT %:    76.8227  MISS %:    23.1773   MPKI: 0.3682
LLC PREFETCH  ACCESS:     153298  HIT:     137957  MISS:      15341  HIT %:    89.9927  MISS %:    10.0073   MPKI: 0.30682
LLC WRITEBACK ACCESS:     126780  HIT:     126699  MISS:         81  HIT %:    99.9361  MISS %:  0.0638902   MPKI: 0.00162
LLC LOAD TRANSLATION ACCESS:       2049  HIT:       1842  MISS:        207  HIT %:    89.8975  MISS %:    10.1025   MPKI: 0.00414
LLC PREFETCH  REQUESTED:          0  ISSUED:          0  USEFUL:       1768  USELESS:      11949
LLC USEFUL LOAD PREFETCHES:       1768 PREFETCH ISSUED TO LOWER LEVEL:      15341  ACCURACY: 11.5247
LLC TIMELY PREFETCHES:       1768 LATE PREFETCHES: 0 DROPPED PREFETCHES: 0
LLC PREFETCHES SAME FILL-ORIGIN LEVEL: 0 DIFFERENT FILL-ORIGIN LEVEL: 0
LLC AVERAGE MISS LATENCY: 142.851 cycles
LLC RQ	ACCESS:     503716	FORWARD:          0	MERGED:          0	TO_CACHE:     503715
LLC WQ	ACCESS:     126780	FORWARD:          2	MERGED:          0	TO_CACHE:     126780
LLC PQ	ACCESS:     153299	FORWARD:          0	MERGED:          0	TO_CACHE:     153298

LLC Dense regions hint to LLC: 0

RAW hits: 519559
Loads Generated: 12455694
Loads sent to L1D: 11936135
Stores Generated: 6773032
Stores sent to L1D: 6773043
Major fault: 0 Minor fault: 2262
Allocated PAGES: 2262

stream: 
stream:times selected: 1214655
stream:pref_filled: 122769
stream:pref_useful: 19167
stream:pref_late: 44328
stream:misses: 14084
stream:misses_by_poll: 0

CS: 
CS:times selected: 168184
CS:pref_filled: 73681
CS:pref_useful: 52146
CS:pref_late: 4739
CS:misses: 11289
CS:misses_by_poll: 17

CPLX: 
CPLX:times selected: 1044033
CPLX:pref_filled: 31590
CPLX:pref_useful: 8262
CPLX:pref_late: 3351
CPLX:misses: 123987
CPLX:misses_by_poll: 3

NL_L1: 
NL:times selected: 6648
NL:pref_filled: 714
NL:pref_useful: 105
NL:pref_late: 13
NL:misses: 587
NL:misses_by_poll: 0

total selections: 2433520
total_filled: 191453
total_useful: 63995
total_late: 54545
total_polluted: 20
total_misses_after_warmup: 733363
conflicts: 3048957
Degree Incremented Times: 0
Degree Decremented Times: 126250

L1 IP Table Write Accesses: 5346067
L1 IP Table Read Accesses: 2297110
L1 RST Write Accesses: 1018404
L1 RST Read Accesses: 2036808
L1 CSPT Write Accesses: 1018404
L1 CSPT Read Accesses: 1893709
L1 RR Filter Tag Write Accesses: 636008
L1 RR Filter Tag Read Accesses: 45790006
L1 IP Table Tag Write Accesses: 8685623
L1 IP Table Tag Read Accesses: 8685623
L1 RST Tag Write Accesses: 0
L1 RST Tag Read Accesses: 8170781
L1 RR Filter Write Accesses: 0
L1 RR Filter Read Accesses: 1676548
test: 202643
L2 IP Table Read Accesses: 1210144
L2 IP Table Write Accesses: 1581210
L2 IP Table Tag Read Accesses: 880924
L2 IP Table Tag Write Accesses: 880924

DRAM Statistics
 CHANNEL 0
 RQ ROW_BUFFER_HIT:      16880  ROW_BUFFER_MISS:      22281
 DBUS_CONGESTED:         21
 WQ ROW_BUFFER_HIT:       1389  ROW_BUFFER_MISS:      12499  FULL:          0

 AVG_CONGESTED_CYCLE: 4
 All warmup complete: 2
Channel 0 Bank busy for read cycles: 0
Channel 0 Bank busy for write cycles: 0
Channel 0
Rank 0
0banks busy for read cycles: 114932783
0banks busy for write cycles: 3650
1banks busy for read cycles: 870552
1banks busy for write cycles: 416715
2banks busy for read cycles: 590415
2banks busy for write cycles: 165097
3banks busy for read cycles: 141638
3banks busy for write cycles: 77087
4banks busy for read cycles: 98093
4banks busy for write cycles: 53323
5banks busy for read cycles: 46146
5banks busy for write cycles: 40408
6banks busy for read cycles: 36312
6banks busy for write cycles: 41631
7banks busy for read cycles: 34226
7banks busy for write cycles: 40108
8banks busy for read cycles: 79762
8banks busy for write cycles: 73752

CPU 0 Branch Prediction Accuracy: 91.7383% MPKI: 15.1397 Average ROB Occupancy at Mispredict: 18.152
Branch types
NOT_BRANCH: 40837081 81.6742%
BRANCH_DIRECT_JUMP: 566390 1.13278%
BRANCH_INDIRECT: 195613 0.391226%
BRANCH_CONDITIONAL: 6307490 12.615%
BRANCH_DIRECT_CALL: 884206 1.76841%
BRANCH_INDIRECT_CALL: 162323 0.324646%
BRANCH_RETURN: 1046535 2.09307%
BRANCH_OTHER: 0 0%

@sumon_overall_L1D     63995     53068    127464    191453   1271755   1271755
@Sumon_Early_by_class_L1D     13150     44804      5011        10
@Sumon_Late_by_class_L1D     43551      4538      3037        10

@Sumon_Early_by_cycle_L1D     48993      3835      2294      1063       702      3174       911      1671       402       751        92       107
@Sumon_Late_by_cycle_L1D     51930      1120        13         4         1         0         0         0         0         0         0         0
@Sumon_Early_stream_L1D      5617      1290      1479       916       387       639       713      1123       213       583        88       102
@Sumon_Early_CS_L1D     39129      2334       640        59       156      2126        49       273        16        22         0         0
@Sumon_Early_CPLX_L1D      3858       149       142        72        92       198       126       263        49        59         3         0
@Sumon_Late_stream_L1D     43185       365         1         0         0         0         0         0         0         0         0         0
@Sumon_Late_CS_L1D      3834       687        12         4         1         0         0         0         0         0         0         0
@Sumon_Late_CPLX_L1D      3015        22         0         0         0         0         0         0         0         0         0         0
@sumon_overall_L2C     23824      2417    126981    150882    547331    547331
@Sumon_Early_by_class_L2C      2798       346       576         0
@Sumon_Late_by_class_L2C         0         0         0         0

@Sumon_Early_by_cycle_L2C      4214      1658      1253      1410       780      3385      2297      1380       340      1114       684      5309
@Sumon_Late_by_cycle_L2C      1863       554         0         0         0         0         0         0         0         0         0         0
@Sumon_Early_stream_L2C         1         3         8        52         3         1        10        33        56       159       166      2306
@Sumon_Early_CS_L2C         7        47         0         2         0        13        81         0         5         1         2       188
@Sumon_Early_CPLX_L2C         0         0         1         3         0         0         1         5         7        29        22       508
@Sumon_Late_stream_L2C         0         0         0         0         0         0         0         0         0         0         0         0
@Sumon_Late_CS_L2C         0         0         0         0         0         0         0         0         0         0         0         0
@Sumon_Late_CPLX_L2C         0         0         0         0         0         0         0         0         0         0         0         0
DRAM PAGES: 1048576
Allocated PAGES: 2262
