
*** ChampSim Multicore Out-of-Order Simulator ***

Warmup Instructions: 10000000
Simulation Instructions: 50000000
Number of CPUs: 1
LLC sets: 2048
LLC ways: 16
Off-chip DRAM Size: 4096 MB Channels: 1 Width: 64-bit Data Rate: 6400 MT/s
CPU 0 runs traces/clientserver/server_017.champsimtrace.xz
.xz
CPU 0 Bimodal branch predictor
BTB has LRU replacement policy
ITLB has LRU replacement policy
DTLB has LRU replacement policy
STLB has LRU replacement policy
L1I has LRU replacement policy
IP Table Entries: 256
Initialize DRRIP state for L1D
IP_Table L2 entries: 256
L2C has LRU replacement policy
LLC has LRU replacement policy
Heartbeat CPU 0 instructions: 10000000 cycles: 3153423 heartbeat IPC: 3.17116 cumulative IPC: 3.17116 (Simulation time: 0 hr 19 min 24 sec) 

Warmup complete CPU 0 instructions: 10000004 cycles: 3153424 (Simulation time: 0 hr 19 min 24 sec) 

Heartbeat CPU 0 instructions: 20000000 cycles: 27737317 heartbeat IPC: 0.40677 cumulative IPC: 0.40677 (Simulation time: 0 hr 45 min 9 sec) 
Heartbeat CPU 0 instructions: 30000001 cycles: 52185628 heartbeat IPC: 0.409026 cumulative IPC: 0.407895 (Simulation time: 1 hr 10 min 40 sec) 
Heartbeat CPU 0 instructions: 40000003 cycles: 76676909 heartbeat IPC: 0.408309 cumulative IPC: 0.408033 (Simulation time: 1 hr 36 min 21 sec) 
Heartbeat CPU 0 instructions: 50000001 cycles: 101041582 heartbeat IPC: 0.41043 cumulative IPC: 0.40863 (Simulation time: 1 hr 47 min 15 sec) 
Heartbeat CPU 0 instructions: 60000000 cycles: 125481072 heartbeat IPC: 0.409174 cumulative IPC: 0.408738 (Simulation time: 1 hr 51 min 16 sec) 
Finished CPU 0 instructions: 50000002 cycles: 122327663 cumulative IPC: 0.408738 (Simulation time: 1 hr 51 min 16 sec) 

ChampSim completed all CPUs

Region of Interest Statistics

CPU 0 cumulative IPC: 0.408738 instructions: 50000002 cycles: 122327663
ITLB TOTAL     ACCESS:    8949052  HIT:    8577785  MISS:     371267  HIT %:    95.8513  MISS %:    4.14867   MPKI: 7.42534
ITLB LOAD TRANSLATION ACCESS:    8949052  HIT:    8577785  MISS:     371267  HIT %:    95.8513  MISS %:    4.14867   MPKI: 7.42534
ITLB PREFETCH  REQUESTED:          0  ISSUED:          0  USEFUL:          0  USELESS:          0
ITLB USEFUL LOAD PREFETCHES:          0 PREFETCH ISSUED TO LOWER LEVEL:          0  ACCURACY: -nan
ITLB TIMELY PREFETCHES:          0 LATE PREFETCHES: 0 DROPPED PREFETCHES: 0
ITLB PREFETCHES SAME FILL-ORIGIN LEVEL: 0 DIFFERENT FILL-ORIGIN LEVEL: 0
ITLB AVERAGE MISS LATENCY: 9.52917 cycles
ITLB RQ	ACCESS:   10538994	FORWARD:          0	MERGED:    1469997	TO_CACHE:    9068997

DTLB TOTAL     ACCESS:   11644927  HIT:   11217939  MISS:     426988  HIT %:    96.3333  MISS %:    3.66673   MPKI: 8.53976
DTLB LOAD TRANSLATION ACCESS:   11644927  HIT:   11217939  MISS:     426988  HIT %:    96.3333  MISS %:    3.66673   MPKI: 8.53976
DTLB PREFETCH  REQUESTED:          0  ISSUED:          0  USEFUL:          0  USELESS:          0
DTLB USEFUL LOAD PREFETCHES:          0 PREFETCH ISSUED TO LOWER LEVEL:          0  ACCURACY: -nan
DTLB TIMELY PREFETCHES:          0 LATE PREFETCHES: 0 DROPPED PREFETCHES: 0
DTLB PREFETCHES SAME FILL-ORIGIN LEVEL: 0 DIFFERENT FILL-ORIGIN LEVEL: 0
DTLB AVERAGE MISS LATENCY: 23.9978 cycles
DTLB RQ	ACCESS:   16633708	FORWARD:          0	MERGED:    4916830	TO_CACHE:   11716878

STLB TOTAL     ACCESS:    1471290  HIT:    1432573  MISS:      38717  HIT %:    97.3685  MISS %:     2.6315   MPKI: 0.77434
STLB LOAD TRANSLATION ACCESS:     798255  HIT:     759538  MISS:      38717  HIT %:    95.1498  MISS %:     4.8502   MPKI: 0.77434
STLB TRANSLATION FROM L1D PREFETCHER ACCESS:     673035  HIT:     673035  MISS:          0  HIT %:        100  MISS %:          0   MPKI: 0
STLB PREFETCH  REQUESTED:          0  ISSUED:          0  USEFUL:          0  USELESS:          0
STLB USEFUL LOAD PREFETCHES:          0 PREFETCH ISSUED TO LOWER LEVEL:          0  ACCURACY: -nan
STLB TIMELY PREFETCHES:          0 LATE PREFETCHES: 0 DROPPED PREFETCHES: 0
STLB PREFETCHES SAME FILL-ORIGIN LEVEL: 0 DIFFERENT FILL-ORIGIN LEVEL: 0
STLB AVERAGE MISS LATENCY: 170.23 cycles
STLB RQ	ACCESS:    1560980	FORWARD:          0	MERGED:      89689	TO_CACHE:    1471291

STLB Hit, L1D data hit: 0
STLB Hit, L2C data hit: 0
STLB Hit, LLC data hit: 0
STLB Hit, LLC data miss: 0
STLB STLB hints to L2: 0
L1D TOTAL     ACCESS:   14640788  HIT:   12587162  MISS:    2053626  HIT %:    85.9733  MISS %:    14.0267   MPKI: 41.0725
L1D LOAD      ACCESS:    7968615  HIT:    7321988  MISS:     646627  HIT %:    91.8853  MISS %:    8.11467   MPKI: 12.9325
L1D RFO       ACCESS:    5984612  HIT:    5023991  MISS:     960621  HIT %:    83.9485  MISS %:    16.0515   MPKI: 19.2124
L1D PREFETCH  ACCESS:     687561  HIT:     241183  MISS:     446378  HIT %:    35.0781  MISS %:    64.9219   MPKI: 8.92756
L1D PREFETCH  REQUESTED:    1527139  ISSUED:    1525477  USEFUL:     320585  USELESS:     125793
L1D USEFUL LOAD PREFETCHES:     320585 PREFETCH ISSUED TO LOWER LEVEL:     502006  ACCURACY: 63.8608
L1D TIMELY PREFETCHES:     320585 LATE PREFETCHES: 55579 DROPPED PREFETCHES: 0
L1D PREFETCHES SAME FILL-ORIGIN LEVEL: 502006 DIFFERENT FILL-ORIGIN LEVEL: 0
L1D AVERAGE MISS LATENCY: 1.73661e+06 cycles
L1D RQ	ACCESS:   11498946	FORWARD:          0	MERGED:    3373130	TO_CACHE:    8009254
L1D WQ	ACCESS:    8685053	FORWARD:     116589	MERGED:      60599	TO_CACHE:    8624454
L1D PQ	ACCESS:     762752	FORWARD:          0	MERGED:          0	TO_CACHE:     762725

L1D UNIQUE REGIONS ACCESSED: 0
L1D REGIONS CONFLICTS: 0
L1D Cross Page Prefetch Requests: 0
L1D Same Page Prefetch Requests: 917046
L1D ROI Sum of L1D PQ occupancy: 12765655
L1D PREFETCHES PUSHED FROM L2C: 0
L1I TOTAL     ACCESS:    9822010  HIT:    7434036  MISS:    2387974  HIT %:    75.6875  MISS %:    24.3125   MPKI: 47.7595
L1I LOAD      ACCESS:    9822010  HIT:    7434036  MISS:    2387974  HIT %:    75.6875  MISS %:    24.3125   MPKI: 47.7595
L1I PREFETCH  REQUESTED:          0  ISSUED:          0  USEFUL:          0  USELESS:          0
L1I USEFUL LOAD PREFETCHES:          0 PREFETCH ISSUED TO LOWER LEVEL:          0  ACCURACY: -nan
L1I TIMELY PREFETCHES:          0 LATE PREFETCHES: 0 DROPPED PREFETCHES: 0
L1I PREFETCHES SAME FILL-ORIGIN LEVEL: 0 DIFFERENT FILL-ORIGIN LEVEL: 0
L1I AVERAGE MISS LATENCY: 16.9719 cycles
L1I RQ	ACCESS:   14501578	FORWARD:          0	MERGED:    3962584	TO_CACHE:   10538994

BTB TOTAL     ACCESS:    5360496  HIT:    5095937  MISS:     264559  HIT %:    95.0647  MISS %:    4.93535   MPKI: 5.29118
BTB BRANCH_DIRECT_JUMP	ACCESS:     456444  HIT:     454688  MISS:       1756
BTB BRANCH_INDIRECT	ACCESS:      50083  HIT:      49903  MISS:        180
BTB BRANCH_CONDITIONAL	ACCESS:    3033031  HIT:    3027406  MISS:       5625
BTB BRANCH_DIRECT_CALL	ACCESS:     742789  HIT:     739175  MISS:       3614
BTB BRANCH_INDIRECT_CALL	ACCESS:     167677  HIT:     138914  MISS:      28763
BTB BRANCH_RETURN	ACCESS:     910472  HIT:     685851  MISS:     224621
BTB BRANCH_OTHER ACCESS:          0  HIT:          0  MISS:          0

L2C TOTAL     ACCESS:    6222876  HIT:    4335846  MISS:    1887030  HIT %:    69.6759  MISS %:    30.3241   MPKI: 37.7406
L2C LOAD      ACCESS:    2978983  HIT:    2555080  MISS:     423903  HIT %:    85.7702  MISS %:    14.2298   MPKI: 8.47806
L2C DATA LOAD MPKI: 5.7182
L2C INSTRUCTION LOAD MPKI: 2.75986
L2C RFO       ACCESS:     960396  HIT:      31334  MISS:     929062  HIT %:    3.26261  MISS %:    96.7374   MPKI: 18.5812
L2C PREFETCH  ACCESS:    1095959  HIT:     595443  MISS:     500516  HIT %:    54.3308  MISS %:    45.6692   MPKI: 10.0103
L2C DATA PREFETCH MPKI: 10.0103
L2C INSTRUCTION PREFETCH MPKI: 0
L2C WRITEBACK ACCESS:    1136199  HIT:    1132896  MISS:       3303  HIT %:    99.7093  MISS %:   0.290706   MPKI: 0.06606
L2C LOAD TRANSLATION ACCESS:      51339  HIT:      21093  MISS:      30246  HIT %:    41.0857  MISS %:    58.9143   MPKI: 0.60492
L2C PREFETCH  REQUESTED:     900312  ISSUED:     900311  USEFUL:      66874  USELESS:     433649
L2C USEFUL LOAD PREFETCHES:      66874 PREFETCH ISSUED TO LOWER LEVEL:     503634  ACCURACY: 13.2783
L2C TIMELY PREFETCHES:      66874 LATE PREFETCHES: 3118 DROPPED PREFETCHES: 0
L2C PREFETCHES SAME FILL-ORIGIN LEVEL: 383158 DIFFERENT FILL-ORIGIN LEVEL: 0
L2C AVERAGE MISS LATENCY: 195.154 cycles
L2C RQ	ACCESS:    3990975	FORWARD:          0	MERGED:          0	TO_CACHE:    3990721
L2C WQ	ACCESS:    1136201	FORWARD:        258	MERGED:          0	TO_CACHE:    1136201
L2C PQ	ACCESS:    1402278	FORWARD:          0	MERGED:      82229	TO_CACHE:    1320045

L2C Instructions Evicting Data 127455
L2C Translations Evicting Data 27503
L2C Data Evicting Data 1560985
L2C Instructions Evicting Instructions 8157
L2C Translations Evicting Instructions 2302
L2C Data Evicting Instructions 127164
L2C Instructions Evicting Translations 2381
L2C Translations Evicting Translations 441
L2C Data Evicting Translations 27339
L2C Dense regions hint from L2: 0
PSCL5 TOTAL     ACCESS:      38717  HIT:      38717  MISS:          0  HIT %:        100  MISS %:          0   MPKI: 0
PSCL5 LOAD TRANSLATION ACCESS:      38717  HIT:      38717  MISS:          0  HIT %:        100  MISS %:          0   MPKI: 0
PSCL5 PREFETCH  REQUESTED:          0  ISSUED:          0  USEFUL:          0  USELESS:          0
PSCL5 USEFUL LOAD PREFETCHES:          0 PREFETCH ISSUED TO LOWER LEVEL:          0  ACCURACY: -nan
PSCL5 TIMELY PREFETCHES:          0 LATE PREFETCHES: 0 DROPPED PREFETCHES: 0
PSCL5 PREFETCHES SAME FILL-ORIGIN LEVEL: 0 DIFFERENT FILL-ORIGIN LEVEL: 0

PSCL4 TOTAL     ACCESS:      37697  HIT:      37574  MISS:        123  HIT %:    99.6737  MISS %:   0.326286   MPKI: 0.00246
PSCL4 LOAD TRANSLATION ACCESS:      37697  HIT:      37574  MISS:        123  HIT %:    99.6737  MISS %:   0.326286   MPKI: 0.00246
PSCL4 PREFETCH  REQUESTED:          0  ISSUED:          0  USEFUL:          0  USELESS:          0
PSCL4 USEFUL LOAD PREFETCHES:          0 PREFETCH ISSUED TO LOWER LEVEL:          0  ACCURACY: -nan
PSCL4 TIMELY PREFETCHES:          0 LATE PREFETCHES: 0 DROPPED PREFETCHES: 0
PSCL4 PREFETCHES SAME FILL-ORIGIN LEVEL: 0 DIFFERENT FILL-ORIGIN LEVEL: 0

PSCL3 TOTAL     ACCESS:      38395  HIT:      37871  MISS:        524  HIT %:    98.6352  MISS %:    1.36476   MPKI: 0.01048
PSCL3 LOAD TRANSLATION ACCESS:      38395  HIT:      37871  MISS:        524  HIT %:    98.6352  MISS %:    1.36476   MPKI: 0.01048
PSCL3 PREFETCH  REQUESTED:          0  ISSUED:          0  USEFUL:          0  USELESS:          0
PSCL3 USEFUL LOAD PREFETCHES:          0 PREFETCH ISSUED TO LOWER LEVEL:          0  ACCURACY: -nan
PSCL3 TIMELY PREFETCHES:          0 LATE PREFETCHES: 0 DROPPED PREFETCHES: 0
PSCL3 PREFETCHES SAME FILL-ORIGIN LEVEL: 0 DIFFERENT FILL-ORIGIN LEVEL: 0

PSCL2 TOTAL     ACCESS:      38717  HIT:      26710  MISS:      12007  HIT %:    68.9878  MISS %:    31.0122   MPKI: 0.24014
PSCL2 LOAD TRANSLATION ACCESS:      38717  HIT:      26710  MISS:      12007  HIT %:    68.9878  MISS %:    31.0122   MPKI: 0.24014
PSCL2 PREFETCH  REQUESTED:          0  ISSUED:          0  USEFUL:          0  USELESS:          0
PSCL2 USEFUL LOAD PREFETCHES:          0 PREFETCH ISSUED TO LOWER LEVEL:          0  ACCURACY: -nan
PSCL2 TIMELY PREFETCHES:          0 LATE PREFETCHES: 0 DROPPED PREFETCHES: 0
PSCL2 PREFETCHES SAME FILL-ORIGIN LEVEL: 0 DIFFERENT FILL-ORIGIN LEVEL: 0

LLC TOTAL     ACCESS:    2977793  HIT:    1659236  MISS:    1318557  HIT %:    55.7203  MISS %:    44.2797   MPKI: 26.3711
LLC LOAD      ACCESS:     421440  HIT:     290450  MISS:     130990  HIT %:    68.9185  MISS %:    31.0815   MPKI: 2.6198
LLC RFO       ACCESS:     928401  HIT:     138472  MISS:     789929  HIT %:    14.9151  MISS %:    85.0849   MPKI: 15.7986
LLC PREFETCH  ACCESS:     503634  HIT:     124014  MISS:     379620  HIT %:    24.6238  MISS %:    75.3762   MPKI: 7.5924
LLC WRITEBACK ACCESS:    1094072  HIT:    1092705  MISS:       1367  HIT %:    99.8751  MISS %:   0.124946   MPKI: 0.02734
LLC LOAD TRANSLATION ACCESS:      30246  HIT:      13595  MISS:      16651  HIT %:    44.9481  MISS %:    55.0519   MPKI: 0.33302
LLC PREFETCH  REQUESTED:          0  ISSUED:          0  USEFUL:       8879  USELESS:     371049
LLC USEFUL LOAD PREFETCHES:       8879 PREFETCH ISSUED TO LOWER LEVEL:     379620  ACCURACY: 2.33892
LLC TIMELY PREFETCHES:       8879 LATE PREFETCHES: 0 DROPPED PREFETCHES: 0
LLC PREFETCHES SAME FILL-ORIGIN LEVEL: 0 DIFFERENT FILL-ORIGIN LEVEL: 0
LLC AVERAGE MISS LATENCY: 234.888 cycles
LLC RQ	ACCESS:    1380094	FORWARD:          0	MERGED:          0	TO_CACHE:    1380088
LLC WQ	ACCESS:    1094073	FORWARD:          6	MERGED:          0	TO_CACHE:    1094073
LLC PQ	ACCESS:     503634	FORWARD:          0	MERGED:          0	TO_CACHE:     503634

LLC Dense regions hint to LLC: 0

RAW hits: 887023
Loads Generated: 12385973
Loads sent to L1D: 11498946
Stores Generated: 8685030
Stores sent to L1D: 8685053
Major fault: 0 Minor fault: 17732
Allocated PAGES: 17732

stream: 
stream:times selected: 2324773
stream:pref_filled: 107860
stream:pref_useful: 11992
stream:pref_late: 3784
stream:misses: 20180
stream:misses_by_poll: 0

CS: 
CS:times selected: 2000876
CS:pref_filled: 383143
CS:pref_useful: 365746
CS:pref_late: 50278
CS:misses: 63961
CS:misses_by_poll: 667

CPLX: 
CPLX:times selected: 316689
CPLX:pref_filled: 34884
CPLX:pref_useful: 998
CPLX:pref_late: 195
CPLX:misses: 61582
CPLX:misses_by_poll: 24

NL_L1: 
NL:times selected: 1035
NL:pref_filled: 393
NL:pref_useful: 21
NL:pref_late: 6
NL:misses: 453
NL:misses_by_poll: 0

total selections: 4643373
total_filled: 446378
total_useful: 320585
total_late: 56188
total_polluted: 691
total_misses_after_warmup: 687267
conflicts: 2650691
Degree Incremented Times: 67453
Degree Decremented Times: 162519

L1 IP Table Write Accesses: 5184695
L1 IP Table Read Accesses: 2534004
L1 RST Write Accesses: 1932537
L1 RST Read Accesses: 3865074
L1 CSPT Write Accesses: 1932537
L1 CSPT Read Accesses: 2194116
L1 RR Filter Tag Write Accesses: 764414
L1 RR Filter Tag Read Accesses: 213122008
L1 IP Table Tag Write Accesses: 8009255
L1 IP Table Tag Read Accesses: 8009255
L1 RST Tag Write Accesses: 0
L1 RST Tag Read Accesses: 17724513
L1 RR Filter Write Accesses: 0
L1 RR Filter Read Accesses: 6946033
test: 163467
L2 IP Table Read Accesses: 1330432
L2 IP Table Write Accesses: 1471956
L2 IP Table Tag Read Accesses: 869008
L2 IP Table Tag Write Accesses: 869008

DRAM Statistics
 CHANNEL 0
 RQ ROW_BUFFER_HIT:     430187  ROW_BUFFER_MISS:     886925
 DBUS_CONGESTED:        508
 WQ ROW_BUFFER_HIT:     272857  ROW_BUFFER_MISS:     602375  FULL:          0

 AVG_CONGESTED_CYCLE: 3
 All warmup complete: 2
Channel 0 Bank busy for read cycles: 0
Channel 0 Bank busy for write cycles: 0
Channel 0
Rank 0
0banks busy for read cycles: 40560280
0banks busy for write cycles: 50342
1banks busy for read cycles: 15549397
1banks busy for write cycles: 6391456
2banks busy for read cycles: 10498023
2banks busy for write cycles: 3874986
3banks busy for read cycles: 6499355
3banks busy for write cycles: 2684999
4banks busy for read cycles: 6687785
4banks busy for write cycles: 2070651
5banks busy for read cycles: 2238683
5banks busy for write cycles: 1629137
6banks busy for read cycles: 1997498
6banks busy for write cycles: 1429088
7banks busy for read cycles: 1611980
7banks busy for write cycles: 2005994
8banks busy for read cycles: 5077254
8banks busy for write cycles: 11470756

CPU 0 Branch Prediction Accuracy: 96.293% MPKI: 6.14724 Average ROB Occupancy at Mispredict: 52.4181
Branch types
NOT_BRANCH: 41708620 83.4172%
BRANCH_DIRECT_JUMP: 456444 0.912888%
BRANCH_INDIRECT: 50083 0.100166%
BRANCH_CONDITIONAL: 5963860 11.9277%
BRANCH_DIRECT_CALL: 742789 1.48558%
BRANCH_INDIRECT_CALL: 167677 0.335354%
BRANCH_RETURN: 910472 1.82094%
BRANCH_OTHER: 0 0%

@sumon_overall_L1D    320585     55579    125793    446378   1525477   1527139
@Sumon_Early_by_class_L1D      9174    309265       785         5
@Sumon_Late_by_class_L1D      3265     50267       136         5

@Sumon_Early_by_cycle_L1D    162476    141927     12469      1184       196       730       218       125       360       855        44         1
@Sumon_Late_by_cycle_L1D     35328     15899      4146       206         0         0         0         0         0         0         0         0
@Sumon_Early_stream_L1D      7214       327       100        24        45       530        99        52        40       701        41         1
@Sumon_Early_CS_L1D    153856    141389     12296      1089       109        42        40        25       315       104         0         0
@Sumon_Early_CPLX_L1D       284        77        38        59        38       144        69        29         4        41         2         0
@Sumon_Late_stream_L1D      1406      1854         5         0         0         0         0         0         0         0         0         0
@Sumon_Late_CS_L1D     32928     12992      4141       206         0         0         0         0         0         0         0         0
@Sumon_Late_CPLX_L1D        43        93         0         0         0         0         0         0         0         0         0         0
@sumon_overall_L2C     66874      3118    433649    500516    900311    900312
@Sumon_Early_by_class_L2C      1841      4220       643         0
@Sumon_Late_by_class_L2C         0       564         0         0

@Sumon_Early_by_cycle_L2C      8442      8538      6720      2402      1793     13275      2953       796      5959      2836      3100     10060
@Sumon_Late_by_cycle_L2C      1928      1182         8         0         0         0         0         0         0         0         0         0
@Sumon_Early_stream_L2C         4         3         3         7         0        27        37        17        20       342       402       979
@Sumon_Early_CS_L2C       784      1229       774       174        13        60        67       118       408       179       122       292
@Sumon_Early_CPLX_L2C         0         9         4         8        10        58        67       146         9        28        34       270
@Sumon_Late_stream_L2C         0         0         0         0         0         0         0         0         0         0         0         0
@Sumon_Late_CS_L2C       285       273         6         0         0         0         0         0         0         0         0         0
@Sumon_Late_CPLX_L2C         0         0         0         0         0         0         0         0         0         0         0         0
DRAM PAGES: 1048576
Allocated PAGES: 17732
