
*** ChampSim Multicore Out-of-Order Simulator ***

Warmup Instructions: 10000000
Simulation Instructions: 50000000
Number of CPUs: 1
LLC sets: 2048
LLC ways: 16
Off-chip DRAM Size: 4096 MB Channels: 1 Width: 64-bit Data Rate: 6400 MT/s
CPU 0 runs traces/clientserver/server_009.champsimtrace.xz
.xz
CPU 0 Bimodal branch predictor
BTB has LRU replacement policy
ITLB has LRU replacement policy
DTLB has LRU replacement policy
STLB has LRU replacement policy
L1I has LRU replacement policy
IP Table Entries: 256
Initialize DRRIP state for L1D
IP_Table L2 entries: 256
L2C has LRU replacement policy
LLC has LRU replacement policy
Heartbeat CPU 0 instructions: 10000001 cycles: 2771606 heartbeat IPC: 3.60802 cumulative IPC: 3.60802 (Simulation time: 0 hr 16 min 7 sec) 

Warmup complete CPU 0 instructions: 10000001 cycles: 2771606 (Simulation time: 0 hr 16 min 8 sec) 

Heartbeat CPU 0 instructions: 20000003 cycles: 23498626 heartbeat IPC: 0.482462 cumulative IPC: 0.482462 (Simulation time: 0 hr 32 min 46 sec) 
Heartbeat CPU 0 instructions: 30000002 cycles: 44428467 heartbeat IPC: 0.477787 cumulative IPC: 0.480113 (Simulation time: 0 hr 49 min 50 sec) 
Heartbeat CPU 0 instructions: 40000000 cycles: 65863990 heartbeat IPC: 0.466515 cumulative IPC: 0.475493 (Simulation time: 1 hr 6 min 40 sec) 
Heartbeat CPU 0 instructions: 50000002 cycles: 86483816 heartbeat IPC: 0.48497 cumulative IPC: 0.477828 (Simulation time: 1 hr 23 min 34 sec) 
Heartbeat CPU 0 instructions: 60000001 cycles: 111906842 heartbeat IPC: 0.393344 cumulative IPC: 0.458147 (Simulation time: 1 hr 43 min 27 sec) 
Finished CPU 0 instructions: 50000000 cycles: 109135236 cumulative IPC: 0.458147 (Simulation time: 1 hr 43 min 27 sec) 

ChampSim completed all CPUs

Region of Interest Statistics

CPU 0 cumulative IPC: 0.458147 instructions: 50000000 cycles: 109135236
ITLB TOTAL     ACCESS:    8298238  HIT:    8113085  MISS:     185153  HIT %:    97.7688  MISS %:    2.23123   MPKI: 3.70306
ITLB LOAD TRANSLATION ACCESS:    8298238  HIT:    8113085  MISS:     185153  HIT %:    97.7688  MISS %:    2.23123   MPKI: 3.70306
ITLB PREFETCH  REQUESTED:          0  ISSUED:          0  USEFUL:          0  USELESS:          0
ITLB USEFUL LOAD PREFETCHES:          0 PREFETCH ISSUED TO LOWER LEVEL:          0  ACCURACY: -nan
ITLB TIMELY PREFETCHES:          0 LATE PREFETCHES: 0 DROPPED PREFETCHES: 0
ITLB PREFETCHES SAME FILL-ORIGIN LEVEL: 0 DIFFERENT FILL-ORIGIN LEVEL: 0
ITLB AVERAGE MISS LATENCY: 17.4552 cycles
ITLB RQ	ACCESS:   10025149	FORWARD:          0	MERGED:    1679126	TO_CACHE:    8346023

DTLB TOTAL     ACCESS:   10469498  HIT:    9427248  MISS:    1042250  HIT %:    90.0449  MISS %:    9.95511   MPKI: 20.845
DTLB LOAD TRANSLATION ACCESS:   10469498  HIT:    9427248  MISS:    1042250  HIT %:    90.0449  MISS %:    9.95511   MPKI: 20.845
DTLB PREFETCH  REQUESTED:          0  ISSUED:          0  USEFUL:          0  USELESS:          0
DTLB USEFUL LOAD PREFETCHES:          0 PREFETCH ISSUED TO LOWER LEVEL:          0  ACCURACY: -nan
DTLB TIMELY PREFETCHES:          0 LATE PREFETCHES: 0 DROPPED PREFETCHES: 0
DTLB PREFETCHES SAME FILL-ORIGIN LEVEL: 0 DIFFERENT FILL-ORIGIN LEVEL: 0
DTLB AVERAGE MISS LATENCY: 12.6759 cycles
DTLB RQ	ACCESS:   13111073	FORWARD:          0	MERGED:    2604804	TO_CACHE:   10506269

STLB TOTAL     ACCESS:    1970726  HIT:    1859615  MISS:     111111  HIT %:    94.3619  MISS %:    5.63807   MPKI: 2.22222
STLB LOAD TRANSLATION ACCESS:    1227403  HIT:    1116292  MISS:     111111  HIT %:    90.9475  MISS %:    9.05253   MPKI: 2.22222
STLB TRANSLATION FROM L1D PREFETCHER ACCESS:     743323  HIT:     743323  MISS:          0  HIT %:        100  MISS %:          0   MPKI: 0
STLB PREFETCH  REQUESTED:          0  ISSUED:          0  USEFUL:          0  USELESS:          0
STLB USEFUL LOAD PREFETCHES:          0 PREFETCH ISSUED TO LOWER LEVEL:          0  ACCURACY: -nan
STLB TIMELY PREFETCHES:          0 LATE PREFETCHES: 0 DROPPED PREFETCHES: 0
STLB PREFETCHES SAME FILL-ORIGIN LEVEL: 0 DIFFERENT FILL-ORIGIN LEVEL: 0
STLB AVERAGE MISS LATENCY: 48.3937 cycles
STLB RQ	ACCESS:    2675663	FORWARD:          0	MERGED:     704937	TO_CACHE:    1970726

STLB Hit, L1D data hit: 0
STLB Hit, L2C data hit: 0
STLB Hit, LLC data hit: 0
STLB Hit, LLC data miss: 0
STLB STLB hints to L2: 0
L1D TOTAL     ACCESS:   14405595  HIT:   12381654  MISS:    2023941  HIT %:    85.9503  MISS %:    14.0497   MPKI: 40.4788
L1D LOAD      ACCESS:    8123216  HIT:    7105546  MISS:    1017670  HIT %:    87.4721  MISS %:    12.5279   MPKI: 20.3534
L1D RFO       ACCESS:    4853826  HIT:    4758265  MISS:      95561  HIT %:    98.0312  MISS %:    1.96878   MPKI: 1.91122
L1D PREFETCH  ACCESS:    1428553  HIT:     517843  MISS:     910710  HIT %:    36.2495  MISS %:    63.7505   MPKI: 18.2142
L1D PREFETCH  REQUESTED:    2896781  ISSUED:    2896662  USEFUL:      29844  USELESS:     880724
L1D USEFUL LOAD PREFETCHES:      29844 PREFETCH ISSUED TO LOWER LEVEL:     919753  ACCURACY: 3.24478
L1D TIMELY PREFETCHES:      29844 LATE PREFETCHES: 8923 DROPPED PREFETCHES: 0
L1D PREFETCHES SAME FILL-ORIGIN LEVEL: 919753 DIFFERENT FILL-ORIGIN LEVEL: 0
L1D AVERAGE MISS LATENCY: 323336 cycles
L1D RQ	ACCESS:   11458982	FORWARD:          0	MERGED:    3234479	TO_CACHE:    8148722
L1D WQ	ACCESS:    5045877	FORWARD:      75923	MERGED:      83526	TO_CACHE:    4962351
L1D PQ	ACCESS:    1448402	FORWARD:          0	MERGED:          0	TO_CACHE:    1448260

L1D UNIQUE REGIONS ACCESSED: 0
L1D REGIONS CONFLICTS: 0
L1D Cross Page Prefetch Requests: 0
L1D Same Page Prefetch Requests: 1495997
L1D ROI Sum of L1D PQ occupancy: 18987238
L1D PREFETCHES PUSHED FROM L2C: 0
L1I TOTAL     ACCESS:    9635377  HIT:    8421296  MISS:    1214081  HIT %:    87.3998  MISS %:    12.6002   MPKI: 24.2816
L1I LOAD      ACCESS:    9635377  HIT:    8421296  MISS:    1214081  HIT %:    87.3998  MISS %:    12.6002   MPKI: 24.2816
L1I PREFETCH  REQUESTED:          0  ISSUED:          0  USEFUL:          0  USELESS:          0
L1I USEFUL LOAD PREFETCHES:          0 PREFETCH ISSUED TO LOWER LEVEL:          0  ACCURACY: -nan
L1I TIMELY PREFETCHES:          0 LATE PREFETCHES: 0 DROPPED PREFETCHES: 0
L1I PREFETCHES SAME FILL-ORIGIN LEVEL: 0 DIFFERENT FILL-ORIGIN LEVEL: 0
L1I AVERAGE MISS LATENCY: 31.0137 cycles
L1I RQ	ACCESS:   14396130	FORWARD:          0	MERGED:    4370981	TO_CACHE:   10025149

BTB TOTAL     ACCESS:    5173686  HIT:    4398171  MISS:     775515  HIT %:    85.0104  MISS %:    14.9896   MPKI: 15.5103
BTB BRANCH_DIRECT_JUMP	ACCESS:     463492  HIT:     404158  MISS:      59334
BTB BRANCH_INDIRECT	ACCESS:     174870  HIT:     123350  MISS:      51520
BTB BRANCH_CONDITIONAL	ACCESS:    2812699  HIT:    2571063  MISS:     241636
BTB BRANCH_DIRECT_CALL	ACCESS:     679008  HIT:     567416  MISS:     111592
BTB BRANCH_INDIRECT_CALL	ACCESS:     165073  HIT:     152920  MISS:      12153
BTB BRANCH_RETURN	ACCESS:     878544  HIT:     579264  MISS:     299280
BTB BRANCH_OTHER ACCESS:          0  HIT:          0  MISS:          0

L2C TOTAL     ACCESS:    4046613  HIT:    2795296  MISS:    1251317  HIT %:    69.0774  MISS %:    30.9226   MPKI: 25.0263
L2C LOAD      ACCESS:    2222800  HIT:    1365693  MISS:     857107  HIT %:    61.4402  MISS %:    38.5598   MPKI: 17.1421
L2C DATA LOAD MPKI: 4.72426
L2C INSTRUCTION LOAD MPKI: 12.4179
L2C RFO       ACCESS:      95398  HIT:      47470  MISS:      47928  HIT %:      49.76  MISS %:      50.24   MPKI: 0.95856
L2C PREFETCH  ACCESS:    1346730  HIT:    1073886  MISS:     272844  HIT %:    79.7403  MISS %:    20.2597   MPKI: 5.45688
L2C DATA PREFETCH MPKI: 5.45688
L2C INSTRUCTION PREFETCH MPKI: 0
L2C WRITEBACK ACCESS:     241081  HIT:     231997  MISS:       9084  HIT %:     96.232  MISS %:    3.76803   MPKI: 0.18168
L2C LOAD TRANSLATION ACCESS:     140604  HIT:      76250  MISS:      64354  HIT %:    54.2303  MISS %:    45.7697   MPKI: 1.28708
L2C PREFETCH  REQUESTED:     453045  ISSUED:     453045  USEFUL:      71506  USELESS:     200411
L2C USEFUL LOAD PREFETCHES:      71506 PREFETCH ISSUED TO LOWER LEVEL:     278368  ACCURACY: 25.6876
L2C TIMELY PREFETCHES:      71506 LATE PREFETCHES: 5524 DROPPED PREFETCHES: 0
L2C PREFETCHES SAME FILL-ORIGIN LEVEL: 210525 DIFFERENT FILL-ORIGIN LEVEL: 0
L2C AVERAGE MISS LATENCY: 41.6518 cycles
L2C RQ	ACCESS:    2458874	FORWARD:          0	MERGED:          0	TO_CACHE:    2458802
L2C WQ	ACCESS:     241081	FORWARD:         83	MERGED:          0	TO_CACHE:     241081
L2C PQ	ACCESS:    1372798	FORWARD:          0	MERGED:       5012	TO_CACHE:    1367775

L2C Instructions Evicting Data 282577
L2C Translations Evicting Data 29966
L2C Data Evicting Data 248732
L2C Instructions Evicting Instructions 306078
L2C Translations Evicting Instructions 31479
L2C Data Evicting Instructions 279485
L2C Instructions Evicting Translations 32239
L2C Translations Evicting Translations 2909
L2C Data Evicting Translations 28768
L2C Dense regions hint from L2: 0
PSCL5 TOTAL     ACCESS:     111111  HIT:     111111  MISS:          0  HIT %:        100  MISS %:          0   MPKI: 0
PSCL5 LOAD TRANSLATION ACCESS:     111111  HIT:     111111  MISS:          0  HIT %:        100  MISS %:          0   MPKI: 0
PSCL5 PREFETCH  REQUESTED:          0  ISSUED:          0  USEFUL:          0  USELESS:          0
PSCL5 USEFUL LOAD PREFETCHES:          0 PREFETCH ISSUED TO LOWER LEVEL:          0  ACCURACY: -nan
PSCL5 TIMELY PREFETCHES:          0 LATE PREFETCHES: 0 DROPPED PREFETCHES: 0
PSCL5 PREFETCHES SAME FILL-ORIGIN LEVEL: 0 DIFFERENT FILL-ORIGIN LEVEL: 0

PSCL4 TOTAL     ACCESS:     103015  HIT:     102698  MISS:        317  HIT %:    99.6923  MISS %:   0.307722   MPKI: 0.00634
PSCL4 LOAD TRANSLATION ACCESS:     103015  HIT:     102698  MISS:        317  HIT %:    99.6923  MISS %:   0.307722   MPKI: 0.00634
PSCL4 PREFETCH  REQUESTED:          0  ISSUED:          0  USEFUL:          0  USELESS:          0
PSCL4 USEFUL LOAD PREFETCHES:          0 PREFETCH ISSUED TO LOWER LEVEL:          0  ACCURACY: -nan
PSCL4 TIMELY PREFETCHES:          0 LATE PREFETCHES: 0 DROPPED PREFETCHES: 0
PSCL4 PREFETCHES SAME FILL-ORIGIN LEVEL: 0 DIFFERENT FILL-ORIGIN LEVEL: 0

PSCL3 TOTAL     ACCESS:     110286  HIT:     109402  MISS:        884  HIT %:    99.1984  MISS %:   0.801552   MPKI: 0.01768
PSCL3 LOAD TRANSLATION ACCESS:     110286  HIT:     109402  MISS:        884  HIT %:    99.1984  MISS %:   0.801552   MPKI: 0.01768
PSCL3 PREFETCH  REQUESTED:          0  ISSUED:          0  USEFUL:          0  USELESS:          0
PSCL3 USEFUL LOAD PREFETCHES:          0 PREFETCH ISSUED TO LOWER LEVEL:          0  ACCURACY: -nan
PSCL3 TIMELY PREFETCHES:          0 LATE PREFETCHES: 0 DROPPED PREFETCHES: 0
PSCL3 PREFETCHES SAME FILL-ORIGIN LEVEL: 0 DIFFERENT FILL-ORIGIN LEVEL: 0

PSCL2 TOTAL     ACCESS:     111111  HIT:      82745  MISS:      28366  HIT %:    74.4706  MISS %:    25.5294   MPKI: 0.56732
PSCL2 LOAD TRANSLATION ACCESS:     111111  HIT:      82745  MISS:      28366  HIT %:    74.4706  MISS %:    25.5294   MPKI: 0.56732
PSCL2 PREFETCH  REQUESTED:          0  ISSUED:          0  USEFUL:          0  USELESS:          0
PSCL2 USEFUL LOAD PREFETCHES:          0 PREFETCH ISSUED TO LOWER LEVEL:          0  ACCURACY: -nan
PSCL2 TIMELY PREFETCHES:          0 LATE PREFETCHES: 0 DROPPED PREFETCHES: 0
PSCL2 PREFETCHES SAME FILL-ORIGIN LEVEL: 0 DIFFERENT FILL-ORIGIN LEVEL: 0

LLC TOTAL     ACCESS:    1398488  HIT:    1302609  MISS:      95879  HIT %:    93.1441  MISS %:     6.8559   MPKI: 1.91758
LLC LOAD      ACCESS:     851743  HIT:     819472  MISS:      32271  HIT %:    96.2112  MISS %:    3.78882   MPKI: 0.64542
LLC RFO       ACCESS:      47768  HIT:      37833  MISS:       9935  HIT %:    79.2016  MISS %:    20.7984   MPKI: 0.1987
LLC PREFETCH  ACCESS:     278368  HIT:     227134  MISS:      51234  HIT %:    81.5949  MISS %:    18.4051   MPKI: 1.02468
LLC WRITEBACK ACCESS:     156255  HIT:     156186  MISS:         69  HIT %:    99.9558  MISS %:  0.0441586   MPKI: 0.00138
LLC LOAD TRANSLATION ACCESS:      64354  HIT:      61984  MISS:       2370  HIT %:    96.3172  MISS %:    3.68275   MPKI: 0.0474
LLC PREFETCH  REQUESTED:          0  ISSUED:          0  USEFUL:       3997  USELESS:      46800
LLC USEFUL LOAD PREFETCHES:       3997 PREFETCH ISSUED TO LOWER LEVEL:      51234  ACCURACY: 7.80146
LLC TIMELY PREFETCHES:       3997 LATE PREFETCHES: 0 DROPPED PREFETCHES: 0
LLC PREFETCHES SAME FILL-ORIGIN LEVEL: 0 DIFFERENT FILL-ORIGIN LEVEL: 0
LLC AVERAGE MISS LATENCY: 157.252 cycles
LLC RQ	ACCESS:     963865	FORWARD:          0	MERGED:          0	TO_CACHE:     963865
LLC WQ	ACCESS:     156255	FORWARD:          0	MERGED:          0	TO_CACHE:     156255
LLC PQ	ACCESS:     278368	FORWARD:          0	MERGED:          0	TO_CACHE:     278368

LLC Dense regions hint to LLC: 0

RAW hits: 772785
Loads Generated: 12231765
Loads sent to L1D: 11458982
Stores Generated: 5045874
Stores sent to L1D: 5045877
Major fault: 0 Minor fault: 5580
Allocated PAGES: 5580

stream: 
stream:times selected: 1221328
stream:pref_filled: 603315
stream:pref_useful: 21365
stream:pref_late: 2970
stream:misses: 224160
stream:misses_by_poll: 0

CS: 
CS:times selected: 249493
CS:pref_filled: 109915
CS:pref_useful: 8798
CS:pref_late: 2456
CS:misses: 16833
CS:misses_by_poll: 0

CPLX: 
CPLX:times selected: 1116459
CPLX:pref_filled: 209844
CPLX:pref_useful: 3815
CPLX:pref_late: 1261
CPLX:misses: 247433
CPLX:misses_by_poll: 7

NL_L1: 
NL:times selected: 7568
NL:pref_filled: 5521
NL:pref_useful: 167
NL:pref_late: 16
NL:misses: 446
NL:misses_by_poll: 0

total selections: 2594848
total_filled: 910710
total_useful: 29844
total_late: 9511
total_polluted: 7
total_misses_after_warmup: 1043178
conflicts: 2383987
Degree Incremented Times: 2
Degree Decremented Times: 170093

L1 IP Table Write Accesses: 5231471
L1 IP Table Read Accesses: 2847484
L1 RST Write Accesses: 1154176
L1 RST Read Accesses: 2308352
L1 CSPT Write Accesses: 1154176
L1 CSPT Read Accesses: 2209237
L1 RR Filter Tag Write Accesses: 1448521
L1 RR Filter Tag Read Accesses: 61075957
L1 IP Table Tag Write Accesses: 8148724
L1 IP Table Tag Read Accesses: 8148724
L1 RST Tag Write Accesses: 0
L1 RST Tag Read Accesses: 10164382
L1 RR Filter Write Accesses: 0
L1 RR Filter Read Accesses: 1989402
test: 573901
L2 IP Table Read Accesses: 3383584
L2 IP Table Write Accesses: 3219552
L2 IP Table Tag Read Accesses: 1923073
L2 IP Table Tag Write Accesses: 1923073

DRAM Statistics
 CHANNEL 0
 RQ ROW_BUFFER_HIT:      17361  ROW_BUFFER_MISS:      78448
 DBUS_CONGESTED:         59
 WQ ROW_BUFFER_HIT:       7256  ROW_BUFFER_MISS:      45478  FULL:          0

 AVG_CONGESTED_CYCLE: 4
 All warmup complete: 2
Channel 0 Bank busy for read cycles: 0
Channel 0 Bank busy for write cycles: 0
Channel 0
Rank 0
0banks busy for read cycles: 94475326
0banks busy for write cycles: 27067
1banks busy for read cycles: 6756984
1banks busy for write cycles: 3602242
2banks busy for read cycles: 1732994
2banks busy for write cycles: 953196
3banks busy for read cycles: 423893
3banks busy for write cycles: 339962
4banks busy for read cycles: 151291
4banks busy for write cycles: 184690
5banks busy for read cycles: 45664
5banks busy for write cycles: 129383
6banks busy for read cycles: 21669
6banks busy for write cycles: 97526
7banks busy for read cycles: 8996
7banks busy for write cycles: 83673
8banks busy for read cycles: 14871
8banks busy for write cycles: 85810

CPU 0 Branch Prediction Accuracy: 93.4981% MPKI: 12.6299 Average ROB Occupancy at Mispredict: 24.6256
Branch types
NOT_BRANCH: 40287182 80.5744%
BRANCH_DIRECT_JUMP: 463492 0.926984%
BRANCH_INDIRECT: 174870 0.34974%
BRANCH_CONDITIONAL: 7351543 14.7031%
BRANCH_DIRECT_CALL: 679008 1.35802%
BRANCH_INDIRECT_CALL: 165073 0.330146%
BRANCH_RETURN: 878544 1.75709%
BRANCH_OTHER: 0 0%

@sumon_overall_L1D     29844      8923    880724    910710   2896662   2896781
@Sumon_Early_by_class_L1D     18256      6568      3326        15
@Sumon_Late_by_class_L1D      2762      2187      1206        15

@Sumon_Early_by_cycle_L1D     11562      2606      4966      1791      1630      3091      1129      1095      1080       795        73        26
@Sumon_Late_by_cycle_L1D      8422       479        18         4         0         0         0         0         0         0         0         0
@Sumon_Early_stream_L1D      7567      1582      1687      1274      1103      2000       790       855       734       609        38        17
@Sumon_Early_CS_L1D      3202       194      2026       107       210       557       130        67        31        36         7         1
@Sumon_Early_CPLX_L1D       371       555      1026       212       122       363       158       143       211       137        23         5
@Sumon_Late_stream_L1D      2522       237         3         0         0         0         0         0         0         0         0         0
@Sumon_Late_CS_L1D      1980       191        14         2         0         0         0         0         0         0         0         0
@Sumon_Late_CPLX_L1D      1178        25         1         2         0         0         0         0         0         0         0         0
@sumon_overall_L2C     71506      5524    200411    272844    453045    453045
@Sumon_Early_by_class_L2C      2368       628       922         0
@Sumon_Late_by_class_L2C         0         0         0         0

@Sumon_Early_by_cycle_L2C     11329      8023      8637      5376      3824     10034      5115      3658      3023      2948      1875      7664
@Sumon_Late_by_cycle_L2C      4160      1362         2         0         0         0         0         0         0         0         0         0
@Sumon_Early_stream_L2C         3        15        47        55         7        65       133        99       341       224       141      1238
@Sumon_Early_CS_L2C         0         2       193         1         3        18        17        12         8        11        35       328
@Sumon_Early_CPLX_L2C         4         2         7        13         7        61        24        26       122       119        88       449
@Sumon_Late_stream_L2C         0         0         0         0         0         0         0         0         0         0         0         0
@Sumon_Late_CS_L2C         0         0         0         0         0         0         0         0         0         0         0         0
@Sumon_Late_CPLX_L2C         0         0         0         0         0         0         0         0         0         0         0         0
DRAM PAGES: 1048576
Allocated PAGES: 5580
