
*** ChampSim Multicore Out-of-Order Simulator ***

Warmup Instructions: 10000000
Simulation Instructions: 50000000
Number of CPUs: 1
LLC sets: 2048
LLC ways: 16
Off-chip DRAM Size: 4096 MB Channels: 1 Width: 64-bit Data Rate: 6400 MT/s
CPU 0 runs traces/clientserver/server_004.champsimtrace.xz
.xz
CPU 0 Bimodal branch predictor
BTB has LRU replacement policy
ITLB has LRU replacement policy
DTLB has LRU replacement policy
STLB has LRU replacement policy
L1I has LRU replacement policy
IP Table Entries: 256
Initialize DRRIP state for L1D
IP_Table L2 entries: 256
L2C has LRU replacement policy
LLC has LRU replacement policy
Heartbeat CPU 0 instructions: 10000002 cycles: 2788038 heartbeat IPC: 3.58675 cumulative IPC: 3.58675 (Simulation time: 0 hr 16 min 29 sec) 

Warmup complete CPU 0 instructions: 10000002 cycles: 2788038 (Simulation time: 0 hr 16 min 29 sec) 

Heartbeat CPU 0 instructions: 20000002 cycles: 25101984 heartbeat IPC: 0.44815 cumulative IPC: 0.44815 (Simulation time: 0 hr 33 min 50 sec) 
Heartbeat CPU 0 instructions: 30000003 cycles: 55397517 heartbeat IPC: 0.330082 cumulative IPC: 0.38016 (Simulation time: 0 hr 59 min 52 sec) 
Heartbeat CPU 0 instructions: 40000000 cycles: 79595198 heartbeat IPC: 0.413263 cumulative IPC: 0.390589 (Simulation time: 1 hr 19 min 29 sec) 
Heartbeat CPU 0 instructions: 50000000 cycles: 101433051 heartbeat IPC: 0.45792 cumulative IPC: 0.405494 (Simulation time: 1 hr 36 min 29 sec) 
Heartbeat CPU 0 instructions: 60000000 cycles: 124005626 heartbeat IPC: 0.443015 cumulative IPC: 0.412481 (Simulation time: 1 hr 46 min 3 sec) 
Finished CPU 0 instructions: 50000002 cycles: 121217604 cumulative IPC: 0.412481 (Simulation time: 1 hr 46 min 3 sec) 

ChampSim completed all CPUs

Region of Interest Statistics

CPU 0 cumulative IPC: 0.412481 instructions: 50000002 cycles: 121217604
ITLB TOTAL     ACCESS:    9094080  HIT:    8932404  MISS:     161676  HIT %:    98.2222  MISS %:    1.77782   MPKI: 3.23352
ITLB LOAD TRANSLATION ACCESS:    9094080  HIT:    8932404  MISS:     161676  HIT %:    98.2222  MISS %:    1.77782   MPKI: 3.23352
ITLB PREFETCH  REQUESTED:          0  ISSUED:          0  USEFUL:          0  USELESS:          0
ITLB USEFUL LOAD PREFETCHES:          0 PREFETCH ISSUED TO LOWER LEVEL:          0  ACCURACY: -nan
ITLB TIMELY PREFETCHES:          0 LATE PREFETCHES: 0 DROPPED PREFETCHES: 0
ITLB PREFETCHES SAME FILL-ORIGIN LEVEL: 0 DIFFERENT FILL-ORIGIN LEVEL: 0
ITLB AVERAGE MISS LATENCY: 18.8258 cycles
ITLB RQ	ACCESS:   10624069	FORWARD:          0	MERGED:    1490161	TO_CACHE:    9133908

DTLB TOTAL     ACCESS:   11128156  HIT:    9585856  MISS:    1542300  HIT %:    86.1406  MISS %:    13.8594   MPKI: 30.846
DTLB LOAD TRANSLATION ACCESS:   11128156  HIT:    9585856  MISS:    1542300  HIT %:    86.1406  MISS %:    13.8594   MPKI: 30.846
DTLB PREFETCH  REQUESTED:          0  ISSUED:          0  USEFUL:          0  USELESS:          0
DTLB USEFUL LOAD PREFETCHES:          0 PREFETCH ISSUED TO LOWER LEVEL:          0  ACCURACY: -nan
DTLB TIMELY PREFETCHES:          0 LATE PREFETCHES: 0 DROPPED PREFETCHES: 0
DTLB PREFETCHES SAME FILL-ORIGIN LEVEL: 0 DIFFERENT FILL-ORIGIN LEVEL: 0
DTLB AVERAGE MISS LATENCY: 11.5302 cycles
DTLB RQ	ACCESS:   14188686	FORWARD:          0	MERGED:    3034233	TO_CACHE:   11154453

STLB TOTAL     ACCESS:    3208319  HIT:    3104606  MISS:     103713  HIT %:    96.7674  MISS %:    3.23263   MPKI: 2.07426
STLB LOAD TRANSLATION ACCESS:    1703976  HIT:    1600263  MISS:     103713  HIT %:    93.9135  MISS %:    6.08653   MPKI: 2.07426
STLB TRANSLATION FROM L1D PREFETCHER ACCESS:    1504343  HIT:    1504343  MISS:          0  HIT %:        100  MISS %:          0   MPKI: 0
STLB PREFETCH  REQUESTED:          0  ISSUED:          0  USEFUL:          0  USELESS:          0
STLB USEFUL LOAD PREFETCHES:          0 PREFETCH ISSUED TO LOWER LEVEL:          0  ACCURACY: -nan
STLB TIMELY PREFETCHES:          0 LATE PREFETCHES: 0 DROPPED PREFETCHES: 0
STLB PREFETCHES SAME FILL-ORIGIN LEVEL: 0 DIFFERENT FILL-ORIGIN LEVEL: 0
STLB AVERAGE MISS LATENCY: 52.7607 cycles
STLB RQ	ACCESS:    4736989	FORWARD:          0	MERGED:    1528670	TO_CACHE:    3208319

STLB Hit, L1D data hit: 0
STLB Hit, L2C data hit: 0
STLB Hit, LLC data hit: 0
STLB Hit, LLC data miss: 0
STLB STLB hints to L2: 0
L1D TOTAL     ACCESS:   17065207  HIT:   13532149  MISS:    3533058  HIT %:    79.2967  MISS %:    20.7033   MPKI: 70.6612
L1D LOAD      ACCESS:    9336556  HIT:    7789498  MISS:    1547058  HIT %:    83.4301  MISS %:    16.5699   MPKI: 30.9412
L1D RFO       ACCESS:    4721695  HIT:    4634221  MISS:      87474  HIT %:    98.1474  MISS %:     1.8526   MPKI: 1.74948
L1D PREFETCH  ACCESS:    3006956  HIT:    1108430  MISS:    1898526  HIT %:    36.8622  MISS %:    63.1378   MPKI: 37.9705
L1D PREFETCH  REQUESTED:    6066497  ISSUED:    6066216  USEFUL:      33750  USELESS:    1864828
L1D USEFUL LOAD PREFETCHES:      33750 PREFETCH ISSUED TO LOWER LEVEL:    1914711  ACCURACY: 1.76267
L1D TIMELY PREFETCHES:      33750 LATE PREFETCHES: 16033 DROPPED PREFETCHES: 0
L1D PREFETCHES SAME FILL-ORIGIN LEVEL: 1914711 DIFFERENT FILL-ORIGIN LEVEL: 0
L1D AVERAGE MISS LATENCY: 258999 cycles
L1D RQ	ACCESS:   12614499	FORWARD:          0	MERGED:    3179623	TO_CACHE:    9360875
L1D WQ	ACCESS:    4936225	FORWARD:      74191	MERGED:     108414	TO_CACHE:    4827811
L1D PQ	ACCESS:    3033203	FORWARD:          0	MERGED:          0	TO_CACHE:    3033013

L1D UNIQUE REGIONS ACCESSED: 0
L1D REGIONS CONFLICTS: 0
L1D Cross Page Prefetch Requests: 0
L1D Same Page Prefetch Requests: 3082533
L1D ROI Sum of L1D PQ occupancy: 39744468
L1D PREFETCHES PUSHED FROM L2C: 0
L1I TOTAL     ACCESS:   10327918  HIT:    9300613  MISS:    1027305  HIT %:    90.0531  MISS %:    9.94687   MPKI: 20.5461
L1I LOAD      ACCESS:   10327918  HIT:    9300613  MISS:    1027305  HIT %:    90.0531  MISS %:    9.94687   MPKI: 20.5461
L1I PREFETCH  REQUESTED:          0  ISSUED:          0  USEFUL:          0  USELESS:          0
L1I USEFUL LOAD PREFETCHES:          0 PREFETCH ISSUED TO LOWER LEVEL:          0  ACCURACY: -nan
L1I TIMELY PREFETCHES:          0 LATE PREFETCHES: 0 DROPPED PREFETCHES: 0
L1I PREFETCHES SAME FILL-ORIGIN LEVEL: 0 DIFFERENT FILL-ORIGIN LEVEL: 0
L1I AVERAGE MISS LATENCY: 34.0998 cycles
L1I RQ	ACCESS:   15412858	FORWARD:          0	MERGED:    4788789	TO_CACHE:   10624069

BTB TOTAL     ACCESS:    6676538  HIT:    5902605  MISS:     773933  HIT %:    88.4082  MISS %:    11.5918   MPKI: 15.4787
BTB BRANCH_DIRECT_JUMP	ACCESS:     544515  HIT:     488010  MISS:      56505
BTB BRANCH_INDIRECT	ACCESS:     135142  HIT:     100243  MISS:      34899
BTB BRANCH_CONDITIONAL	ACCESS:    4036815  HIT:    3832685  MISS:     204130
BTB BRANCH_DIRECT_CALL	ACCESS:     780947  HIT:     677878  MISS:     103069
BTB BRANCH_INDIRECT_CALL	ACCESS:     187570  HIT:     160642  MISS:      26928
BTB BRANCH_RETURN	ACCESS:     991549  HIT:     643147  MISS:     348402
BTB BRANCH_OTHER ACCESS:          0  HIT:          0  MISS:          0

L2C TOTAL     ACCESS:    5240667  HIT:    4158615  MISS:    1082052  HIT %:    79.3528  MISS %:    20.6472   MPKI: 21.641
L2C LOAD      ACCESS:    2558301  HIT:    1829316  MISS:     728985  HIT %:    71.5051  MISS %:    28.4949   MPKI: 14.5797
L2C DATA LOAD MPKI: 4.26096
L2C INSTRUCTION LOAD MPKI: 10.3187
L2C RFO       ACCESS:      87255  HIT:      38244  MISS:      49011  HIT %:    43.8302  MISS %:    56.1698   MPKI: 0.98022
L2C PREFETCH  ACCESS:    2264121  HIT:    2027562  MISS:     236559  HIT %:    89.5518  MISS %:    10.4482   MPKI: 4.73118
L2C DATA PREFETCH MPKI: 4.73118
L2C INSTRUCTION PREFETCH MPKI: 0
L2C WRITEBACK ACCESS:     199309  HIT:     191470  MISS:       7839  HIT %:    96.0669  MISS %:    3.93309   MPKI: 0.15678
L2C LOAD TRANSLATION ACCESS:     131681  HIT:      72023  MISS:      59658  HIT %:    54.6951  MISS %:    45.3049   MPKI: 1.19316
L2C PREFETCH  REQUESTED:     372380  ISSUED:     372380  USEFUL:      57577  USELESS:     178916
L2C USEFUL LOAD PREFETCHES:      57577 PREFETCH ISSUED TO LOWER LEVEL:     240914  ACCURACY: 23.8994
L2C TIMELY PREFETCHES:      57577 LATE PREFETCHES: 4355 DROPPED PREFETCHES: 0
L2C PREFETCHES SAME FILL-ORIGIN LEVEL: 178475 DIFFERENT FILL-ORIGIN LEVEL: 0
L2C AVERAGE MISS LATENCY: 49.3201 cycles
L2C RQ	ACCESS:    2777332	FORWARD:          0	MERGED:          0	TO_CACHE:    2777236
L2C WQ	ACCESS:     199309	FORWARD:        100	MERGED:          0	TO_CACHE:     199309
L2C PQ	ACCESS:    2287091	FORWARD:          0	MERGED:       4085	TO_CACHE:    2283002

L2C Instructions Evicting Data 242269
L2C Translations Evicting Data 28463
L2C Data Evicting Data 232136
L2C Instructions Evicting Instructions 246028
L2C Translations Evicting Instructions 27730
L2C Data Evicting Instructions 238439
L2C Instructions Evicting Translations 27640
L2C Translations Evicting Translations 3465
L2C Data Evicting Translations 28043
L2C Dense regions hint from L2: 0
PSCL5 TOTAL     ACCESS:     103713  HIT:     103713  MISS:          0  HIT %:        100  MISS %:          0   MPKI: 0
PSCL5 LOAD TRANSLATION ACCESS:     103713  HIT:     103713  MISS:          0  HIT %:        100  MISS %:          0   MPKI: 0
PSCL5 PREFETCH  REQUESTED:          0  ISSUED:          0  USEFUL:          0  USELESS:          0
PSCL5 USEFUL LOAD PREFETCHES:          0 PREFETCH ISSUED TO LOWER LEVEL:          0  ACCURACY: -nan
PSCL5 TIMELY PREFETCHES:          0 LATE PREFETCHES: 0 DROPPED PREFETCHES: 0
PSCL5 PREFETCHES SAME FILL-ORIGIN LEVEL: 0 DIFFERENT FILL-ORIGIN LEVEL: 0

PSCL4 TOTAL     ACCESS:      99486  HIT:      99251  MISS:        235  HIT %:    99.7638  MISS %:   0.236214   MPKI: 0.0047
PSCL4 LOAD TRANSLATION ACCESS:      99486  HIT:      99251  MISS:        235  HIT %:    99.7638  MISS %:   0.236214   MPKI: 0.0047
PSCL4 PREFETCH  REQUESTED:          0  ISSUED:          0  USEFUL:          0  USELESS:          0
PSCL4 USEFUL LOAD PREFETCHES:          0 PREFETCH ISSUED TO LOWER LEVEL:          0  ACCURACY: -nan
PSCL4 TIMELY PREFETCHES:          0 LATE PREFETCHES: 0 DROPPED PREFETCHES: 0
PSCL4 PREFETCHES SAME FILL-ORIGIN LEVEL: 0 DIFFERENT FILL-ORIGIN LEVEL: 0

PSCL3 TOTAL     ACCESS:     103174  HIT:     102514  MISS:        660  HIT %:    99.3603  MISS %:   0.639696   MPKI: 0.0132
PSCL3 LOAD TRANSLATION ACCESS:     103174  HIT:     102514  MISS:        660  HIT %:    99.3603  MISS %:   0.639696   MPKI: 0.0132
PSCL3 PREFETCH  REQUESTED:          0  ISSUED:          0  USEFUL:          0  USELESS:          0
PSCL3 USEFUL LOAD PREFETCHES:          0 PREFETCH ISSUED TO LOWER LEVEL:          0  ACCURACY: -nan
PSCL3 TIMELY PREFETCHES:          0 LATE PREFETCHES: 0 DROPPED PREFETCHES: 0
PSCL3 PREFETCHES SAME FILL-ORIGIN LEVEL: 0 DIFFERENT FILL-ORIGIN LEVEL: 0

PSCL2 TOTAL     ACCESS:     103713  HIT:      76533  MISS:      27180  HIT %:    73.7931  MISS %:    26.2069   MPKI: 0.5436
PSCL2 LOAD TRANSLATION ACCESS:     103713  HIT:      76533  MISS:      27180  HIT %:    73.7931  MISS %:    26.2069   MPKI: 0.5436
PSCL2 PREFETCH  REQUESTED:          0  ISSUED:          0  USEFUL:          0  USELESS:          0
PSCL2 USEFUL LOAD PREFETCHES:          0 PREFETCH ISSUED TO LOWER LEVEL:          0  ACCURACY: -nan
PSCL2 TIMELY PREFETCHES:          0 LATE PREFETCHES: 0 DROPPED PREFETCHES: 0
PSCL2 PREFETCHES SAME FILL-ORIGIN LEVEL: 0 DIFFERENT FILL-ORIGIN LEVEL: 0

LLC TOTAL     ACCESS:    1210969  HIT:    1074811  MISS:     136158  HIT %:    88.7563  MISS %:    11.2437   MPKI: 2.72316
LLC LOAD      ACCESS:     724790  HIT:     661288  MISS:      63502  HIT %:    91.2386  MISS %:    8.76143   MPKI: 1.27004
LLC RFO       ACCESS:      48849  HIT:      34707  MISS:      14142  HIT %:    71.0496  MISS %:    28.9504   MPKI: 0.28284
LLC PREFETCH  ACCESS:     240914  HIT:     186322  MISS:      54592  HIT %:    77.3396  MISS %:    22.6604   MPKI: 1.09184
LLC WRITEBACK ACCESS:     136758  HIT:     136680  MISS:         78  HIT %:     99.943  MISS %:  0.0570351   MPKI: 0.00156
LLC LOAD TRANSLATION ACCESS:      59658  HIT:      55814  MISS:       3844  HIT %:    93.5566  MISS %:    6.44339   MPKI: 0.07688
LLC PREFETCH  REQUESTED:          0  ISSUED:          0  USEFUL:       4235  USELESS:      50058
LLC USEFUL LOAD PREFETCHES:       4235 PREFETCH ISSUED TO LOWER LEVEL:      54592  ACCURACY: 7.75755
LLC TIMELY PREFETCHES:       4235 LATE PREFETCHES: 0 DROPPED PREFETCHES: 0
LLC PREFETCHES SAME FILL-ORIGIN LEVEL: 0 DIFFERENT FILL-ORIGIN LEVEL: 0
LLC AVERAGE MISS LATENCY: 156.226 cycles
LLC RQ	ACCESS:     833298	FORWARD:          0	MERGED:          0	TO_CACHE:     833296
LLC WQ	ACCESS:     136758	FORWARD:          2	MERGED:          0	TO_CACHE:     136758
LLC PQ	ACCESS:     240914	FORWARD:          0	MERGED:          0	TO_CACHE:     240914

LLC Dense regions hint to LLC: 0

RAW hits: 820981
Loads Generated: 13435467
Loads sent to L1D: 12614499
Stores Generated: 4936223
Stores sent to L1D: 4936225
Major fault: 0 Minor fault: 6644
Allocated PAGES: 6644

stream: 
stream:times selected: 2317774
stream:pref_filled: 1306073
stream:pref_useful: 27893
stream:pref_late: 4570
stream:misses: 560197
stream:misses_by_poll: 0

CS: 
CS:times selected: 494752
CS:pref_filled: 210428
CS:pref_useful: 6450
CS:pref_late: 1373
CS:misses: 23376
CS:misses_by_poll: 2

CPLX: 
CPLX:times selected: 2129243
CPLX:pref_filled: 392627
CPLX:pref_useful: 3665
CPLX:pref_late: 402
CPLX:misses: 485439
CPLX:misses_by_poll: 7

NL_L1: 
NL:times selected: 11149
NL:pref_filled: 9086
NL:pref_useful: 106
NL:pref_late: 14
NL:misses: 409
NL:misses_by_poll: 0

total selections: 4952918
total_filled: 1898526
total_useful: 33750
total_late: 16600
total_polluted: 9
total_misses_after_warmup: 1571377
conflicts: 2166398
Degree Incremented Times: 0
Degree Decremented Times: 125028

L1 IP Table Write Accesses: 6665703
L1 IP Table Read Accesses: 4499305
L1 RST Write Accesses: 2249035
L1 RST Read Accesses: 4498070
L1 CSPT Write Accesses: 2249035
L1 CSPT Read Accesses: 4315392
L1 RR Filter Tag Write Accesses: 3033484
L1 RR Filter Tag Read Accesses: 120820356
L1 IP Table Tag Write Accesses: 9360875
L1 IP Table Tag Read Accesses: 9360875
L1 RST Tag Write Accesses: 0
L1 RST Tag Read Accesses: 18843648
L1 RR Filter Write Accesses: 0
L1 RR Filter Read Accesses: 3867290
test: 1151652
L2 IP Table Read Accesses: 6503238
L2 IP Table Write Accesses: 5660378
L2 IP Table Tag Read Accesses: 3441339
L2 IP Table Tag Write Accesses: 3441339

DRAM Statistics
 CHANNEL 0
 RQ ROW_BUFFER_HIT:      30830  ROW_BUFFER_MISS:     105250
 DBUS_CONGESTED:        101
 WQ ROW_BUFFER_HIT:      10003  ROW_BUFFER_MISS:      36891  FULL:          0

 AVG_CONGESTED_CYCLE: 4
 All warmup complete: 2
Channel 0 Bank busy for read cycles: 0
Channel 0 Bank busy for write cycles: 0
Channel 0
Rank 0
0banks busy for read cycles: 103381622
0banks busy for write cycles: 23287
1banks busy for read cycles: 9041397
1banks busy for write cycles: 3450031
2banks busy for read cycles: 2391269
2banks busy for write cycles: 1004382
3banks busy for read cycles: 587266
3banks busy for write cycles: 383918
4banks busy for read cycles: 204204
4banks busy for write cycles: 197200
5banks busy for read cycles: 64351
5banks busy for write cycles: 128637
6banks busy for read cycles: 27739
6banks busy for write cycles: 89747
7banks busy for read cycles: 21632
7banks busy for write cycles: 78439
8banks busy for read cycles: 37364
8banks busy for write cycles: 105120

CPU 0 Branch Prediction Accuracy: 93.6644% MPKI: 13.4005 Average ROB Occupancy at Mispredict: 29.5946
Branch types
NOT_BRANCH: 39424064 78.8481%
BRANCH_DIRECT_JUMP: 544515 1.08903%
BRANCH_INDIRECT: 135142 0.270284%
BRANCH_CONDITIONAL: 7935882 15.8718%
BRANCH_DIRECT_CALL: 780947 1.56189%
BRANCH_INDIRECT_CALL: 187570 0.37514%
BRANCH_RETURN: 991549 1.9831%
BRANCH_OTHER: 0 0%

@sumon_overall_L1D     33750     16033   1864828   1898526   6066216   6066497
@Sumon_Early_by_class_L1D     24734      4442      3148        10
@Sumon_Late_by_class_L1D      4271      1204       351        10

@Sumon_Early_by_cycle_L1D     17295      2857      3046      1835      1479      2946      1282      1091       733       848       239        99
@Sumon_Late_by_cycle_L1D     14763      1045       198        26         1         0         0         0         0         0         0         0
@Sumon_Early_stream_L1D     14042      1757      1629      1251      1078      2006       884       788       438       623       177        61
@Sumon_Early_CS_L1D      2512       245       749       147       128       331       122        79        73        34        12        10
@Sumon_Early_CPLX_L1D       414       655       429       269       155       414       218       202       174       148        50        20
@Sumon_Late_stream_L1D      3423       763        77         7         1         0         0         0         0         0         0         0
@Sumon_Late_CS_L1D       905       197        88        14         0         0         0         0         0         0         0         0
@Sumon_Late_CPLX_L1D       262        51        33         5         0         0         0         0         0         0         0         0
@sumon_overall_L2C     57577      4355    178916    236559    372380    372380
@Sumon_Early_by_class_L2C      2316       403       800         0
@Sumon_Late_by_class_L2C         0         0         0         0

@Sumon_Early_by_cycle_L2C      8811      6033      6577      3872      3034      7866      4306      3182      2408      2973      1789      6726
@Sumon_Late_by_cycle_L2C      3334      1017         4         0         0         0         0         0         0         0         0         0
@Sumon_Early_stream_L2C        11        17        40        68         9        61       151       151       228       310       154      1116
@Sumon_Early_CS_L2C         1         2        33         6         3        17        12        14        21        37        13       244
@Sumon_Early_CPLX_L2C         0         1         7         9         1        12        24        47        80        86       112       421
@Sumon_Late_stream_L2C         0         0         0         0         0         0         0         0         0         0         0         0
@Sumon_Late_CS_L2C         0         0         0         0         0         0         0         0         0         0         0         0
@Sumon_Late_CPLX_L2C         0         0         0         0         0         0         0         0         0         0         0         0
DRAM PAGES: 1048576
Allocated PAGES: 6644
