
*** ChampSim Multicore Out-of-Order Simulator ***

Warmup Instructions: 10000000
Simulation Instructions: 50000000
Number of CPUs: 1
LLC sets: 2048
LLC ways: 16
Off-chip DRAM Size: 4096 MB Channels: 1 Width: 64-bit Data Rate: 6400 MT/s
CPU 0 runs traces/clientserver/server_026.champsimtrace.xz
.xz
CPU 0 Bimodal branch predictor
BTB has LRU replacement policy
ITLB has LRU replacement policy
DTLB has LRU replacement policy
STLB has LRU replacement policy
L1I has LRU replacement policy
IP Table Entries: 256
Initialize DRRIP state for L1D
IP_Table L2 entries: 256
L2C has LRU replacement policy
LLC has LRU replacement policy
Heartbeat CPU 0 instructions: 10000000 cycles: 2886366 heartbeat IPC: 3.46456 cumulative IPC: 3.46456 (Simulation time: 0 hr 18 min 35 sec) 

Warmup complete CPU 0 instructions: 10000001 cycles: 2886367 (Simulation time: 0 hr 18 min 35 sec) 

Heartbeat CPU 0 instructions: 20000002 cycles: 28018763 heartbeat IPC: 0.397893 cumulative IPC: 0.397893 (Simulation time: 0 hr 36 min 24 sec) 
Heartbeat CPU 0 instructions: 30000000 cycles: 53110264 heartbeat IPC: 0.398541 cumulative IPC: 0.398217 (Simulation time: 0 hr 53 min 49 sec) 
Heartbeat CPU 0 instructions: 40000002 cycles: 78213842 heartbeat IPC: 0.39835 cumulative IPC: 0.398261 (Simulation time: 1 hr 11 min 17 sec) 
Heartbeat CPU 0 instructions: 50000000 cycles: 103205472 heartbeat IPC: 0.400134 cumulative IPC: 0.398728 (Simulation time: 1 hr 28 min 58 sec) 
*** Reached end of trace for Core: 0 Repeating trace: traces/clientserver/server_026.champsimtrace.xz
Heartbeat CPU 0 instructions: 60000000 cycles: 128373765 heartbeat IPC: 0.397325 cumulative IPC: 0.398446 (Simulation time: 1 hr 43 min 51 sec) 
Finished CPU 0 instructions: 50000001 cycles: 125487406 cumulative IPC: 0.398446 (Simulation time: 1 hr 43 min 51 sec) 

ChampSim completed all CPUs

Region of Interest Statistics

CPU 0 cumulative IPC: 0.398446 instructions: 50000001 cycles: 125487406
ITLB TOTAL     ACCESS:    8443291  HIT:    7956144  MISS:     487147  HIT %:    94.2304  MISS %:    5.76963   MPKI: 9.74294
ITLB LOAD TRANSLATION ACCESS:    8443291  HIT:    7956144  MISS:     487147  HIT %:    94.2304  MISS %:    5.76963   MPKI: 9.74294
ITLB PREFETCH  REQUESTED:          0  ISSUED:          0  USEFUL:          0  USELESS:          0
ITLB USEFUL LOAD PREFETCHES:          0 PREFETCH ISSUED TO LOWER LEVEL:          0  ACCURACY: -nan
ITLB TIMELY PREFETCHES:          0 LATE PREFETCHES: 0 DROPPED PREFETCHES: 0
ITLB PREFETCHES SAME FILL-ORIGIN LEVEL: 0 DIFFERENT FILL-ORIGIN LEVEL: 0
ITLB AVERAGE MISS LATENCY: 9.06513 cycles
ITLB RQ	ACCESS:   10070149	FORWARD:          0	MERGED:    1503692	TO_CACHE:    8566457

DTLB TOTAL     ACCESS:   12577083  HIT:   12100159  MISS:     476924  HIT %:     96.208  MISS %:    3.79201   MPKI: 9.53848
DTLB LOAD TRANSLATION ACCESS:   12577083  HIT:   12100159  MISS:     476924  HIT %:     96.208  MISS %:    3.79201   MPKI: 9.53848
DTLB PREFETCH  REQUESTED:          0  ISSUED:          0  USEFUL:          0  USELESS:          0
DTLB USEFUL LOAD PREFETCHES:          0 PREFETCH ISSUED TO LOWER LEVEL:          0  ACCURACY: -nan
DTLB TIMELY PREFETCHES:          0 LATE PREFETCHES: 0 DROPPED PREFETCHES: 0
DTLB PREFETCHES SAME FILL-ORIGIN LEVEL: 0 DIFFERENT FILL-ORIGIN LEVEL: 0
DTLB AVERAGE MISS LATENCY: 9.38752 cycles
DTLB RQ	ACCESS:   15690706	FORWARD:          0	MERGED:    3093426	TO_CACHE:   12597280

STLB TOTAL     ACCESS:    1397039  HIT:    1394803  MISS:       2236  HIT %:    99.8399  MISS %:   0.160053   MPKI: 0.04472
STLB LOAD TRANSLATION ACCESS:     964071  HIT:     961835  MISS:       2236  HIT %:    99.7681  MISS %:   0.231933   MPKI: 0.04472
STLB TRANSLATION FROM L1D PREFETCHER ACCESS:     432968  HIT:     432968  MISS:          0  HIT %:        100  MISS %:          0   MPKI: 0
STLB PREFETCH  REQUESTED:          0  ISSUED:          0  USEFUL:          0  USELESS:          0
STLB USEFUL LOAD PREFETCHES:          0 PREFETCH ISSUED TO LOWER LEVEL:          0  ACCURACY: -nan
STLB TIMELY PREFETCHES:          0 LATE PREFETCHES: 0 DROPPED PREFETCHES: 0
STLB PREFETCHES SAME FILL-ORIGIN LEVEL: 0 DIFFERENT FILL-ORIGIN LEVEL: 0
STLB AVERAGE MISS LATENCY: 92.398 cycles
STLB RQ	ACCESS:    1526263	FORWARD:          0	MERGED:     129224	TO_CACHE:    1397039

STLB Hit, L1D data hit: 0
STLB Hit, L2C data hit: 0
STLB Hit, LLC data hit: 0
STLB Hit, LLC data miss: 0
STLB STLB hints to L2: 0
L1D TOTAL     ACCESS:   15719837  HIT:   14491322  MISS:    1228515  HIT %:    92.1849  MISS %:    7.81506   MPKI: 24.5703
L1D LOAD      ACCESS:    8805836  HIT:    8040374  MISS:     765462  HIT %:    91.3073  MISS %:    8.69267   MPKI: 15.3092
L1D RFO       ACCESS:    6408002  HIT:    6124136  MISS:     283866  HIT %:    95.5701  MISS %:    4.42987   MPKI: 5.67732
L1D PREFETCH  ACCESS:     505999  HIT:     326812  MISS:     179187  HIT %:    64.5875  MISS %:    35.4125   MPKI: 3.58374
L1D PREFETCH  REQUESTED:    1124629  ISSUED:    1124629  USEFUL:      57700  USELESS:     121501
L1D USEFUL LOAD PREFETCHES:      57700 PREFETCH ISSUED TO LOWER LEVEL:     218936  ACCURACY: 26.3547
L1D TIMELY PREFETCHES:      57700 LATE PREFETCHES: 39316 DROPPED PREFETCHES: 0
L1D PREFETCHES SAME FILL-ORIGIN LEVEL: 218936 DIFFERENT FILL-ORIGIN LEVEL: 0
L1D AVERAGE MISS LATENCY: 2.12618e+06 cycles
L1D RQ	ACCESS:   12099934	FORWARD:          0	MERGED:    3148348	TO_CACHE:    8838419
L1D WQ	ACCESS:    6899106	FORWARD:     113412	MERGED:      46819	TO_CACHE:    6852287
L1D PQ	ACCESS:     562437	FORWARD:          0	MERGED:          0	TO_CACHE:     562192

L1D UNIQUE REGIONS ACCESSED: 0
L1D REGIONS CONFLICTS: 0
L1D Cross Page Prefetch Requests: 0
L1D Same Page Prefetch Requests: 667219
L1D ROI Sum of L1D PQ occupancy: 7215986
L1D PREFETCHES PUSHED FROM L2C: 0
L1I TOTAL     ACCESS:    9610510  HIT:    6875999  MISS:    2734511  HIT %:    71.5467  MISS %:    28.4533   MPKI: 54.6902
L1I LOAD      ACCESS:    9610510  HIT:    6875999  MISS:    2734511  HIT %:    71.5467  MISS %:    28.4533   MPKI: 54.6902
L1I PREFETCH  REQUESTED:          0  ISSUED:          0  USEFUL:          0  USELESS:          0
L1I USEFUL LOAD PREFETCHES:          0 PREFETCH ISSUED TO LOWER LEVEL:          0  ACCURACY: -nan
L1I TIMELY PREFETCHES:          0 LATE PREFETCHES: 0 DROPPED PREFETCHES: 0
L1I PREFETCHES SAME FILL-ORIGIN LEVEL: 0 DIFFERENT FILL-ORIGIN LEVEL: 0
L1I AVERAGE MISS LATENCY: 18.8791 cycles
L1I RQ	ACCESS:   13814480	FORWARD:          0	MERGED:    3744331	TO_CACHE:   10070149

BTB TOTAL     ACCESS:    5982231  HIT:    3991091  MISS:    1991140  HIT %:    66.7158  MISS %:    33.2842   MPKI: 39.8228
BTB BRANCH_DIRECT_JUMP	ACCESS:     522633  HIT:     348042  MISS:     174591
BTB BRANCH_INDIRECT	ACCESS:     204723  HIT:     167232  MISS:      37491
BTB BRANCH_CONDITIONAL	ACCESS:    3049094  HIT:    2491586  MISS:     557508
BTB BRANCH_DIRECT_CALL	ACCESS:     929734  HIT:     525672  MISS:     404062
BTB BRANCH_INDIRECT_CALL	ACCESS:     173167  HIT:      95072  MISS:      78095
BTB BRANCH_RETURN	ACCESS:    1102880  HIT:     363487  MISS:     739393
BTB BRANCH_OTHER ACCESS:          0  HIT:          0  MISS:          0

L2C TOTAL     ACCESS:    5065245  HIT:    4250132  MISS:     815113  HIT %:    83.9077  MISS %:    16.0923   MPKI: 16.3023
L2C LOAD      ACCESS:    3460470  HIT:    2916202  MISS:     544268  HIT %:    84.2718  MISS %:    15.7282   MPKI: 10.8854
L2C DATA LOAD MPKI: 2.25028
L2C INSTRUCTION LOAD MPKI: 8.63508
L2C RFO       ACCESS:     283367  HIT:     185354  MISS:      98013  HIT %:    65.4113  MISS %:    34.5887   MPKI: 1.96026
L2C PREFETCH  ACCESS:     827949  HIT:     672828  MISS:     155121  HIT %:    81.2644  MISS %:    18.7356   MPKI: 3.10242
L2C DATA PREFETCH MPKI: 3.10242
L2C INSTRUCTION PREFETCH MPKI: 0
L2C WRITEBACK ACCESS:     491072  HIT:     475022  MISS:      16050  HIT %:    96.7316  MISS %:    3.26836   MPKI: 0.321
L2C LOAD TRANSLATION ACCESS:       2387  HIT:        726  MISS:       1661  HIT %:    30.4147  MISS %:    69.5853   MPKI: 0.03322
L2C PREFETCH  REQUESTED:     624966  ISSUED:     624966  USEFUL:      30129  USELESS:     124904
L2C USEFUL LOAD PREFETCHES:      30129 PREFETCH ISSUED TO LOWER LEVEL:     157436  ACCURACY: 19.1373
L2C TIMELY PREFETCHES:      30129 LATE PREFETCHES: 2315 DROPPED PREFETCHES: 0
L2C PREFETCHES SAME FILL-ORIGIN LEVEL: 91392 DIFFERENT FILL-ORIGIN LEVEL: 0
L2C AVERAGE MISS LATENCY: 34.5819 cycles
L2C RQ	ACCESS:    3746477	FORWARD:          0	MERGED:          0	TO_CACHE:    3746224
L2C WQ	ACCESS:     491072	FORWARD:        264	MERGED:          0	TO_CACHE:     491072
L2C PQ	ACCESS:     843902	FORWARD:          0	MERGED:       7073	TO_CACHE:     836818

L2C Instructions Evicting Data 183287
L2C Translations Evicting Data 1220
L2C Data Evicting Data 191183
L2C Instructions Evicting Instructions 248010
L2C Translations Evicting Instructions 395
L2C Data Evicting Instructions 173300
L2C Instructions Evicting Translations 456
L2C Translations Evicting Translations 46
L2C Data Evicting Translations 1156
L2C Dense regions hint from L2: 0
PSCL5 TOTAL     ACCESS:       2236  HIT:       2236  MISS:          0  HIT %:        100  MISS %:          0   MPKI: 0
PSCL5 LOAD TRANSLATION ACCESS:       2236  HIT:       2236  MISS:          0  HIT %:        100  MISS %:          0   MPKI: 0
PSCL5 PREFETCH  REQUESTED:          0  ISSUED:          0  USEFUL:          0  USELESS:          0
PSCL5 USEFUL LOAD PREFETCHES:          0 PREFETCH ISSUED TO LOWER LEVEL:          0  ACCURACY: -nan
PSCL5 TIMELY PREFETCHES:          0 LATE PREFETCHES: 0 DROPPED PREFETCHES: 0
PSCL5 PREFETCHES SAME FILL-ORIGIN LEVEL: 0 DIFFERENT FILL-ORIGIN LEVEL: 0

PSCL4 TOTAL     ACCESS:       2081  HIT:       2069  MISS:         12  HIT %:    99.4234  MISS %:   0.576646   MPKI: 0.00024
PSCL4 LOAD TRANSLATION ACCESS:       2081  HIT:       2069  MISS:         12  HIT %:    99.4234  MISS %:   0.576646   MPKI: 0.00024
PSCL4 PREFETCH  REQUESTED:          0  ISSUED:          0  USEFUL:          0  USELESS:          0
PSCL4 USEFUL LOAD PREFETCHES:          0 PREFETCH ISSUED TO LOWER LEVEL:          0  ACCURACY: -nan
PSCL4 TIMELY PREFETCHES:          0 LATE PREFETCHES: 0 DROPPED PREFETCHES: 0
PSCL4 PREFETCHES SAME FILL-ORIGIN LEVEL: 0 DIFFERENT FILL-ORIGIN LEVEL: 0

PSCL3 TOTAL     ACCESS:       2120  HIT:       2107  MISS:         13  HIT %:    99.3868  MISS %:   0.613208   MPKI: 0.00026
PSCL3 LOAD TRANSLATION ACCESS:       2120  HIT:       2107  MISS:         13  HIT %:    99.3868  MISS %:   0.613208   MPKI: 0.00026
PSCL3 PREFETCH  REQUESTED:          0  ISSUED:          0  USEFUL:          0  USELESS:          0
PSCL3 USEFUL LOAD PREFETCHES:          0 PREFETCH ISSUED TO LOWER LEVEL:          0  ACCURACY: -nan
PSCL3 TIMELY PREFETCHES:          0 LATE PREFETCHES: 0 DROPPED PREFETCHES: 0
PSCL3 PREFETCHES SAME FILL-ORIGIN LEVEL: 0 DIFFERENT FILL-ORIGIN LEVEL: 0

PSCL2 TOTAL     ACCESS:       2236  HIT:       2101  MISS:        135  HIT %:    93.9624  MISS %:    6.03757   MPKI: 0.0027
PSCL2 LOAD TRANSLATION ACCESS:       2236  HIT:       2101  MISS:        135  HIT %:    93.9624  MISS %:    6.03757   MPKI: 0.0027
PSCL2 PREFETCH  REQUESTED:          0  ISSUED:          0  USEFUL:          0  USELESS:          0
PSCL2 USEFUL LOAD PREFETCHES:          0 PREFETCH ISSUED TO LOWER LEVEL:          0  ACCURACY: -nan
PSCL2 TIMELY PREFETCHES:          0 LATE PREFETCHES: 0 DROPPED PREFETCHES: 0
PSCL2 PREFETCHES SAME FILL-ORIGIN LEVEL: 0 DIFFERENT FILL-ORIGIN LEVEL: 0

LLC TOTAL     ACCESS:     959311  HIT:     927039  MISS:      32272  HIT %:    96.6359  MISS %:    3.36408   MPKI: 0.64544
LLC LOAD      ACCESS:     542123  HIT:     537360  MISS:       4763  HIT %:    99.1214  MISS %:   0.878583   MPKI: 0.09526
LLC RFO       ACCESS:      97843  HIT:      82293  MISS:      15550  HIT %:    84.1072  MISS %:    15.8928   MPKI: 0.311
LLC PREFETCH  ACCESS:     157436  HIT:     145731  MISS:      11705  HIT %:    92.5652  MISS %:    7.43477   MPKI: 0.2341
LLC WRITEBACK ACCESS:     160248  HIT:     160173  MISS:         75  HIT %:    99.9532  MISS %:  0.0468025   MPKI: 0.0015
LLC LOAD TRANSLATION ACCESS:       1661  HIT:       1482  MISS:        179  HIT %:    89.2234  MISS %:    10.7766   MPKI: 0.00358
LLC PREFETCH  REQUESTED:          0  ISSUED:          0  USEFUL:        912  USELESS:       6456
LLC USEFUL LOAD PREFETCHES:        912 PREFETCH ISSUED TO LOWER LEVEL:      11705  ACCURACY: 7.79154
LLC TIMELY PREFETCHES:        912 LATE PREFETCHES: 0 DROPPED PREFETCHES: 0
LLC PREFETCHES SAME FILL-ORIGIN LEVEL: 0 DIFFERENT FILL-ORIGIN LEVEL: 0
LLC AVERAGE MISS LATENCY: 129.9 cycles
LLC RQ	ACCESS:     641627	FORWARD:          0	MERGED:          0	TO_CACHE:     641627
LLC WQ	ACCESS:     160248	FORWARD:          0	MERGED:          0	TO_CACHE:     160248
LLC PQ	ACCESS:     157436	FORWARD:          0	MERGED:          0	TO_CACHE:     157436

LLC Dense regions hint to LLC: 0

RAW hits: 517569
Loads Generated: 12617505
Loads sent to L1D: 12099934
Stores Generated: 6899109
Stores sent to L1D: 6899106
Major fault: 0 Minor fault: 2264
Allocated PAGES: 2264

stream: 
stream:times selected: 1052386
stream:pref_filled: 118608
stream:pref_useful: 18250
stream:pref_late: 32009
stream:misses: 7536
stream:misses_by_poll: 0

CS: 
CS:times selected: 143453
CS:pref_filled: 64231
CS:pref_useful: 44670
CS:pref_late: 4274
CS:misses: 10595
CS:misses_by_poll: 14

CPLX: 
CPLX:times selected: 907038
CPLX:pref_filled: 25396
CPLX:pref_useful: 5124
CPLX:pref_late: 2346
CPLX:misses: 94655
CPLX:misses_by_poll: 0

NL_L1: 
NL:times selected: 6048
NL:pref_filled: 576
NL:pref_useful: 99
NL:pref_late: 11
NL:misses: 375
NL:misses_by_poll: 0

total selections: 2108925
total_filled: 179187
total_useful: 57700
total_late: 40843
total_polluted: 14
total_misses_after_warmup: 798043
conflicts: 3239369
Degree Incremented Times: 0
Degree Decremented Times: 126630

L1 IP Table Write Accesses: 5303456
L1 IP Table Read Accesses: 2064087
L1 RST Write Accesses: 889285
L1 RST Read Accesses: 1778570
L1 CSPT Write Accesses: 889285
L1 CSPT Read Accesses: 1654090
L1 RR Filter Tag Write Accesses: 562437
L1 RR Filter Tag Read Accesses: 40569802
L1 IP Table Tag Write Accesses: 8838417
L1 IP Table Tag Read Accesses: 8838417
L1 RST Tag Write Accesses: 0
L1 RST Tag Read Accesses: 7619154
L1 RR Filter Write Accesses: 0
L1 RR Filter Read Accesses: 1485504
test: 146642
L2 IP Table Read Accesses: 1245061
L2 IP Table Write Accesses: 1684474
L2 IP Table Tag Read Accesses: 938196
L2 IP Table Tag Write Accesses: 938196

DRAM Statistics
 CHANNEL 0
 RQ ROW_BUFFER_HIT:      16719  ROW_BUFFER_MISS:      15471
 DBUS_CONGESTED:          3
 WQ ROW_BUFFER_HIT:        672  ROW_BUFFER_MISS:       6031  FULL:          0

 AVG_CONGESTED_CYCLE: 4
 All warmup complete: 2
Channel 0 Bank busy for read cycles: 0
Channel 0 Bank busy for write cycles: 0
Channel 0
Rank 0
0banks busy for read cycles: 123584548
0banks busy for write cycles: 1979
1banks busy for read cycles: 652041
1banks busy for write cycles: 233553
2banks busy for read cycles: 467767
2banks busy for write cycles: 79268
3banks busy for read cycles: 95108
3banks busy for write cycles: 35726
4banks busy for read cycles: 74880
4banks busy for write cycles: 23683
5banks busy for read cycles: 38007
5banks busy for write cycles: 19801
6banks busy for read cycles: 31789
6banks busy for write cycles: 15889
7banks busy for read cycles: 26245
7banks busy for write cycles: 17825
8banks busy for read cycles: 53103
8banks busy for write cycles: 36195

CPU 0 Branch Prediction Accuracy: 91.6417% MPKI: 15.2922 Average ROB Occupancy at Mispredict: 17.3659
Branch types
NOT_BRANCH: 40851779 81.7036%
BRANCH_DIRECT_JUMP: 522633 1.04527%
BRANCH_INDIRECT: 204723 0.409446%
BRANCH_CONDITIONAL: 6214818 12.4296%
BRANCH_DIRECT_CALL: 929734 1.85947%
BRANCH_INDIRECT_CALL: 173167 0.346334%
BRANCH_RETURN: 1102880 2.20576%
BRANCH_OTHER: 0 0%

@sumon_overall_L1D     57700     39316    121501    179187   1124629   1124629
@Sumon_Early_by_class_L1D     14213     38929      3834         6
@Sumon_Late_by_class_L1D     31226      4070      1985         6

@Sumon_Early_by_cycle_L1D     43794      3801      1945       998       441      2785       972      1604       292       800       205        63
@Sumon_Late_by_cycle_L1D     38450       836        28         1         1         0         0         0         0         0         0         0
@Sumon_Early_stream_L1D      6616      1809      1166       865       314       582       745      1053       220       614       197        32
@Sumon_Early_CS_L1D     34538      1693       638        43        64      1701        12       197         3        40         0         0
@Sumon_Early_CPLX_L1D      2305       186       112        59        53       442       204       297        46        91         8        31
@Sumon_Late_stream_L1D     30885       341         0         0         0         0         0         0         0         0         0         0
@Sumon_Late_CS_L1D      3555       485        28         1         1         0         0         0         0         0         0         0
@Sumon_Late_CPLX_L1D      1976         9         0         0         0         0         0         0         0         0         0         0
@sumon_overall_L2C     30129      2315    124904    155121    624966    624966
@Sumon_Early_by_class_L2C      2181       470       590         0
@Sumon_Late_by_class_L2C         0         0         0         0

@Sumon_Early_by_cycle_L2C      5341      2838      2294      2342       947      3411      2491      1963      1036      1773       972      4721
@Sumon_Late_by_cycle_L2C      1985       330         0         0         0         0         0         0         0         0         0         0
@Sumon_Early_stream_L2C        20        39         2         7         1         3        19        27        65        94       355      1549
@Sumon_Early_CS_L2C        15        73        12         3         3        12        70         0         0         1         2       279
@Sumon_Early_CPLX_L2C         4         3         0         3         0         0         4        12        58        36       124       346
@Sumon_Late_stream_L2C         0         0         0         0         0         0         0         0         0         0         0         0
@Sumon_Late_CS_L2C         0         0         0         0         0         0         0         0         0         0         0         0
@Sumon_Late_CPLX_L2C         0         0         0         0         0         0         0         0         0         0         0         0
DRAM PAGES: 1048576
Allocated PAGES: 2264
