
*** ChampSim Multicore Out-of-Order Simulator ***

Warmup Instructions: 10000000
Simulation Instructions: 50000000
Number of CPUs: 1
LLC sets: 2048
LLC ways: 16
Off-chip DRAM Size: 4096 MB Channels: 1 Width: 64-bit Data Rate: 6400 MT/s
CPU 0 runs traces/SPEC2017/605.mcf_s-1644B.champsimtrace.xz
.xz
CPU 0 Bimodal branch predictor
BTB has LRU replacement policy
ITLB has LRU replacement policy
DTLB has LRU replacement policy
STLB has LRU replacement policy
L1I has LRU replacement policy
IP Table Entries: 256
L1D has LRU replacement policy
IP_Table L2 entries: 256
L2C has LRU replacement policy
Initialize Hawkeye state
Heartbeat CPU 0 instructions: 10000003 cycles: 5085326 heartbeat IPC: 1.96644 cumulative IPC: 1.96644 (Simulation time: 0 hr 27 min 0 sec) 

Warmup complete CPU 0 instructions: 10000003 cycles: 5085326 (Simulation time: 0 hr 27 min 0 sec) 

Heartbeat CPU 0 instructions: 20000000 cycles: 71841755 heartbeat IPC: 0.149798 cumulative IPC: 0.149798 (Simulation time: 1 hr 26 min 24 sec) 
Heartbeat CPU 0 instructions: 30000002 cycles: 134366289 heartbeat IPC: 0.159937 cumulative IPC: 0.154702 (Simulation time: 2 hr 1 min 44 sec) 
Heartbeat CPU 0 instructions: 40000000 cycles: 196199188 heartbeat IPC: 0.161726 cumulative IPC: 0.156974 (Simulation time: 2 hr 9 min 36 sec) 
Heartbeat CPU 0 instructions: 50000002 cycles: 257618638 heartbeat IPC: 0.162815 cumulative IPC: 0.158395 (Simulation time: 2 hr 12 min 11 sec) 
Heartbeat CPU 0 instructions: 60000001 cycles: 318511379 heartbeat IPC: 0.164223 cumulative IPC: 0.159527 (Simulation time: 2 hr 13 min 45 sec) 
Finished CPU 0 instructions: 50000002 cycles: 313426054 cumulative IPC: 0.159527 (Simulation time: 2 hr 13 min 45 sec) 

ChampSim completed all CPUs

Region of Interest Statistics

CPU 0 cumulative IPC: 0.159527 instructions: 50000002 cycles: 313426054
ITLB TOTAL     ACCESS:    8863362  HIT:    8863362  MISS:          0  HIT %:        100  MISS %:          0   MPKI: 0
ITLB LOAD TRANSLATION ACCESS:    8863362  HIT:    8863362  MISS:          0  HIT %:        100  MISS %:          0   MPKI: 0
ITLB PREFETCH  REQUESTED:          0  ISSUED:          0  USEFUL:          0  USELESS:          0
ITLB USEFUL LOAD PREFETCHES:          0 PREFETCH ISSUED TO LOWER LEVEL:          0  ACCURACY: -nan
ITLB TIMELY PREFETCHES:          0 LATE PREFETCHES: 0 DROPPED PREFETCHES: 0
ITLB PREFETCHES SAME FILL-ORIGIN LEVEL: 0 DIFFERENT FILL-ORIGIN LEVEL: 0
ITLB AVERAGE MISS LATENCY: -nan cycles
ITLB RQ	ACCESS:    8918896	FORWARD:          0	MERGED:      55534	TO_CACHE:    8863362

DTLB TOTAL     ACCESS:   20189501  HIT:   18709339  MISS:    1480162  HIT %:    92.6687  MISS %:    7.33135   MPKI: 29.6032
DTLB LOAD TRANSLATION ACCESS:   20189501  HIT:   18709339  MISS:    1480162  HIT %:    92.6687  MISS %:    7.33135   MPKI: 29.6032
DTLB PREFETCH  REQUESTED:          0  ISSUED:          0  USEFUL:          0  USELESS:          0
DTLB USEFUL LOAD PREFETCHES:          0 PREFETCH ISSUED TO LOWER LEVEL:          0  ACCURACY: -nan
DTLB TIMELY PREFETCHES:          0 LATE PREFETCHES: 0 DROPPED PREFETCHES: 0
DTLB PREFETCHES SAME FILL-ORIGIN LEVEL: 0 DIFFERENT FILL-ORIGIN LEVEL: 0
DTLB AVERAGE MISS LATENCY: 1129.57 cycles
DTLB RQ	ACCESS:   31781180	FORWARD:          0	MERGED:    4245806	TO_CACHE:   27535374

STLB TOTAL     ACCESS:    3647735  HIT:    2456326  MISS:    1191409  HIT %:    67.3384  MISS %:    32.6616   MPKI: 23.8282
STLB LOAD TRANSLATION ACCESS:    1480162  HIT:     288753  MISS:    1191409  HIT %:    19.5082  MISS %:    80.4918   MPKI: 23.8282
STLB TRANSLATION FROM L1D PREFETCHER ACCESS:    2167573  HIT:    2167573  MISS:          0  HIT %:        100  MISS %:          0   MPKI: 0
STLB PREFETCH  REQUESTED:          0  ISSUED:          0  USEFUL:          0  USELESS:          0
STLB USEFUL LOAD PREFETCHES:          0 PREFETCH ISSUED TO LOWER LEVEL:          0  ACCURACY: -nan
STLB TIMELY PREFETCHES:          0 LATE PREFETCHES: 0 DROPPED PREFETCHES: 0
STLB PREFETCHES SAME FILL-ORIGIN LEVEL: 0 DIFFERENT FILL-ORIGIN LEVEL: 0
STLB AVERAGE MISS LATENCY: 1391.82 cycles
STLB RQ	ACCESS:    4120827	FORWARD:          0	MERGED:     473089	TO_CACHE:    3647738

STLB Hit, L1D data hit: 0
STLB Hit, L2C data hit: 0
STLB Hit, LLC data hit: 0
STLB Hit, LLC data miss: 0
STLB STLB hints to L2: 0
L1D TOTAL     ACCESS:   26595808  HIT:   20994404  MISS:    5601404  HIT %:    78.9388  MISS %:    21.0612   MPKI: 112.028
L1D LOAD      ACCESS:   14189570  HIT:   13051306  MISS:    1138264  HIT %:    91.9782  MISS %:    8.02184   MPKI: 22.7653
L1D RFO       ACCESS:    9828847  HIT:    7636079  MISS:    2192768  HIT %:    77.6905  MISS %:    22.3095   MPKI: 43.8554
L1D PREFETCH  ACCESS:    2577391  HIT:     307019  MISS:    2270372  HIT %:     11.912  MISS %:     88.088   MPKI: 45.4074
L1D PREFETCH  REQUESTED:    5281329  ISSUED:    5281329  USEFUL:    1170032  USELESS:    1100336
L1D USEFUL LOAD PREFETCHES:    1170032 PREFETCH ISSUED TO LOWER LEVEL:    2276743  ACCURACY: 51.3906
L1D TIMELY PREFETCHES:    1170032 LATE PREFETCHES: 93139 DROPPED PREFETCHES: 0
L1D PREFETCHES SAME FILL-ORIGIN LEVEL: 2276743 DIFFERENT FILL-ORIGIN LEVEL: 0
L1D AVERAGE MISS LATENCY: 197551 cycles
L1D RQ	ACCESS:   18923494	FORWARD:          0	MERGED:    4392944	TO_CACHE:   14291455
L1D WQ	ACCESS:   17491234	FORWARD:     239100	MERGED:       1509	TO_CACHE:   17489725
L1D PQ	ACCESS:    2640667	FORWARD:          0	MERGED:          0	TO_CACHE:    2640662

L1D UNIQUE REGIONS ACCESSED: 0
L1D REGIONS CONFLICTS: 0
L1D Cross Page Prefetch Requests: 0
L1D Same Page Prefetch Requests: 3158423
L1D ROI Sum of L1D PQ occupancy: 34262981
L1D PREFETCHES PUSHED FROM L2C: 0
L1I TOTAL     ACCESS:    8918894  HIT:    8918894  MISS:          0  HIT %:        100  MISS %:          0   MPKI: 0
L1I LOAD      ACCESS:    8918894  HIT:    8918894  MISS:          0  HIT %:        100  MISS %:          0   MPKI: 0
L1I PREFETCH  REQUESTED:          0  ISSUED:          0  USEFUL:          0  USELESS:          0
L1I USEFUL LOAD PREFETCHES:          0 PREFETCH ISSUED TO LOWER LEVEL:          0  ACCURACY: -nan
L1I TIMELY PREFETCHES:          0 LATE PREFETCHES: 0 DROPPED PREFETCHES: 0
L1I PREFETCHES SAME FILL-ORIGIN LEVEL: 0 DIFFERENT FILL-ORIGIN LEVEL: 0
L1I AVERAGE MISS LATENCY: -nan cycles
L1I RQ	ACCESS:   14826658	FORWARD:          0	MERGED:    5907762	TO_CACHE:    8918896

BTB TOTAL     ACCESS:    5120838  HIT:    5120833  MISS:          5  HIT %:    99.9999  MISS %: 9.76403e-05   MPKI: 0.0001
BTB BRANCH_DIRECT_JUMP	ACCESS:     748070  HIT:     748069  MISS:          1
BTB BRANCH_INDIRECT	ACCESS:          0  HIT:          0  MISS:          0
BTB BRANCH_CONDITIONAL	ACCESS:    2186378  HIT:    2186376  MISS:          2
BTB BRANCH_DIRECT_CALL	ACCESS:    1093195  HIT:    1093194  MISS:          1
BTB BRANCH_INDIRECT_CALL	ACCESS:          0  HIT:          0  MISS:          0
BTB BRANCH_RETURN	ACCESS:    1093195  HIT:    1093194  MISS:          1
BTB BRANCH_OTHER ACCESS:          0  HIT:          0  MISS:          0

L2C TOTAL     ACCESS:   12906914  HIT:    6797614  MISS:    6109300  HIT %:    52.6665  MISS %:    47.3335   MPKI: 122.186
L2C LOAD      ACCESS:    1138253  HIT:     298372  MISS:     839881  HIT %:    26.2132  MISS %:    73.7868   MPKI: 16.7976
L2C DATA LOAD MPKI: 16.7976
L2C INSTRUCTION LOAD MPKI: 0
L2C RFO       ACCESS:    2186397  HIT:       1689  MISS:    2184708  HIT %:  0.0772504  MISS %:    99.9227   MPKI: 43.6942
L2C PREFETCH  ACCESS:    3332641  HIT:    1291814  MISS:    2040827  HIT %:    38.7625  MISS %:    61.2375   MPKI: 40.8165
L2C DATA PREFETCH MPKI: 40.8165
L2C INSTRUCTION PREFETCH MPKI: 0
L2C WRITEBACK ACCESS:    4502756  HIT:    4500642  MISS:       2114  HIT %:    99.9531  MISS %:   0.046949   MPKI: 0.04228
L2C LOAD TRANSLATION ACCESS:    1746867  HIT:     705097  MISS:    1041770  HIT %:    40.3635  MISS %:    59.6365   MPKI: 20.8354
L2C PREFETCH  REQUESTED:    2352569  ISSUED:    2352569  USEFUL:      54685  USELESS:    1986113
L2C USEFUL LOAD PREFETCHES:      54685 PREFETCH ISSUED TO LOWER LEVEL:    2043213  ACCURACY: 2.67642
L2C TIMELY PREFETCHES:      54685 LATE PREFETCHES: 2386 DROPPED PREFETCHES: 0
L2C PREFETCHES SAME FILL-ORIGIN LEVEL: 991372 DIFFERENT FILL-ORIGIN LEVEL: 0
L2C AVERAGE MISS LATENCY: 242.28 cycles
L2C RQ	ACCESS:    5071531	FORWARD:          0	MERGED:          0	TO_CACHE:    5071520
L2C WQ	ACCESS:    4502756	FORWARD:         14	MERGED:          0	TO_CACHE:    4502756
L2C PQ	ACCESS:    4629312	FORWARD:          0	MERGED:     635606	TO_CACHE:    3993703

L2C Instructions Evicting Data 0
L2C Translations Evicting Data 863153
L2C Data Evicting Data 4202504
L2C Instructions Evicting Instructions 0
L2C Translations Evicting Instructions 0
L2C Data Evicting Instructions 0
L2C Instructions Evicting Translations 0
L2C Translations Evicting Translations 178617
L2C Data Evicting Translations 862912
L2C Dense regions hint from L2: 0
PSCL5 TOTAL     ACCESS:    1191410  HIT:    1191410  MISS:          0  HIT %:        100  MISS %:          0   MPKI: 0
PSCL5 LOAD TRANSLATION ACCESS:    1191410  HIT:    1191410  MISS:          0  HIT %:        100  MISS %:          0   MPKI: 0
PSCL5 PREFETCH  REQUESTED:          0  ISSUED:          0  USEFUL:          0  USELESS:          0
PSCL5 USEFUL LOAD PREFETCHES:          0 PREFETCH ISSUED TO LOWER LEVEL:          0  ACCURACY: -nan
PSCL5 TIMELY PREFETCHES:          0 LATE PREFETCHES: 0 DROPPED PREFETCHES: 0
PSCL5 PREFETCHES SAME FILL-ORIGIN LEVEL: 0 DIFFERENT FILL-ORIGIN LEVEL: 0

PSCL4 TOTAL     ACCESS:    1191410  HIT:    1191410  MISS:          0  HIT %:        100  MISS %:          0   MPKI: 0
PSCL4 LOAD TRANSLATION ACCESS:    1191410  HIT:    1191410  MISS:          0  HIT %:        100  MISS %:          0   MPKI: 0
PSCL4 PREFETCH  REQUESTED:          0  ISSUED:          0  USEFUL:          0  USELESS:          0
PSCL4 USEFUL LOAD PREFETCHES:          0 PREFETCH ISSUED TO LOWER LEVEL:          0  ACCURACY: -nan
PSCL4 TIMELY PREFETCHES:          0 LATE PREFETCHES: 0 DROPPED PREFETCHES: 0
PSCL4 PREFETCHES SAME FILL-ORIGIN LEVEL: 0 DIFFERENT FILL-ORIGIN LEVEL: 0

PSCL3 TOTAL     ACCESS:    1191410  HIT:    1191410  MISS:          0  HIT %:        100  MISS %:          0   MPKI: 0
PSCL3 LOAD TRANSLATION ACCESS:    1191410  HIT:    1191410  MISS:          0  HIT %:        100  MISS %:          0   MPKI: 0
PSCL3 PREFETCH  REQUESTED:          0  ISSUED:          0  USEFUL:          0  USELESS:          0
PSCL3 USEFUL LOAD PREFETCHES:          0 PREFETCH ISSUED TO LOWER LEVEL:          0  ACCURACY: -nan
PSCL3 TIMELY PREFETCHES:          0 LATE PREFETCHES: 0 DROPPED PREFETCHES: 0
PSCL3 PREFETCHES SAME FILL-ORIGIN LEVEL: 0 DIFFERENT FILL-ORIGIN LEVEL: 0

PSCL2 TOTAL     ACCESS:    1191410  HIT:     635914  MISS:     555496  HIT %:    53.3749  MISS %:    46.6251   MPKI: 11.1099
PSCL2 LOAD TRANSLATION ACCESS:    1191410  HIT:     635914  MISS:     555496  HIT %:    53.3749  MISS %:    46.6251   MPKI: 11.1099
PSCL2 PREFETCH  REQUESTED:          0  ISSUED:          0  USEFUL:          0  USELESS:          0
PSCL2 USEFUL LOAD PREFETCHES:          0 PREFETCH ISSUED TO LOWER LEVEL:          0  ACCURACY: -nan
PSCL2 TIMELY PREFETCHES:          0 LATE PREFETCHES: 0 DROPPED PREFETCHES: 0
PSCL2 PREFETCHES SAME FILL-ORIGIN LEVEL: 0 DIFFERENT FILL-ORIGIN LEVEL: 0

LLC TOTAL     ACCESS:   10359447  HIT:    3202629  MISS:    7156818  HIT %:    30.9151  MISS %:    69.0849   MPKI: 143.136
LLC LOAD      ACCESS:     837485  HIT:     741538  MISS:      95947  HIT %:    88.5434  MISS %:    11.4566   MPKI: 1.91894
LLC RFO       ACCESS:    2184708  HIT:      14029  MISS:    2170679  HIT %:   0.642145  MISS %:    99.3579   MPKI: 43.4136
LLC PREFETCH  ACCESS:    2043211  HIT:     734077  MISS:    1309134  HIT %:    35.9276  MISS %:    64.0724   MPKI: 26.1827
LLC WRITEBACK ACCESS:    4252273  HIT:    1543677  MISS:    2708596  HIT %:    36.3024  MISS %:    63.6976   MPKI: 54.1719
LLC LOAD TRANSLATION ACCESS:    1041770  HIT:     169308  MISS:     872462  HIT %:     16.252  MISS %:     83.748   MPKI: 17.4492
LLC PREFETCH  REQUESTED:          0  ISSUED:          0  USEFUL:       5320  USELESS:    1309527
LLC USEFUL LOAD PREFETCHES:       5320 PREFETCH ISSUED TO LOWER LEVEL:    1309134  ACCURACY: 0.406376
LLC TIMELY PREFETCHES:       5320 LATE PREFETCHES: 0 DROPPED PREFETCHES: 0
LLC PREFETCHES SAME FILL-ORIGIN LEVEL: 0 DIFFERENT FILL-ORIGIN LEVEL: 0
LLC AVERAGE MISS LATENCY: 179.626 cycles
LLC RQ	ACCESS:    4063976	FORWARD:          0	MERGED:          0	TO_CACHE:    4063966
LLC WQ	ACCESS:    4252273	FORWARD:         12	MERGED:          0	TO_CACHE:    4252273
LLC PQ	ACCESS:    2043213	FORWARD:          0	MERGED:          0	TO_CACHE:    2043211

LLC Dense regions hint to LLC: 0

RAW hits: 1847328
Loads Generated: 20770821
Loads sent to L1D: 18923494
Stores Generated: 17491231
Stores sent to L1D: 17491234
Major fault: 0 Minor fault: 224166
Allocated PAGES: 224166

stream: 
stream:times selected: 6796794
stream:pref_filled: 1229114
stream:pref_useful: 19914
stream:pref_late: 1794
stream:misses: 189864
stream:misses_by_poll: 0

CS: 
CS:times selected: 3703156
CS:pref_filled: 1373874
CS:pref_useful: 1371060
CS:pref_late: 60813
CS:misses: 146231
CS:misses_by_poll: 7269

CPLX: 
CPLX:times selected: 3079485
CPLX:pref_filled: 119085
CPLX:pref_useful: 21788
CPLX:pref_late: 354
CPLX:misses: 1110848
CPLX:misses_by_poll: 311

NL_L1: 
NL:times selected: 21300
NL:pref_filled: 4597
NL:pref_useful: 85
NL:pref_late: 8
NL:misses: 7098
NL:misses_by_poll: 0

total selections: 13600735
total_filled: 2270372
total_useful: 1170032
total_late: 62969
total_polluted: 7580
total_misses_after_warmup: 1240149
conflicts: 0
Degree Incremented Times: 67988
Degree Decremented Times: 198934

L1 IP Table Write Accesses: 14291455
L1 IP Table Read Accesses: 14291455
L1 RST Write Accesses: 5679323
L1 RST Read Accesses: 11358646
L1 CSPT Write Accesses: 5679323
L1 CSPT Read Accesses: 8285889
L1 RR Filter Tag Write Accesses: 2640667
L1 RR Filter Tag Read Accesses: 409966482
L1 IP Table Tag Write Accesses: 14291455
L1 IP Table Tag Read Accesses: 14291455
L1 RST Tag Write Accesses: 0
L1 RST Tag Read Accesses: 51083627
L1 RR Filter Write Accesses: 0
L1 RR Filter Read Accesses: 15284410
test: 1310473
L2 IP Table Read Accesses: 6030954
L2 IP Table Write Accesses: 4892701
L2 IP Table Tag Read Accesses: 3015477
L2 IP Table Tag Write Accesses: 3015477

DRAM Statistics
 CHANNEL 0
 RQ ROW_BUFFER_HIT:      63761  ROW_BUFFER_MISS:    4384292
 DBUS_CONGESTED:        106
 WQ ROW_BUFFER_HIT:     705334  ROW_BUFFER_MISS:    2765603  FULL:        278

 AVG_CONGESTED_CYCLE: 4
 All warmup complete: 2
Channel 0 Bank busy for read cycles: 0
Channel 0 Bank busy for write cycles: 0
Channel 0
Rank 0
0banks busy for read cycles: 459249
0banks busy for write cycles: 0
1banks busy for read cycles: 29806710
1banks busy for write cycles: 580515
2banks busy for read cycles: 39528516
2banks busy for write cycles: 583985
3banks busy for read cycles: 64174594
3banks busy for write cycles: 597803
4banks busy for read cycles: 35937696
4banks busy for write cycles: 932427
5banks busy for read cycles: 24314071
5banks busy for write cycles: 1784527
6banks busy for read cycles: 12900797
6banks busy for write cycles: 5054055
7banks busy for read cycles: 5254448
7banks busy for write cycles: 21390376
8banks busy for read cycles: 1499574
8banks busy for write cycles: 68626712

CPU 0 Branch Prediction Accuracy: 94.7877% MPKI: 6.47792 Average ROB Occupancy at Mispredict: 110.683
Branch types
NOT_BRANCH: 43785608 87.5712%
BRANCH_DIRECT_JUMP: 748070 1.49614%
BRANCH_INDIRECT: 0 0%
BRANCH_CONDITIONAL: 3279583 6.55917%
BRANCH_DIRECT_CALL: 1093195 2.18639%
BRANCH_INDIRECT_CALL: 0 0%
BRANCH_RETURN: 1093195 2.18639%
BRANCH_OTHER: 0 0%

@sumon_overall_L1D   1170032     93139     93139   1100336   2270372   5281329   5281329
@Sumon_Early_by_class_L1D     16487   1132957     20547         8
@Sumon_Late_by_class_L1D      1678     60389       345         8

@Sumon_Early_by_cycle_L1D    111361    205095    348459    181842    100233    203906     13579      1220      1044      2065       406       822
@Sumon_Late_by_cycle_L1D      4519      7413      9054     14621     26058       755
@Sumon_Early_stream_L1D      2508      3838      2628       991       545      1348       474       440       877      1819       352       667
@Sumon_Early_CS_L1D    108378    200354    343673    177788     96936    194502     11182       136         3         5         0         0
@Sumon_Early_CPLX_L1D       467       897      2155      3061      2751      8055      1921       644       161       235        54       146
@Sumon_Late_stream_L1D        84      1036       142       168       240         8
@Sumon_Late_CS_L1D      4407      6268      8869     14395     25707       743
@Sumon_Late_CPLX_L1D        26       104        43        58       110         4
@sumon_overall_L2C     54685      2386         0   1986113   2040827   2352569   2352569
@Sumon_Early_by_class_L2C     29044     22307      3256         0
@Sumon_Late_by_class_L2C         0      2291         0         0

@Sumon_Early_by_cycle_L2C      1425      3032      4821      3568      2717      6170       292         5         6       630      3096     28923
@Sumon_Late_by_cycle_L2C        94       137       216       595      1202       142
@Sumon_Early_stream_L2C         0         0         0         0         0         0         0         0         3       539      2735     25767
@Sumon_Early_CS_L2C      1425      3032      4821      3568      2717      6170       292         5         3        11        23       240
@Sumon_Early_CPLX_L2C         0         0         0         0         0         0         0         0         0        80       332      2844
@Sumon_Late_stream_L2C         0         0         0         0         0         0
@Sumon_Late_CS_L2C         0       137       216       595      1201       142
@Sumon_Late_CPLX_L2C         0         0         0         0         0         0
DRAM PAGES: 1048576
Allocated PAGES: 224166
