
*** ChampSim Multicore Out-of-Order Simulator ***

Warmup Instructions: 10000000
Simulation Instructions: 50000000
Number of CPUs: 1
LLC sets: 2048
LLC ways: 16
Off-chip DRAM Size: 4096 MB Channels: 1 Width: 64-bit Data Rate: 6400 MT/s
CPU 0 runs traces/SPEC2017/605.mcf_s-1536B.champsimtrace.xz
.xz
CPU 0 Bimodal branch predictor
BTB has LRU replacement policy
ITLB has LRU replacement policy
DTLB has LRU replacement policy
STLB has LRU replacement policy
L1I has LRU replacement policy
IP Table Entries: 256
L1D has LRU replacement policy
IP_Table L2 entries: 256
L2C has LRU replacement policy
Initialize Hawkeye state
Heartbeat CPU 0 instructions: 10000003 cycles: 2859675 heartbeat IPC: 3.4969 cumulative IPC: 3.4969 (Simulation time: 0 hr 12 min 21 sec) 

Warmup complete CPU 0 instructions: 10000003 cycles: 2859675 (Simulation time: 0 hr 12 min 22 sec) 

Heartbeat CPU 0 instructions: 20000001 cycles: 38448365 heartbeat IPC: 0.280988 cumulative IPC: 0.280988 (Simulation time: 0 hr 52 min 21 sec) 
Heartbeat CPU 0 instructions: 30000002 cycles: 74205939 heartbeat IPC: 0.279661 cumulative IPC: 0.280323 (Simulation time: 1 hr 32 min 2 sec) 
Heartbeat CPU 0 instructions: 40000002 cycles: 111134420 heartbeat IPC: 0.270794 cumulative IPC: 0.277073 (Simulation time: 1 hr 59 min 18 sec) 
Heartbeat CPU 0 instructions: 50000000 cycles: 147551266 heartbeat IPC: 0.274598 cumulative IPC: 0.27645 (Simulation time: 2 hr 7 min 17 sec) 
Heartbeat CPU 0 instructions: 60000002 cycles: 183983671 heartbeat IPC: 0.274481 cumulative IPC: 0.276054 (Simulation time: 2 hr 10 min 31 sec) 
Finished CPU 0 instructions: 50000002 cycles: 181123997 cumulative IPC: 0.276054 (Simulation time: 2 hr 10 min 31 sec) 

ChampSim completed all CPUs

Region of Interest Statistics

CPU 0 cumulative IPC: 0.276054 instructions: 50000002 cycles: 181123997
ITLB TOTAL     ACCESS:    9148124  HIT:    9148124  MISS:          0  HIT %:        100  MISS %:          0   MPKI: 0
ITLB LOAD TRANSLATION ACCESS:    9148124  HIT:    9148124  MISS:          0  HIT %:        100  MISS %:          0   MPKI: 0
ITLB PREFETCH  REQUESTED:          0  ISSUED:          0  USEFUL:          0  USELESS:          0
ITLB USEFUL LOAD PREFETCHES:          0 PREFETCH ISSUED TO LOWER LEVEL:          0  ACCURACY: -nan
ITLB TIMELY PREFETCHES:          0 LATE PREFETCHES: 0 DROPPED PREFETCHES: 0
ITLB PREFETCHES SAME FILL-ORIGIN LEVEL: 0 DIFFERENT FILL-ORIGIN LEVEL: 0
ITLB AVERAGE MISS LATENCY: -nan cycles
ITLB RQ	ACCESS:    9686424	FORWARD:          0	MERGED:     538301	TO_CACHE:    9148123

DTLB TOTAL     ACCESS:    7453627  HIT:    6142983  MISS:    1310644  HIT %:     82.416  MISS %:     17.584   MPKI: 26.2129
DTLB LOAD TRANSLATION ACCESS:    7453627  HIT:    6142983  MISS:    1310644  HIT %:     82.416  MISS %:     17.584   MPKI: 26.2129
DTLB PREFETCH  REQUESTED:          0  ISSUED:          0  USEFUL:          0  USELESS:          0
DTLB USEFUL LOAD PREFETCHES:          0 PREFETCH ISSUED TO LOWER LEVEL:          0  ACCURACY: -nan
DTLB TIMELY PREFETCHES:          0 LATE PREFETCHES: 0 DROPPED PREFETCHES: 0
DTLB PREFETCHES SAME FILL-ORIGIN LEVEL: 0 DIFFERENT FILL-ORIGIN LEVEL: 0
DTLB AVERAGE MISS LATENCY: 70.7855 cycles
DTLB RQ	ACCESS:    8660214	FORWARD:          0	MERGED:    1184534	TO_CACHE:    7475680

STLB TOTAL     ACCESS:    3539620  HIT:    2418259  MISS:    1121361  HIT %:    68.3197  MISS %:    31.6803   MPKI: 22.4272
STLB LOAD TRANSLATION ACCESS:    1310644  HIT:     189285  MISS:    1121359  HIT %:    14.4421  MISS %:    85.5579   MPKI: 22.4272
STLB TRANSLATION FROM L1D PREFETCHER ACCESS:    2228976  HIT:    2228974  MISS:          2  HIT %:    99.9999  MISS %: 8.97273e-05   MPKI: 4e-05
STLB PREFETCH  REQUESTED:          0  ISSUED:          0  USEFUL:          2  USELESS:          0
STLB USEFUL LOAD PREFETCHES:          2 PREFETCH ISSUED TO LOWER LEVEL:          0  ACCURACY: inf
STLB TIMELY PREFETCHES:          2 LATE PREFETCHES: 0 DROPPED PREFETCHES: 0
STLB PREFETCHES SAME FILL-ORIGIN LEVEL: 0 DIFFERENT FILL-ORIGIN LEVEL: 0
STLB AVERAGE MISS LATENCY: 72.179 cycles
STLB RQ	ACCESS:    4396212	FORWARD:          0	MERGED:     856593	TO_CACHE:    3539619

STLB Hit, L1D data hit: 0
STLB Hit, L2C data hit: 0
STLB Hit, LLC data hit: 0
STLB Hit, LLC data miss: 0
STLB STLB hints to L2: 0
L1D TOTAL     ACCESS:   11333025  HIT:    6439075  MISS:    4893950  HIT %:    56.8169  MISS %:    43.1831   MPKI: 97.879
L1D LOAD      ACCESS:    6395095  HIT:    4048756  MISS:    2346339  HIT %:    63.3103  MISS %:    36.6897   MPKI: 46.9268
L1D RFO       ACCESS:    2217233  HIT:    2146500  MISS:      70733  HIT %:    96.8099  MISS %:    3.19015   MPKI: 1.41466
L1D PREFETCH  ACCESS:    2720697  HIT:     243819  MISS:    2476878  HIT %:    8.96164  MISS %:    91.0384   MPKI: 49.5376
L1D PREFETCH  REQUESTED:    6171136  ISSUED:    6171136  USEFUL:      94154  USELESS:    2382758
L1D USEFUL LOAD PREFETCHES:      94154 PREFETCH ISSUED TO LOWER LEVEL:    2477052  ACCURACY: 3.80105
L1D TIMELY PREFETCHES:      94154 LATE PREFETCHES: 10039 DROPPED PREFETCHES: 0
L1D PREFETCHES SAME FILL-ORIGIN LEVEL: 2477052 DIFFERENT FILL-ORIGIN LEVEL: 0
L1D AVERAGE MISS LATENCY: 3288.68 cycles
L1D RQ	ACCESS:   12323724	FORWARD:          0	MERGED:    5751355	TO_CACHE:    6442981
L1D WQ	ACCESS:    2217254	FORWARD:     129388	MERGED:         21	TO_CACHE:    2217233
L1D PQ	ACCESS:    3085568	FORWARD:          0	MERGED:          0	TO_CACHE:    3085568

L1D UNIQUE REGIONS ACCESSED: 0
L1D REGIONS CONFLICTS: 0
L1D Cross Page Prefetch Requests: 0
L1D Same Page Prefetch Requests: 3850328
L1D ROI Sum of L1D PQ occupancy: 40300691
L1D PREFETCHES PUSHED FROM L2C: 0
L1I TOTAL     ACCESS:    9686423  HIT:    9686423  MISS:          0  HIT %:        100  MISS %:          0   MPKI: 0
L1I LOAD      ACCESS:    9686423  HIT:    9686423  MISS:          0  HIT %:        100  MISS %:          0   MPKI: 0
L1I PREFETCH  REQUESTED:          0  ISSUED:          0  USEFUL:          0  USELESS:          0
L1I USEFUL LOAD PREFETCHES:          0 PREFETCH ISSUED TO LOWER LEVEL:          0  ACCURACY: -nan
L1I TIMELY PREFETCHES:          0 LATE PREFETCHES: 0 DROPPED PREFETCHES: 0
L1I PREFETCHES SAME FILL-ORIGIN LEVEL: 0 DIFFERENT FILL-ORIGIN LEVEL: 0
L1I AVERAGE MISS LATENCY: -nan cycles
L1I RQ	ACCESS:   14499337	FORWARD:          0	MERGED:    4812913	TO_CACHE:    9686424

BTB TOTAL     ACCESS:    6679587  HIT:    6679579  MISS:          8  HIT %:    99.9999  MISS %: 0.000119768   MPKI: 0.00016
BTB BRANCH_DIRECT_JUMP	ACCESS:    1136953  HIT:    1136951  MISS:          2
BTB BRANCH_INDIRECT	ACCESS:          0  HIT:          0  MISS:          0
BTB BRANCH_CONDITIONAL	ACCESS:    3325388  HIT:    3325384  MISS:          4
BTB BRANCH_DIRECT_CALL	ACCESS:    1108623  HIT:    1108622  MISS:          1
BTB BRANCH_INDIRECT_CALL	ACCESS:          0  HIT:          0  MISS:          0
BTB BRANCH_RETURN	ACCESS:    1108623  HIT:    1108622  MISS:          1
BTB BRANCH_OTHER ACCESS:          0  HIT:          0  MISS:          0

L2C TOTAL     ACCESS:    7277245  HIT:    3082031  MISS:    4195214  HIT %:    42.3516  MISS %:    57.6484   MPKI: 83.9043
L2C LOAD      ACCESS:    2346337  HIT:     886824  MISS:    1459513  HIT %:    37.7961  MISS %:    62.2039   MPKI: 29.1903
L2C DATA LOAD MPKI: 29.1903
L2C INSTRUCTION LOAD MPKI: 0
L2C RFO       ACCESS:      70557  HIT:      10581  MISS:      59976  HIT %:    14.9964  MISS %:    85.0036   MPKI: 1.19952
L2C PREFETCH  ACCESS:    2477053  HIT:     875776  MISS:    1601277  HIT %:    35.3556  MISS %:    64.6444   MPKI: 32.0255
L2C DATA PREFETCH MPKI: 32.0255
L2C INSTRUCTION PREFETCH MPKI: 0
L2C WRITEBACK ACCESS:    1108631  HIT:    1108631  MISS:          0  HIT %:        100  MISS %:          0   MPKI: 0
L2C LOAD TRANSLATION ACCESS:    1274663  HIT:     200219  MISS:    1074444  HIT %:    15.7076  MISS %:    84.2924   MPKI: 21.4889
L2C TRANSLATION FROM L1D PREFETCHER ACCESS:          4  HIT:          0  MISS:          4  HIT %:          0  MISS %:        100   MPKI: 8e-05
L2C PREFETCH  REQUESTED:          0  ISSUED:          0  USEFUL:      72494  USELESS:    1529220
L2C USEFUL LOAD PREFETCHES:      72494 PREFETCH ISSUED TO LOWER LEVEL:    1601281  ACCURACY: 4.52725
L2C TIMELY PREFETCHES:      72494 LATE PREFETCHES: 0 DROPPED PREFETCHES: 0
L2C PREFETCHES SAME FILL-ORIGIN LEVEL: 0 DIFFERENT FILL-ORIGIN LEVEL: 0
L2C AVERAGE MISS LATENCY: 105.408 cycles
L2C RQ	ACCESS:    3691562	FORWARD:          0	MERGED:          0	TO_CACHE:    3691562
L2C WQ	ACCESS:    1108631	FORWARD:          0	MERGED:          0	TO_CACHE:    1108631
L2C PQ	ACCESS:    2477052	FORWARD:          0	MERGED:          0	TO_CACHE:    2477052

L2C Instructions Evicting Data 0
L2C Translations Evicting Data 739863
L2C Data Evicting Data 2380790
L2C Instructions Evicting Instructions 0
L2C Translations Evicting Instructions 0
L2C Data Evicting Instructions 0
L2C Instructions Evicting Translations 0
L2C Translations Evicting Translations 334585
L2C Data Evicting Translations 739976
L2C Dense regions hint from L2: 0
PSCL5 TOTAL     ACCESS:    1121361  HIT:    1121361  MISS:          0  HIT %:        100  MISS %:          0   MPKI: 0
PSCL5 LOAD TRANSLATION ACCESS:    1121359  HIT:    1121359  MISS:          0  HIT %:        100  MISS %:          0   MPKI: 0
PSCL5 TRANSLATION FROM L1D PREFETCHER ACCESS:          2  HIT:          2  MISS:          0  HIT %:        100  MISS %:          0   MPKI: 0
PSCL5 PREFETCH  REQUESTED:          0  ISSUED:          0  USEFUL:          0  USELESS:          0
PSCL5 USEFUL LOAD PREFETCHES:          0 PREFETCH ISSUED TO LOWER LEVEL:          0  ACCURACY: -nan
PSCL5 TIMELY PREFETCHES:          0 LATE PREFETCHES: 0 DROPPED PREFETCHES: 0
PSCL5 PREFETCHES SAME FILL-ORIGIN LEVEL: 0 DIFFERENT FILL-ORIGIN LEVEL: 0

PSCL4 TOTAL     ACCESS:    1121361  HIT:    1121361  MISS:          0  HIT %:        100  MISS %:          0   MPKI: 0
PSCL4 LOAD TRANSLATION ACCESS:    1121359  HIT:    1121359  MISS:          0  HIT %:        100  MISS %:          0   MPKI: 0
PSCL4 TRANSLATION FROM L1D PREFETCHER ACCESS:          2  HIT:          2  MISS:          0  HIT %:        100  MISS %:          0   MPKI: 0
PSCL4 PREFETCH  REQUESTED:          0  ISSUED:          0  USEFUL:          0  USELESS:          0
PSCL4 USEFUL LOAD PREFETCHES:          0 PREFETCH ISSUED TO LOWER LEVEL:          0  ACCURACY: -nan
PSCL4 TIMELY PREFETCHES:          0 LATE PREFETCHES: 0 DROPPED PREFETCHES: 0
PSCL4 PREFETCHES SAME FILL-ORIGIN LEVEL: 0 DIFFERENT FILL-ORIGIN LEVEL: 0

PSCL3 TOTAL     ACCESS:    1121361  HIT:    1121361  MISS:          0  HIT %:        100  MISS %:          0   MPKI: 0
PSCL3 LOAD TRANSLATION ACCESS:    1121359  HIT:    1121359  MISS:          0  HIT %:        100  MISS %:          0   MPKI: 0
PSCL3 TRANSLATION FROM L1D PREFETCHER ACCESS:          2  HIT:          2  MISS:          0  HIT %:        100  MISS %:          0   MPKI: 0
PSCL3 PREFETCH  REQUESTED:          0  ISSUED:          0  USEFUL:          0  USELESS:          0
PSCL3 USEFUL LOAD PREFETCHES:          0 PREFETCH ISSUED TO LOWER LEVEL:          0  ACCURACY: -nan
PSCL3 TIMELY PREFETCHES:          0 LATE PREFETCHES: 0 DROPPED PREFETCHES: 0
PSCL3 PREFETCHES SAME FILL-ORIGIN LEVEL: 0 DIFFERENT FILL-ORIGIN LEVEL: 0

PSCL2 TOTAL     ACCESS:    1121361  HIT:     968055  MISS:     153306  HIT %:    86.3286  MISS %:    13.6714   MPKI: 3.06612
PSCL2 LOAD TRANSLATION ACCESS:    1121361  HIT:     968055  MISS:     153306  HIT %:    86.3286  MISS %:    13.6714   MPKI: 3.06612
PSCL2 PREFETCH  REQUESTED:          0  ISSUED:          0  USEFUL:          0  USELESS:          0
PSCL2 USEFUL LOAD PREFETCHES:          0 PREFETCH ISSUED TO LOWER LEVEL:          0  ACCURACY: -nan
PSCL2 TIMELY PREFETCHES:          0 LATE PREFETCHES: 0 DROPPED PREFETCHES: 0
PSCL2 PREFETCHES SAME FILL-ORIGIN LEVEL: 0 DIFFERENT FILL-ORIGIN LEVEL: 0

LLC TOTAL     ACCESS:    5303919  HIT:    3279885  MISS:    2024034  HIT %:    61.8389  MISS %:    38.1611   MPKI: 40.4807
LLC LOAD      ACCESS:    1459513  HIT:     744228  MISS:     715285  HIT %:    50.9915  MISS %:    49.0085   MPKI: 14.3057
LLC RFO       ACCESS:      59976  HIT:      59949  MISS:         27  HIT %:     99.955  MISS %:   0.045018   MPKI: 0.00054
LLC PREFETCH  ACCESS:    1601278  HIT:     575107  MISS:    1026171  HIT %:    35.9155  MISS %:    64.0845   MPKI: 20.5234
LLC WRITEBACK ACCESS:    1108704  HIT:     829624  MISS:     279080  HIT %:    74.8283  MISS %:    25.1717   MPKI: 5.5816
LLC LOAD TRANSLATION ACCESS:    1074444  HIT:    1070976  MISS:       3468  HIT %:    99.6772  MISS %:   0.322772   MPKI: 0.06936
LLC TRANSLATION FROM L1D PREFETCHER ACCESS:          4  HIT:          1  MISS:          3  HIT %:         25  MISS %:         75   MPKI: 6e-05
LLC PREFETCH  REQUESTED:          0  ISSUED:          0  USEFUL:     489264  USELESS:     542837
LLC USEFUL LOAD PREFETCHES:     489264 PREFETCH ISSUED TO LOWER LEVEL:    1026174  ACCURACY: 47.6785
LLC TIMELY PREFETCHES:     489264 LATE PREFETCHES: 0 DROPPED PREFETCHES: 0
LLC PREFETCHES SAME FILL-ORIGIN LEVEL: 0 DIFFERENT FILL-ORIGIN LEVEL: 0
LLC AVERAGE MISS LATENCY: 155.646 cycles
LLC RQ	ACCESS:    2593938	FORWARD:          0	MERGED:          0	TO_CACHE:    2593938
LLC WQ	ACCESS:    1108705	FORWARD:          0	MERGED:          0	TO_CACHE:    1108705
LLC PQ	ACCESS:    1601281	FORWARD:          0	MERGED:          0	TO_CACHE:    1601281

LLC Dense regions hint to LLC: 0

RAW hits: 977696
Loads Generated: 13301423
Loads sent to L1D: 12323724
Stores Generated: 2217254
Stores sent to L1D: 2217254
Major fault: 0 Minor fault: 27016
Allocated PAGES: 27016

stream: 
stream:times selected: 3316341
stream:pref_filled: 2271918
stream:pref_useful: 74973
stream:pref_late: 10331
stream:misses: 524802
stream:misses_by_poll: 0

CS: 
CS:times selected: 452504
CS:pref_filled: 361179
CS:pref_useful: 193
CS:pref_late: 18
CS:misses: 36356
CS:misses_by_poll: 236

CPLX: 
CPLX:times selected: 3306179
CPLX:pref_filled: 380628
CPLX:pref_useful: 27337
CPLX:pref_late: 1526
CPLX:misses: 2221604
CPLX:misses_by_poll: 385

NL_L1: 
NL:times selected: 37205
NL:pref_filled: 26921
NL:pref_useful: 87
NL:pref_late: 2
NL:misses: 31778
NL:misses_by_poll: 2

total selections: 7112229
total_filled: 2476878
total_useful: 94154
total_late: 11877
total_polluted: 623
total_misses_after_warmup: 2394223
conflicts: 1
Degree Incremented Times: 0
Degree Decremented Times: 127422

L1 IP Table Write Accesses: 6442979
L1 IP Table Read Accesses: 6442978
L1 RST Write Accesses: 2770643
L1 RST Read Accesses: 5541286
L1 CSPT Write Accesses: 2770643
L1 CSPT Read Accesses: 5534863
L1 RR Filter Tag Write Accesses: 3085568
L1 RR Filter Tag Read Accesses: 104924341
L1 IP Table Tag Write Accesses: 6442979
L1 IP Table Tag Read Accesses: 6442979
L1 RST Tag Write Accesses: 0
L1 RST Tag Read Accesses: 24721339
L1 RR Filter Write Accesses: 0
L1 RR Filter Read Accesses: 3305553
test: 1987867
L2 IP Table Read Accesses: 9644862
L2 IP Table Write Accesses: 7298524
L2 IP Table Tag Read Accesses: 4822431
L2 IP Table Tag Write Accesses: 4822431

DRAM Statistics
 CHANNEL 0
 RQ ROW_BUFFER_HIT:       9180  ROW_BUFFER_MISS:    1735432
 DBUS_CONGESTED:         42
 WQ ROW_BUFFER_HIT:     258490  ROW_BUFFER_MISS:     844951  FULL:          0

 AVG_CONGESTED_CYCLE: 4
 All warmup complete: 2
Channel 0 Bank busy for read cycles: 0
Channel 0 Bank busy for write cycles: 0
Channel 0
Rank 0
0banks busy for read cycles: 1824616
0banks busy for write cycles: 25159
1banks busy for read cycles: 49518773
1banks busy for write cycles: 3366451
2banks busy for read cycles: 38553000
2banks busy for write cycles: 4995294
3banks busy for read cycles: 21117421
3banks busy for write cycles: 6628831
4banks busy for read cycles: 11135059
4banks busy for write cycles: 7949090
5banks busy for read cycles: 3948784
5banks busy for write cycles: 8788517
6banks busy for read cycles: 980305
6banks busy for write cycles: 8696258
7banks busy for read cycles: 91992
7banks busy for write cycles: 7631573
8banks busy for read cycles: 6088
8banks busy for write cycles: 5866787

CPU 0 Branch Prediction Accuracy: 99.9717% MPKI: 0.04406 Average ROB Occupancy at Mispredict: 167.4
Branch types
NOT_BRANCH: 42211298 84.4226%
BRANCH_DIRECT_JUMP: 1136953 2.27391%
BRANCH_INDIRECT: 0 0%
BRANCH_CONDITIONAL: 4434492 8.86898%
BRANCH_DIRECT_CALL: 1108623 2.21725%
BRANCH_INDIRECT_CALL: 0 0%
BRANCH_RETURN: 1108623 2.21725%
BRANCH_OTHER: 0 0%

@sumon_overall_L1D     94154     10039     10039   2382758   2476878   6171136   6171136
@Sumon_Early_by_class_L1D     71392       188     22499         2
@Sumon_Late_by_class_L1D      9570        18       281         2

@Sumon_Early_by_cycle_L1D     19654     32646     26093      7282      3824      3168       371       420       355       249        43        49
@Sumon_Late_by_cycle_L1D       670      3084      2579       699      2832         7
@Sumon_Early_stream_L1D     18520     29657     19846      1773       230       207       313       346       262       149        40        49
@Sumon_Early_CS_L1D        33        61        77        15         2         0         0         0         0         0         0         0
@Sumon_Early_CPLX_L1D      1087      2905      6158      5493      3591      2957        50        69        88        98         3         0
@Sumon_Late_stream_L1D       628      2907      2559       681      2788         7
@Sumon_Late_CS_L1D         1        10         3         0         4         0
@Sumon_Late_CPLX_L1D        40       167        17        18        39         0
@sumon_overall_L2C     72494         0         0   1529220   1601281         0         0
@Sumon_Early_by_class_L2C     71352        15      1001         0
@Sumon_Late_by_class_L2C         0         0         0         0

@Sumon_Early_by_cycle_L2C         0         0         0         0         0         0         0         0         3       253       240     71998
@Sumon_Late_by_cycle_L2C         0         0         0         0         0         0
@Sumon_Early_stream_L2C         0         0         0         0         0         0         0         0         3       197       145     71007
@Sumon_Early_CS_L2C         0         0         0         0         0         0         0         0         0         0         0        15
@Sumon_Early_CPLX_L2C         0         0         0         0         0         0         0         0         0        49        94       858
@Sumon_Late_stream_L2C         0         0         0         0         0         0
@Sumon_Late_CS_L2C         0         0         0         0         0         0
@Sumon_Late_CPLX_L2C         0         0         0         0         0         0
DRAM PAGES: 1048576
Allocated PAGES: 27016
