
*** ChampSim Multicore Out-of-Order Simulator ***

Warmup Instructions: 10000000
Simulation Instructions: 50000000
Number of CPUs: 1
LLC sets: 2048
LLC ways: 16
Off-chip DRAM Size: 4096 MB Channels: 1 Width: 64-bit Data Rate: 6400 MT/s
CPU 0 runs traces/SPEC2017/605.mcf_s-994B.champsimtrace.xz
.xz
CPU 0 Bimodal branch predictor
BTB has LRU replacement policy
ITLB has LRU replacement policy
DTLB has LRU replacement policy
STLB has LRU replacement policy
L1I has LRU replacement policy
IP Table Entries: 256
L1D has LRU replacement policy
IP_Table L2 entries: 256
L2C has LRU replacement policy
Initialize Hawkeye state
Heartbeat CPU 0 instructions: 10000000 cycles: 3241492 heartbeat IPC: 3.085 cumulative IPC: 3.085 (Simulation time: 0 hr 17 min 49 sec) 

Warmup complete CPU 0 instructions: 10000004 cycles: 3241493 (Simulation time: 0 hr 17 min 49 sec) 

Heartbeat CPU 0 instructions: 20000000 cycles: 39573564 heartbeat IPC: 0.275239 cumulative IPC: 0.275239 (Simulation time: 0 hr 40 min 14 sec) 
Heartbeat CPU 0 instructions: 30000003 cycles: 78083787 heartbeat IPC: 0.259671 cumulative IPC: 0.267229 (Simulation time: 1 hr 2 min 48 sec) 
Heartbeat CPU 0 instructions: 40000001 cycles: 113381300 heartbeat IPC: 0.283306 cumulative IPC: 0.272381 (Simulation time: 1 hr 25 min 6 sec) 
Heartbeat CPU 0 instructions: 50000001 cycles: 205087622 heartbeat IPC: 0.109044 cumulative IPC: 0.198171 (Simulation time: 1 hr 50 min 40 sec) 
Heartbeat CPU 0 instructions: 60000000 cycles: 250276928 heartbeat IPC: 0.221291 cumulative IPC: 0.2024 (Simulation time: 2 hr 1 min 5 sec) 
Finished CPU 0 instructions: 50000000 cycles: 247035441 cumulative IPC: 0.2024 (Simulation time: 2 hr 1 min 5 sec) 

ChampSim completed all CPUs

Region of Interest Statistics

CPU 0 cumulative IPC: 0.2024 instructions: 50000000 cycles: 247035441
ITLB TOTAL     ACCESS:    8952507  HIT:    8952507  MISS:          0  HIT %:        100  MISS %:          0   MPKI: 0
ITLB LOAD TRANSLATION ACCESS:    8952507  HIT:    8952507  MISS:          0  HIT %:        100  MISS %:          0   MPKI: 0
ITLB PREFETCH  REQUESTED:          0  ISSUED:          0  USEFUL:          0  USELESS:          0
ITLB USEFUL LOAD PREFETCHES:          0 PREFETCH ISSUED TO LOWER LEVEL:          0  ACCURACY: -nan
ITLB TIMELY PREFETCHES:          0 LATE PREFETCHES: 0 DROPPED PREFETCHES: 0
ITLB PREFETCHES SAME FILL-ORIGIN LEVEL: 0 DIFFERENT FILL-ORIGIN LEVEL: 0
ITLB AVERAGE MISS LATENCY: -nan cycles
ITLB RQ	ACCESS:    9152140	FORWARD:          0	MERGED:     199635	TO_CACHE:    8952505

DTLB TOTAL     ACCESS:   16535739  HIT:   15801603  MISS:     734136  HIT %:    95.5603  MISS %:    4.43969   MPKI: 14.6827
DTLB LOAD TRANSLATION ACCESS:   16535739  HIT:   15801603  MISS:     734136  HIT %:    95.5603  MISS %:    4.43969   MPKI: 14.6827
DTLB PREFETCH  REQUESTED:          0  ISSUED:          0  USEFUL:          0  USELESS:          0
DTLB USEFUL LOAD PREFETCHES:          0 PREFETCH ISSUED TO LOWER LEVEL:          0  ACCURACY: -nan
DTLB TIMELY PREFETCHES:          0 LATE PREFETCHES: 0 DROPPED PREFETCHES: 0
DTLB PREFETCHES SAME FILL-ORIGIN LEVEL: 0 DIFFERENT FILL-ORIGIN LEVEL: 0
DTLB AVERAGE MISS LATENCY: 77.1382 cycles
DTLB RQ	ACCESS:   19372482	FORWARD:          0	MERGED:    2687686	TO_CACHE:   16684796

STLB TOTAL     ACCESS:    3723710  HIT:    3351352  MISS:     372358  HIT %:    90.0003  MISS %:    9.99965   MPKI: 7.44716
STLB LOAD TRANSLATION ACCESS:     734136  HIT:     361873  MISS:     372263  HIT %:    49.2924  MISS %:    50.7076   MPKI: 7.44526
STLB TRANSLATION FROM L1D PREFETCHER ACCESS:    2989574  HIT:    2989479  MISS:         95  HIT %:    99.9968  MISS %: 0.00317771   MPKI: 0.0019
STLB PREFETCH  REQUESTED:          0  ISSUED:          0  USEFUL:         92  USELESS:          3
STLB USEFUL LOAD PREFETCHES:         92 PREFETCH ISSUED TO LOWER LEVEL:          0  ACCURACY: inf
STLB TIMELY PREFETCHES:         92 LATE PREFETCHES: 0 DROPPED PREFETCHES: 0
STLB PREFETCHES SAME FILL-ORIGIN LEVEL: 0 DIFFERENT FILL-ORIGIN LEVEL: 0
STLB AVERAGE MISS LATENCY: 133.741 cycles
STLB RQ	ACCESS:    4475223	FORWARD:          0	MERGED:     751436	TO_CACHE:    3723787

STLB Hit, L1D data hit: 0
STLB Hit, L2C data hit: 0
STLB Hit, LLC data hit: 0
STLB Hit, LLC data miss: 0
STLB STLB hints to L2: 0
L1D TOTAL     ACCESS:   22626435  HIT:   19372959  MISS:    3253476  HIT %:    85.6209  MISS %:    14.3791   MPKI: 65.0695
L1D LOAD      ACCESS:   14078290  HIT:   12601595  MISS:    1476695  HIT %:    89.5108  MISS %:    10.4892   MPKI: 29.5339
L1D RFO       ACCESS:    5069361  HIT:    5055661  MISS:      13700  HIT %:    99.7297  MISS %:   0.270251   MPKI: 0.274
L1D PREFETCH  ACCESS:    3478784  HIT:    1715703  MISS:    1763081  HIT %:     49.319  MISS %:     50.681   MPKI: 35.2616
L1D PREFETCH  REQUESTED:    7484535  ISSUED:    7484534  USEFUL:     268140  USELESS:    1494838
L1D USEFUL LOAD PREFETCHES:     268140 PREFETCH ISSUED TO LOWER LEVEL:    1763316  ACCURACY: 15.2066
L1D TIMELY PREFETCHES:     268140 LATE PREFETCHES: 178001 DROPPED PREFETCHES: 0
L1D PREFETCHES SAME FILL-ORIGIN LEVEL: 1763316 DIFFERENT FILL-ORIGIN LEVEL: 0
L1D AVERAGE MISS LATENCY: 6663.14 cycles
L1D RQ	ACCESS:   17013580	FORWARD:          0	MERGED:    1600242	TO_CACHE:   14281506
L1D WQ	ACCESS:    5114926	FORWARD:    1134192	MERGED:      23950	TO_CACHE:    5090976
L1D PQ	ACCESS:    3743447	FORWARD:          0	MERGED:          0	TO_CACHE:    3741087

L1D UNIQUE REGIONS ACCESSED: 0
L1D REGIONS CONFLICTS: 0
L1D Cross Page Prefetch Requests: 0
L1D Same Page Prefetch Requests: 4417401
L1D ROI Sum of L1D PQ occupancy: 48655252
L1D PREFETCHES PUSHED FROM L2C: 0
L1I TOTAL     ACCESS:    9152142  HIT:    9152142  MISS:          0  HIT %:        100  MISS %:          0   MPKI: 0
L1I LOAD      ACCESS:    9152142  HIT:    9152142  MISS:          0  HIT %:        100  MISS %:          0   MPKI: 0
L1I PREFETCH  REQUESTED:          0  ISSUED:          0  USEFUL:          0  USELESS:          0
L1I USEFUL LOAD PREFETCHES:          0 PREFETCH ISSUED TO LOWER LEVEL:          0  ACCURACY: -nan
L1I TIMELY PREFETCHES:          0 LATE PREFETCHES: 0 DROPPED PREFETCHES: 0
L1I PREFETCHES SAME FILL-ORIGIN LEVEL: 0 DIFFERENT FILL-ORIGIN LEVEL: 0
L1I AVERAGE MISS LATENCY: -nan cycles
L1I RQ	ACCESS:   14774045	FORWARD:          0	MERGED:    5621905	TO_CACHE:    9152140

BTB TOTAL     ACCESS:   11195514  HIT:   10468271  MISS:     727243  HIT %:    93.5042  MISS %:    6.49584   MPKI: 14.5449
BTB BRANCH_DIRECT_JUMP	ACCESS:    1118881  HIT:    1118860  MISS:         21
BTB BRANCH_INDIRECT	ACCESS:          0  HIT:          0  MISS:          0
BTB BRANCH_CONDITIONAL	ACCESS:    6895963  HIT:    6895921  MISS:         42
BTB BRANCH_DIRECT_CALL	ACCESS:    1540838  HIT:    1540825  MISS:         13
BTB BRANCH_INDIRECT_CALL	ACCESS:      49500  HIT:      49492  MISS:          8
BTB BRANCH_RETURN	ACCESS:    1590332  HIT:     863173  MISS:     727159
BTB BRANCH_OTHER ACCESS:          0  HIT:          0  MISS:          0

L2C TOTAL     ACCESS:    4287733  HIT:    1842844  MISS:    2444889  HIT %:    42.9794  MISS %:    57.0206   MPKI: 48.8978
L2C LOAD      ACCESS:    1476692  HIT:     445349  MISS:    1031343  HIT %:    30.1586  MISS %:    69.8414   MPKI: 20.6269
L2C DATA LOAD MPKI: 20.6269
L2C INSTRUCTION LOAD MPKI: 0
L2C RFO       ACCESS:      13465  HIT:      11729  MISS:       1736  HIT %:    87.1073  MISS %:    12.8927   MPKI: 0.03472
L2C PREFETCH  ACCESS:    2046280  HIT:     764420  MISS:    1281860  HIT %:    37.3566  MISS %:    62.6434   MPKI: 25.6372
L2C DATA PREFETCH MPKI: 25.6372
L2C INSTRUCTION PREFETCH MPKI: 0
L2C WRITEBACK ACCESS:     142437  HIT:     142141  MISS:        296  HIT %:    99.7922  MISS %:   0.207811   MPKI: 0.00592
L2C LOAD TRANSLATION ACCESS:     608711  HIT:     479147  MISS:     129564  HIT %:     78.715  MISS %:     21.285   MPKI: 2.59128
L2C TRANSLATION FROM L1D PREFETCHER ACCESS:        148  HIT:         58  MISS:         90  HIT %:    39.1892  MISS %:    60.8108   MPKI: 0.0018
L2C PREFETCH  REQUESTED:     306109  ISSUED:     306109  USEFUL:      22998  USELESS:    1259421
L2C USEFUL LOAD PREFETCHES:      22998 PREFETCH ISSUED TO LOWER LEVEL:    1281863  ACCURACY: 1.79411
L2C TIMELY PREFETCHES:      22998 LATE PREFETCHES: 3 DROPPED PREFETCHES: 0
L2C PREFETCHES SAME FILL-ORIGIN LEVEL: 76950 DIFFERENT FILL-ORIGIN LEVEL: 0
L2C AVERAGE MISS LATENCY: 169.331 cycles
L2C RQ	ACCESS:    2099019	FORWARD:          0	MERGED:          0	TO_CACHE:    2099016
L2C WQ	ACCESS:     142437	FORWARD:          6	MERGED:          0	TO_CACHE:     142437
L2C PQ	ACCESS:    2069425	FORWARD:          0	MERGED:      23102	TO_CACHE:    2046320

L2C Instructions Evicting Data 0
L2C Translations Evicting Data 121706
L2C Data Evicting Data 2193754
L2C Instructions Evicting Instructions 0
L2C Translations Evicting Instructions 0
L2C Data Evicting Instructions 0
L2C Instructions Evicting Translations 0
L2C Translations Evicting Translations 7948
L2C Data Evicting Translations 121185
L2C Dense regions hint from L2: 0
PSCL5 TOTAL     ACCESS:     372358  HIT:     372358  MISS:          0  HIT %:        100  MISS %:          0   MPKI: 0
PSCL5 LOAD TRANSLATION ACCESS:     372263  HIT:     372263  MISS:          0  HIT %:        100  MISS %:          0   MPKI: 0
PSCL5 TRANSLATION FROM L1D PREFETCHER ACCESS:         95  HIT:         95  MISS:          0  HIT %:        100  MISS %:          0   MPKI: 0
PSCL5 PREFETCH  REQUESTED:          0  ISSUED:          0  USEFUL:          0  USELESS:          0
PSCL5 USEFUL LOAD PREFETCHES:          0 PREFETCH ISSUED TO LOWER LEVEL:          0  ACCURACY: -nan
PSCL5 TIMELY PREFETCHES:          0 LATE PREFETCHES: 0 DROPPED PREFETCHES: 0
PSCL5 PREFETCHES SAME FILL-ORIGIN LEVEL: 0 DIFFERENT FILL-ORIGIN LEVEL: 0

PSCL4 TOTAL     ACCESS:     372358  HIT:     372358  MISS:          0  HIT %:        100  MISS %:          0   MPKI: 0
PSCL4 LOAD TRANSLATION ACCESS:     372263  HIT:     372263  MISS:          0  HIT %:        100  MISS %:          0   MPKI: 0
PSCL4 TRANSLATION FROM L1D PREFETCHER ACCESS:         95  HIT:         95  MISS:          0  HIT %:        100  MISS %:          0   MPKI: 0
PSCL4 PREFETCH  REQUESTED:          0  ISSUED:          0  USEFUL:          0  USELESS:          0
PSCL4 USEFUL LOAD PREFETCHES:          0 PREFETCH ISSUED TO LOWER LEVEL:          0  ACCURACY: -nan
PSCL4 TIMELY PREFETCHES:          0 LATE PREFETCHES: 0 DROPPED PREFETCHES: 0
PSCL4 PREFETCHES SAME FILL-ORIGIN LEVEL: 0 DIFFERENT FILL-ORIGIN LEVEL: 0

PSCL3 TOTAL     ACCESS:     372358  HIT:     372358  MISS:          0  HIT %:        100  MISS %:          0   MPKI: 0
PSCL3 LOAD TRANSLATION ACCESS:     372263  HIT:     372263  MISS:          0  HIT %:        100  MISS %:          0   MPKI: 0
PSCL3 TRANSLATION FROM L1D PREFETCHER ACCESS:         95  HIT:         95  MISS:          0  HIT %:        100  MISS %:          0   MPKI: 0
PSCL3 PREFETCH  REQUESTED:          0  ISSUED:          0  USEFUL:          0  USELESS:          0
PSCL3 USEFUL LOAD PREFETCHES:          0 PREFETCH ISSUED TO LOWER LEVEL:          0  ACCURACY: -nan
PSCL3 TIMELY PREFETCHES:          0 LATE PREFETCHES: 0 DROPPED PREFETCHES: 0
PSCL3 PREFETCHES SAME FILL-ORIGIN LEVEL: 0 DIFFERENT FILL-ORIGIN LEVEL: 0

PSCL2 TOTAL     ACCESS:     372358  HIT:     135347  MISS:     237011  HIT %:    36.3486  MISS %:    63.6514   MPKI: 4.74022
PSCL2 LOAD TRANSLATION ACCESS:     372316  HIT:     135305  MISS:     237011  HIT %:    36.3414  MISS %:    63.6586   MPKI: 4.74022
PSCL2 TRANSLATION FROM L1D PREFETCHER ACCESS:         42  HIT:         42  MISS:          0  HIT %:        100  MISS %:          0   MPKI: 0
PSCL2 PREFETCH  REQUESTED:          0  ISSUED:          0  USEFUL:          0  USELESS:          0
PSCL2 USEFUL LOAD PREFETCHES:          0 PREFETCH ISSUED TO LOWER LEVEL:          0  ACCURACY: -nan
PSCL2 TIMELY PREFETCHES:          0 LATE PREFETCHES: 0 DROPPED PREFETCHES: 0
PSCL2 PREFETCHES SAME FILL-ORIGIN LEVEL: 0 DIFFERENT FILL-ORIGIN LEVEL: 0

LLC TOTAL     ACCESS:    2537197  HIT:     516408  MISS:    2020789  HIT %:    20.3535  MISS %:    79.6465   MPKI: 40.4158
LLC LOAD      ACCESS:    1031342  HIT:     270046  MISS:     761296  HIT %:    26.1839  MISS %:    73.8161   MPKI: 15.2259
LLC RFO       ACCESS:       1734  HIT:       1564  MISS:        170  HIT %:    90.1961  MISS %:    9.80392   MPKI: 0.0034
LLC PREFETCH  ACCESS:    1281862  HIT:     129753  MISS:    1152109  HIT %:    10.1222  MISS %:    89.8778   MPKI: 23.0422
LLC WRITEBACK ACCESS:      92605  HIT:      90116  MISS:       2489  HIT %:    97.3122  MISS %:    2.68776   MPKI: 0.04978
LLC LOAD TRANSLATION ACCESS:     129564  HIT:      24899  MISS:     104665  HIT %:    19.2175  MISS %:    80.7825   MPKI: 2.0933
LLC TRANSLATION FROM L1D PREFETCHER ACCESS:         90  HIT:         30  MISS:         60  HIT %:    33.3333  MISS %:    66.6667   MPKI: 0.0012
LLC PREFETCH  REQUESTED:          0  ISSUED:          0  USEFUL:       4990  USELESS:    1150423
LLC USEFUL LOAD PREFETCHES:       4990 PREFETCH ISSUED TO LOWER LEVEL:    1152109  ACCURACY: 0.433119
LLC TIMELY PREFETCHES:       4990 LATE PREFETCHES: 0 DROPPED PREFETCHES: 0
LLC PREFETCHES SAME FILL-ORIGIN LEVEL: 0 DIFFERENT FILL-ORIGIN LEVEL: 0
LLC AVERAGE MISS LATENCY: 167.585 cycles
LLC RQ	ACCESS:    1162730	FORWARD:          0	MERGED:          0	TO_CACHE:    1162730
LLC WQ	ACCESS:      92605	FORWARD:          1	MERGED:          0	TO_CACHE:      92605
LLC PQ	ACCESS:    1281863	FORWARD:          0	MERGED:          0	TO_CACHE:    1281862

LLC Dense regions hint to LLC: 0

RAW hits: 402405
Loads Generated: 17415986
Loads sent to L1D: 17013580
Stores Generated: 5114922
Stores sent to L1D: 5114926
Major fault: 0 Minor fault: 119985
Allocated PAGES: 119985

stream: 
stream:times selected: 5446678
stream:pref_filled: 1450561
stream:pref_useful: 196675
stream:pref_late: 177099
stream:misses: 475262
stream:misses_by_poll: 0

CS: 
CS:times selected: 277351
CS:pref_filled: 123184
CS:pref_useful: 118314
CS:pref_late: 25
CS:misses: 760
CS:misses_by_poll: 59

CPLX: 
CPLX:times selected: 5124067
CPLX:pref_filled: 436577
CPLX:pref_useful: 24321
CPLX:pref_late: 1777
CPLX:misses: 1422867
CPLX:misses_by_poll: 2654

NL_L1: 
NL:times selected: 54290
NL:pref_filled: 19146
NL:pref_useful: 3434
NL:pref_late: 2524
NL:misses: 19426
NL:misses_by_poll: 1

total selections: 10902386
total_filled: 1763081
total_useful: 268140
total_late: 181425
total_polluted: 2714
total_misses_after_warmup: 1679909
conflicts: 49550
Degree Incremented Times: 83626
Degree Decremented Times: 175078

L1 IP Table Write Accesses: 14179945
L1 IP Table Read Accesses: 14130395
L1 RST Write Accesses: 4552640
L1 RST Read Accesses: 9105280
L1 CSPT Write Accesses: 4552640
L1 CSPT Read Accesses: 8832387
L1 RR Filter Tag Write Accesses: 3743448
L1 RR Filter Tag Read Accesses: 158533335
L1 IP Table Tag Write Accesses: 14281504
L1 IP Table Tag Read Accesses: 14281504
L1 RST Tag Write Accesses: 0
L1 RST Tag Read Accesses: 42816988
L1 RR Filter Write Accesses: 0
L1 RR Filter Read Accesses: 5792856
test: 3173290
L2 IP Table Read Accesses: 6475446
L2 IP Table Write Accesses: 4998970
L2 IP Table Tag Read Accesses: 3238004
L2 IP Table Tag Write Accesses: 3238004

DRAM Statistics
 CHANNEL 0
 RQ ROW_BUFFER_HIT:     272815  ROW_BUFFER_MISS:    1745484
 DBUS_CONGESTED:        173
 WQ ROW_BUFFER_HIT:      18000  ROW_BUFFER_MISS:      36271  FULL:          0

 AVG_CONGESTED_CYCLE: 4
 All warmup complete: 2
Channel 0 Bank busy for read cycles: 0
Channel 0 Bank busy for write cycles: 0
Channel 0
Rank 0
0banks busy for read cycles: 98184384
0banks busy for write cycles: 32808
1banks busy for read cycles: 58532999
1banks busy for write cycles: 6599774
2banks busy for read cycles: 45748085
2banks busy for write cycles: 1762859
3banks busy for read cycles: 22368042
3banks busy for write cycles: 590876
4banks busy for read cycles: 8149496
4banks busy for write cycles: 212383
5banks busy for read cycles: 3121148
5banks busy for write cycles: 75865
6banks busy for read cycles: 1243218
6banks busy for write cycles: 30037
7banks busy for read cycles: 311108
7banks busy for write cycles: 8997
8banks busy for read cycles: 61382
8banks busy for write cycles: 1981

CPU 0 Branch Prediction Accuracy: 92.7543% MPKI: 18.162 Average ROB Occupancy at Mispredict: 16.5553
Branch types
NOT_BRANCH: 37466601 74.9332%
BRANCH_DIRECT_JUMP: 1118881 2.23776%
BRANCH_INDIRECT: 0 0%
BRANCH_CONDITIONAL: 8233493 16.467%
BRANCH_DIRECT_CALL: 1540838 3.08168%
BRANCH_INDIRECT_CALL: 49500 0.099%
BRANCH_RETURN: 1590332 3.18066%
BRANCH_OTHER: 0 0%

@sumon_overall_L1D    268140    178001    178001   1494838   1763081   7484534   7484535
@Sumon_Early_by_class_L1D    140573    103134     22035      2465
@Sumon_Late_by_class_L1D    173614        23      1742      2465

@Sumon_Early_by_cycle_L1D     65791     18067      6340      3522      3195     17829     30725     44779     52439     19556      5052       845
@Sumon_Late_by_cycle_L1D     66925     16968     24132      6062     63739        18
@Sumon_Early_stream_L1D     64257     17022      5576      2805      2290      8556      8251     10437     11757      7573      1907       142
@Sumon_Early_CS_L1D        82       313       227       306       442      7309     20227     31204     36310      6427       198        89
@Sumon_Early_CPLX_L1D       786       515       443       351       404      1583      1849      2888      4229      5451      2923       613
@Sumon_Late_stream_L1D     65336     16528     23326      5944     62462        18
@Sumon_Late_CS_L1D         9         3         7         1         3         0
@Sumon_Late_CPLX_L1D       647       180       382        62       471         0
@sumon_overall_L2C     22998         3         0   1259421   1281950    306109    306109
@Sumon_Early_by_class_L2C     17425      3163      1957         0
@Sumon_Late_by_class_L2C         0         1         0         0

@Sumon_Early_by_cycle_L2C         4         5         1         2         3        17        32        40        98      1130      2503     19163
@Sumon_Late_by_cycle_L2C         0         0         1         0         2         0
@Sumon_Early_stream_L2C         2         1         0         0         0         0         0         0        51       830      2021     14520
@Sumon_Early_CS_L2C         1         4         1         2         3        17        30        38        27        98       158      2784
@Sumon_Early_CPLX_L2C         0         0         0         0         0         0         0         2        17       170       260      1508
@Sumon_Late_stream_L2C         0         0         0         0         0         0
@Sumon_Late_CS_L2C         0         0         0         0         1         0
@Sumon_Late_CPLX_L2C         0         0         0         0         0         0
DRAM PAGES: 1048576
Allocated PAGES: 119985
