
*** ChampSim Multicore Out-of-Order Simulator ***

Warmup Instructions: 50000000
Simulation Instructions: 50000000
Number of CPUs: 1
LLC sets: 2048
LLC ways: 16
Off-chip DRAM Size: 4096 MB Channels: 1 Width: 64-bit Data Rate: 6400 MT/s
CPU 0 runs ../../biswa/SPEC2017Traces/603.bwaves_s-891B.champsimtrace.xz
.xz
CPU 0 Bimodal branch predictor
BTB has LRU replacement policy
ITLB has LRU replacement policy
DTLB has LRU replacement policy
STLB has LRU replacement policy
L1I has LRU replacement policy
L1D has LRU replacement policy
Initialize DRRIP state for L2C
LLC has LRU replacement policy
Heartbeat CPU 0 instructions: 10000003 cycles: 2716414 heartbeat IPC: 3.68133 cumulative IPC: 3.68133 (Simulation time: 0 hr 1 min 11 sec) 
Heartbeat CPU 0 instructions: 20000003 cycles: 5432808 heartbeat IPC: 3.68135 cumulative IPC: 3.68134 (Simulation time: 0 hr 2 min 24 sec) 
Heartbeat CPU 0 instructions: 30000002 cycles: 8149197 heartbeat IPC: 3.68136 cumulative IPC: 3.68134 (Simulation time: 0 hr 3 min 35 sec) 
Heartbeat CPU 0 instructions: 40000000 cycles: 10865587 heartbeat IPC: 3.68136 cumulative IPC: 3.68135 (Simulation time: 0 hr 4 min 48 sec) 
Heartbeat CPU 0 instructions: 50000002 cycles: 13782521 heartbeat IPC: 3.42826 cumulative IPC: 3.62778 (Simulation time: 0 hr 5 min 56 sec) 

Warmup complete CPU 0 instructions: 50000002 cycles: 13782521 (Simulation time: 0 hr 5 min 56 sec) 

Heartbeat CPU 0 instructions: 60000003 cycles: 32569465 heartbeat IPC: 0.532285 cumulative IPC: 0.532285 (Simulation time: 0 hr 8 min 37 sec) 
Heartbeat CPU 0 instructions: 70000001 cycles: 51354502 heartbeat IPC: 0.532339 cumulative IPC: 0.532312 (Simulation time: 0 hr 11 min 36 sec) 
Heartbeat CPU 0 instructions: 80000002 cycles: 70140465 heartbeat IPC: 0.532312 cumulative IPC: 0.532312 (Simulation time: 0 hr 14 min 22 sec) 
Heartbeat CPU 0 instructions: 90000001 cycles: 88921855 heartbeat IPC: 0.532442 cumulative IPC: 0.532344 (Simulation time: 0 hr 17 min 11 sec) 
Heartbeat CPU 0 instructions: 100000002 cycles: 107704571 heartbeat IPC: 0.532404 cumulative IPC: 0.532356 (Simulation time: 0 hr 19 min 49 sec) 
Finished CPU 0 instructions: 50000000 cycles: 93922050 cumulative IPC: 0.532356 (Simulation time: 0 hr 19 min 49 sec) 

ChampSim completed all CPUs

Region of Interest Statistics

CPU 0 cumulative IPC: 0.532356 instructions: 50000000 cycles: 93922050
ITLB TOTAL     ACCESS:    7492621  HIT:    7492621  MISS:          0  HIT %:        100  MISS %:          0   MPKI: 0
ITLB LOAD TRANSLATION ACCESS:    7492621  HIT:    7492621  MISS:          0  HIT %:        100  MISS %:          0   MPKI: 0
ITLB PREFETCH  REQUESTED:          0  ISSUED:          0  USEFUL:          0  USELESS:          0
ITLB USEFUL LOAD PREFETCHES:          0 PREFETCH ISSUED TO LOWER LEVEL:          0  ACCURACY: -nan
ITLB TIMELY PREFETCHES:          0 LATE PREFETCHES: 0 DROPPED PREFETCHES: 0
ITLB PREFETCHES SAME FILL-ORIGIN LEVEL: 0 DIFFERENT FILL-ORIGIN LEVEL: 0
ITLB AVERAGE MISS LATENCY: -nan cycles
ITLB RQ	ACCESS:    7492886	FORWARD:          0	MERGED:        265	TO_CACHE:    7492621

Revised Interactions: positive negative neutral
ITLB_interactions 0 0 0 -nan -nan -nan
ITLB_positive -nan -nan -nan
ITLB_negative -nan -nan -nan -nan -nan
ITLB_neutral -nan -nan -nan
DTLB TOTAL     ACCESS:    4976949  HIT:    4964685  MISS:      12264  HIT %:    99.7536  MISS %:   0.246416   MPKI: 0.24528
DTLB LOAD TRANSLATION ACCESS:    4976949  HIT:    4964685  MISS:      12264  HIT %:    99.7536  MISS %:   0.246416   MPKI: 0.24528
DTLB PREFETCH  REQUESTED:          0  ISSUED:          0  USEFUL:          0  USELESS:          0
DTLB USEFUL LOAD PREFETCHES:          0 PREFETCH ISSUED TO LOWER LEVEL:          0  ACCURACY: -nan
DTLB TIMELY PREFETCHES:          0 LATE PREFETCHES: 0 DROPPED PREFETCHES: 0
DTLB PREFETCHES SAME FILL-ORIGIN LEVEL: 0 DIFFERENT FILL-ORIGIN LEVEL: 0
DTLB AVERAGE MISS LATENCY: 144.058 cycles
DTLB RQ	ACCESS:    5204755	FORWARD:          0	MERGED:     225789	TO_CACHE:    4978966

Revised Interactions: positive negative neutral
DTLB_interactions 0 0 0 -nan -nan -nan
DTLB_positive -nan -nan -nan
DTLB_negative -nan -nan -nan -nan -nan
DTLB_neutral -nan -nan -nan
STLB TOTAL     ACCESS:      12264  HIT:         88  MISS:      12176  HIT %:   0.717547  MISS %:    99.2825   MPKI: 0.24352
STLB LOAD TRANSLATION ACCESS:      12264  HIT:         88  MISS:      12176  HIT %:   0.717547  MISS %:    99.2825   MPKI: 0.24352
STLB PREFETCH  REQUESTED:          0  ISSUED:          0  USEFUL:          0  USELESS:          0
STLB USEFUL LOAD PREFETCHES:          0 PREFETCH ISSUED TO LOWER LEVEL:          0  ACCURACY: -nan
STLB TIMELY PREFETCHES:          0 LATE PREFETCHES: 0 DROPPED PREFETCHES: 0
STLB PREFETCHES SAME FILL-ORIGIN LEVEL: 0 DIFFERENT FILL-ORIGIN LEVEL: 0
STLB AVERAGE MISS LATENCY: 136.034 cycles
STLB RQ	ACCESS:      12264	FORWARD:          0	MERGED:          0	TO_CACHE:      12264

Revised Interactions: positive negative neutral
STLB_interactions 0 0 0 -nan -nan -nan
STLB_positive -nan -nan -nan
STLB_negative -nan -nan -nan -nan -nan
STLB_neutral -nan -nan -nan
STLB Hit, L1D data hit: 0
STLB Hit, L2C data hit: 0
STLB Hit, LLC data hit: 0
STLB Hit, LLC data miss: 0
STLB STLB hints to L2: 0
L1D TOTAL     ACCESS:    3141272  HIT:    2361845  MISS:     779427  HIT %:    75.1875  MISS %:    24.8125   MPKI: 15.5885
L1D LOAD      ACCESS:    2286645  HIT:    1507218  MISS:     779427  HIT %:    65.9139  MISS %:    34.0861   MPKI: 15.5885
L1D RFO       ACCESS:     854627  HIT:     854627  MISS:          0  HIT %:        100  MISS %:          0   MPKI: 0
L1D PREFETCH  REQUESTED:          0  ISSUED:          0  USEFUL:          0  USELESS:          0
L1D USEFUL LOAD PREFETCHES:          0 PREFETCH ISSUED TO LOWER LEVEL:          0  ACCURACY: -nan
L1D TIMELY PREFETCHES:          0 LATE PREFETCHES: 0 DROPPED PREFETCHES: 0
L1D PREFETCHES SAME FILL-ORIGIN LEVEL: 0 DIFFERENT FILL-ORIGIN LEVEL: 0
L1D AVERAGE MISS LATENCY: 116.507 cycles
L1D RQ	ACCESS:    7515794	FORWARD:          0	MERGED:    3165666	TO_CACHE:    4350128
L1D WQ	ACCESS:    1246801	FORWARD:          0	MERGED:     392174	TO_CACHE:     854627

Revised Interactions: positive negative neutral
L1D_interactions 0 0 0 -nan -nan -nan
L1D_positive -nan -nan -nan
L1D_negative -nan -nan -nan -nan -nan
L1D_neutral -nan -nan -nan
L1D UNIQUE REGIONS ACCESSED: 0
L1D REGIONS CONFLICTS: 0
L1D Cross Page Prefetch Requests: 0
L1D Same Page Prefetch Requests: 0
L1D ROI Sum of L1D PQ occupancy: 0
L1D PREFETCHES PUSHED FROM L2C: 0
L1I TOTAL     ACCESS:    7492886  HIT:    7492886  MISS:          0  HIT %:        100  MISS %:          0   MPKI: 0
L1I LOAD      ACCESS:    7492886  HIT:    7492886  MISS:          0  HIT %:        100  MISS %:          0   MPKI: 0
L1I PREFETCH  REQUESTED:          0  ISSUED:          0  USEFUL:          0  USELESS:          0
L1I USEFUL LOAD PREFETCHES:          0 PREFETCH ISSUED TO LOWER LEVEL:          0  ACCURACY: -nan
L1I TIMELY PREFETCHES:          0 LATE PREFETCHES: 0 DROPPED PREFETCHES: 0
L1I PREFETCHES SAME FILL-ORIGIN LEVEL: 0 DIFFERENT FILL-ORIGIN LEVEL: 0
L1I AVERAGE MISS LATENCY: -nan cycles
L1I RQ	ACCESS:   11223229	FORWARD:          0	MERGED:    3730343	TO_CACHE:    7492886

Revised Interactions: positive negative neutral
L1I_interactions 0 0 0 -nan -nan -nan
L1I_positive -nan -nan -nan
L1I_negative -nan -nan -nan -nan -nan
L1I_neutral -nan -nan -nan
BTB TOTAL     ACCESS:    7492444  HIT:    7492440  MISS:          4  HIT %:    99.9999  MISS %: 5.33871e-05   MPKI: 8e-05
BTB BRANCH_DIRECT_JUMP	ACCESS:          0  HIT:          0  MISS:          0
BTB BRANCH_INDIRECT	ACCESS:          0  HIT:          0  MISS:          0
BTB BRANCH_CONDITIONAL	ACCESS:    7492444  HIT:    7492440  MISS:          4
BTB BRANCH_DIRECT_CALL	ACCESS:          0  HIT:          0  MISS:          0
BTB BRANCH_INDIRECT_CALL	ACCESS:          0  HIT:          0  MISS:          0
BTB BRANCH_RETURN	ACCESS:          0  HIT:          0  MISS:          0
BTB BRANCH_OTHER ACCESS:          0  HIT:          0  MISS:          0

L2C TOTAL     ACCESS:     791603  HIT:      10657  MISS:     780946  HIT %:    1.34626  MISS %:    98.6537   MPKI: 15.6189
L2C LOAD      ACCESS:     779427  HIT:         30  MISS:     779397  HIT %: 0.00384898  MISS %:    99.9962   MPKI: 15.5879
L2C DATA LOAD MPKI: 15.5879
L2C INSTRUCTION LOAD MPKI: 0
L2C LOAD TRANSLATION ACCESS:      12176  HIT:      10627  MISS:       1549  HIT %:    87.2783  MISS %:    12.7217   MPKI: 0.03098
L2C PREFETCH  REQUESTED:          0  ISSUED:          0  USEFUL:          0  USELESS:          0
L2C USEFUL LOAD PREFETCHES:          0 PREFETCH ISSUED TO LOWER LEVEL:          0  ACCURACY: -nan
L2C TIMELY PREFETCHES:          0 LATE PREFETCHES: 0 DROPPED PREFETCHES: 0
L2C PREFETCHES SAME FILL-ORIGIN LEVEL: 0 DIFFERENT FILL-ORIGIN LEVEL: 0
L2C AVERAGE MISS LATENCY: 101.672 cycles
L2C RQ	ACCESS:     791604	FORWARD:          0	MERGED:          0	TO_CACHE:     791604

Revised Interactions: positive negative neutral
L2C_interactions 0 0 0 -nan -nan -nan
L2C_positive -nan -nan -nan
L2C_negative -nan -nan -nan -nan -nan
L2C_neutral -nan -nan -nan
L2C Instructions Evicting Data 0
L2C Translations Evicting Data 1549
L2C Data Evicting Data 777871
L2C Instructions Evicting Instructions 0
L2C Translations Evicting Instructions 0
L2C Data Evicting Instructions 0
L2C Instructions Evicting Translations 0
L2C Translations Evicting Translations 0
L2C Data Evicting Translations 1526
L2C Dense regions hint from L2: 0
PSCL5 TOTAL     ACCESS:      12176  HIT:      12176  MISS:          0  HIT %:        100  MISS %:          0   MPKI: 0
PSCL5 LOAD TRANSLATION ACCESS:      12176  HIT:      12176  MISS:          0  HIT %:        100  MISS %:          0   MPKI: 0
PSCL5 PREFETCH  REQUESTED:          0  ISSUED:          0  USEFUL:          0  USELESS:          0
PSCL5 USEFUL LOAD PREFETCHES:          0 PREFETCH ISSUED TO LOWER LEVEL:          0  ACCURACY: -nan
PSCL5 TIMELY PREFETCHES:          0 LATE PREFETCHES: 0 DROPPED PREFETCHES: 0
PSCL5 PREFETCHES SAME FILL-ORIGIN LEVEL: 0 DIFFERENT FILL-ORIGIN LEVEL: 0

Revised Interactions: positive negative neutral
PSCL5_interactions 0 0 0 -nan -nan -nan
PSCL5_positive -nan -nan -nan
PSCL5_negative -nan -nan -nan -nan -nan
PSCL5_neutral -nan -nan -nan
PSCL4 TOTAL     ACCESS:      12176  HIT:      12176  MISS:          0  HIT %:        100  MISS %:          0   MPKI: 0
PSCL4 LOAD TRANSLATION ACCESS:      12176  HIT:      12176  MISS:          0  HIT %:        100  MISS %:          0   MPKI: 0
PSCL4 PREFETCH  REQUESTED:          0  ISSUED:          0  USEFUL:          0  USELESS:          0
PSCL4 USEFUL LOAD PREFETCHES:          0 PREFETCH ISSUED TO LOWER LEVEL:          0  ACCURACY: -nan
PSCL4 TIMELY PREFETCHES:          0 LATE PREFETCHES: 0 DROPPED PREFETCHES: 0
PSCL4 PREFETCHES SAME FILL-ORIGIN LEVEL: 0 DIFFERENT FILL-ORIGIN LEVEL: 0

Revised Interactions: positive negative neutral
PSCL4_interactions 0 0 0 -nan -nan -nan
PSCL4_positive -nan -nan -nan
PSCL4_negative -nan -nan -nan -nan -nan
PSCL4_neutral -nan -nan -nan
PSCL3 TOTAL     ACCESS:      12176  HIT:      12176  MISS:          0  HIT %:        100  MISS %:          0   MPKI: 0
PSCL3 LOAD TRANSLATION ACCESS:      12176  HIT:      12176  MISS:          0  HIT %:        100  MISS %:          0   MPKI: 0
PSCL3 PREFETCH  REQUESTED:          0  ISSUED:          0  USEFUL:          0  USELESS:          0
PSCL3 USEFUL LOAD PREFETCHES:          0 PREFETCH ISSUED TO LOWER LEVEL:          0  ACCURACY: -nan
PSCL3 TIMELY PREFETCHES:          0 LATE PREFETCHES: 0 DROPPED PREFETCHES: 0
PSCL3 PREFETCHES SAME FILL-ORIGIN LEVEL: 0 DIFFERENT FILL-ORIGIN LEVEL: 0

Revised Interactions: positive negative neutral
PSCL3_interactions 0 0 0 -nan -nan -nan
PSCL3_positive -nan -nan -nan
PSCL3_negative -nan -nan -nan -nan -nan
PSCL3_neutral -nan -nan -nan
PSCL2 TOTAL     ACCESS:      12176  HIT:      12152  MISS:         24  HIT %:    99.8029  MISS %:   0.197109   MPKI: 0.00048
PSCL2 LOAD TRANSLATION ACCESS:      12176  HIT:      12152  MISS:         24  HIT %:    99.8029  MISS %:   0.197109   MPKI: 0.00048
PSCL2 PREFETCH  REQUESTED:          0  ISSUED:          0  USEFUL:          0  USELESS:          0
PSCL2 USEFUL LOAD PREFETCHES:          0 PREFETCH ISSUED TO LOWER LEVEL:          0  ACCURACY: -nan
PSCL2 TIMELY PREFETCHES:          0 LATE PREFETCHES: 0 DROPPED PREFETCHES: 0
PSCL2 PREFETCHES SAME FILL-ORIGIN LEVEL: 0 DIFFERENT FILL-ORIGIN LEVEL: 0

Revised Interactions: positive negative neutral
PSCL2_interactions 0 0 0 -nan -nan -nan
PSCL2_positive -nan -nan -nan
PSCL2_negative -nan -nan -nan -nan -nan
PSCL2_neutral -nan -nan -nan
LLC TOTAL     ACCESS:     781073  HIT:        153  MISS:     780920  HIT %:  0.0195884  MISS %:    99.9804   MPKI: 15.6184
LLC LOAD      ACCESS:     779397  HIT:        146  MISS:     779251  HIT %:  0.0187324  MISS %:    99.9813   MPKI: 15.585
LLC WRITEBACK ACCESS:        127  HIT:          0  MISS:        127  HIT %:          0  MISS %:        100   MPKI: 0.00254
LLC LOAD TRANSLATION ACCESS:       1549  HIT:          7  MISS:       1542  HIT %:   0.451904  MISS %:    99.5481   MPKI: 0.03084
LLC PREFETCH  REQUESTED:          0  ISSUED:          0  USEFUL:          0  USELESS:          0
LLC USEFUL LOAD PREFETCHES:          0 PREFETCH ISSUED TO LOWER LEVEL:          0  ACCURACY: -nan
LLC TIMELY PREFETCHES:          0 LATE PREFETCHES: 0 DROPPED PREFETCHES: 0
LLC PREFETCHES SAME FILL-ORIGIN LEVEL: 0 DIFFERENT FILL-ORIGIN LEVEL: 0
LLC AVERAGE MISS LATENCY: 71.2774 cycles
LLC RQ	ACCESS:     780947	FORWARD:          0	MERGED:          0	TO_CACHE:     780947
LLC WQ	ACCESS:        127	FORWARD:          0	MERGED:          0	TO_CACHE:        127

Revised Interactions: positive negative neutral
LLC_interactions 0 0 0 -nan -nan -nan
LLC_positive -nan -nan -nan
LLC_negative -nan -nan -nan -nan -nan
LLC_neutral -nan -nan -nan
LLC Dense regions hint to LLC: 0

RAW hits: 0
Loads Generated: 7515794
Loads sent to L1D: 7515794
Stores Generated: 1246801
Stores sent to L1D: 1246801
Major fault: 0 Minor fault: 32181
Allocated PAGES: 32181

DRAM Statistics
 CHANNEL 0
 RQ ROW_BUFFER_HIT:     770729  ROW_BUFFER_MISS:      10064
 DBUS_CONGESTED:          0
 WQ ROW_BUFFER_HIT:        105  ROW_BUFFER_MISS:         47  FULL:          0

 AVG_CONGESTED_CYCLE: -
 All warmup complete: 2
Channel 0 Bank busy for read cycles: 0
Channel 0 Bank busy for write cycles: 0
Channel 0
Rank 0
0banks busy for read cycles: 54222904
0banks busy for write cycles: 148
1banks busy for read cycles: 39305221
1banks busy for write cycles: 43049
2banks busy for read cycles: 308177
2banks busy for write cycles: 1054
3banks busy for read cycles: 41498
3banks busy for write cycles: 0
4banks busy for read cycles: 0
4banks busy for write cycles: 0
5banks busy for read cycles: 0
5banks busy for write cycles: 0
6banks busy for read cycles: 0
6banks busy for write cycles: 0
7banks busy for read cycles: 0
7banks busy for write cycles: 0
8banks busy for read cycles: 0
8banks busy for write cycles: 0

CPU 0 Branch Prediction Accuracy: 85.6193% MPKI: 25.1687 Average ROB Occupancy at Mispredict: 59.3693
Branch types
NOT_BRANCH: 41249159 82.4983%
BRANCH_DIRECT_JUMP: 0 0%
BRANCH_INDIRECT: 0 0%
BRANCH_CONDITIONAL: 8750879 17.5018%
BRANCH_DIRECT_CALL: 0 0%
BRANCH_INDIRECT_CALL: 0 0%
BRANCH_RETURN: 0 0%
BRANCH_OTHER: 0 0%

@sumon_overall_L1D         0         0         0         0         0         0         0
@Sumon_Early_by_class_L1D         0         0         0         0
@Sumon_Late_by_class_L1D         0         0         0         0

@Sumon_Early_by_cycle_L1D         0         0         0         0         0         0         0         0         0         0         0         0
@Sumon_Late_by_cycle_L1D         0         0         0         0         0         0
@Sumon_Early_stream_L1D         0         0         0         0         0         0         0         0         0         0         0         0
@Sumon_Early_CS_L1D         0         0         0         0         0         0         0         0         0         0         0         0
@Sumon_Early_CPLX_L1D         0         0         0         0         0         0         0         0         0         0         0         0
@Sumon_Late_stream_L1D         0         0         0         0         0         0
@Sumon_Late_CS_L1D         0         0         0         0         0         0
@Sumon_Late_CPLX_L1D         0         0         0         0         0         0
@sumon_overall_L2C         0         0         0         0         0         0         0
@Sumon_Early_by_class_L2C         0         0         0         0
@Sumon_Late_by_class_L2C         0         0         0         0

@Sumon_Early_by_cycle_L2C         0         0         0         0         0         0         0         0         0         0         0         0
@Sumon_Late_by_cycle_L2C         0         0         0         0         0         0
@Sumon_Early_stream_L2C         0         0         0         0         0         0         0         0         0         0         0         0
@Sumon_Early_CS_L2C         0         0         0         0         0         0         0         0         0         0         0         0
@Sumon_Early_CPLX_L2C         0         0         0         0         0         0         0         0         0         0         0         0
@Sumon_Late_stream_L2C         0         0         0         0         0         0
@Sumon_Late_CS_L2C         0         0         0         0         0         0
@Sumon_Late_CPLX_L2C         0         0         0         0         0         0
DRAM PAGES: 1048576
Allocated PAGES: 32181
