
*** ChampSim Multicore Out-of-Order Simulator ***

Warmup Instructions: 50000000
Simulation Instructions: 50000000
Number of CPUs: 1
LLC sets: 2048
LLC ways: 16
Off-chip DRAM Size: 4096 MB Channels: 1 Width: 64-bit Data Rate: 6400 MT/s
CPU 0 runs ../../biswa/SPEC2017Traces/605.mcf_s-472B.champsimtrace.xz
.xz
CPU 0 Bimodal branch predictor
BTB has LRU replacement policy
ITLB has LRU replacement policy
DTLB has LRU replacement policy
STLB has LRU replacement policy
L1I has LRU replacement policy
L1D has LRU replacement policy
Initialize DRRIP state for L2C
LLC has LRU replacement policy
Heartbeat CPU 0 instructions: 10000001 cycles: 3248381 heartbeat IPC: 3.07846 cumulative IPC: 3.07846 (Simulation time: 0 hr 2 min 52 sec) 
Heartbeat CPU 0 instructions: 20000003 cycles: 6658837 heartbeat IPC: 2.93216 cumulative IPC: 3.00353 (Simulation time: 0 hr 6 min 15 sec) 
Heartbeat CPU 0 instructions: 30000002 cycles: 10153853 heartbeat IPC: 2.86122 cumulative IPC: 2.95454 (Simulation time: 0 hr 9 min 56 sec) 
Heartbeat CPU 0 instructions: 40000003 cycles: 13429698 heartbeat IPC: 3.05265 cumulative IPC: 2.97847 (Simulation time: 0 hr 13 min 35 sec) 
Heartbeat CPU 0 instructions: 50000001 cycles: 16727893 heartbeat IPC: 3.03196 cumulative IPC: 2.98902 (Simulation time: 0 hr 16 min 38 sec) 

Warmup complete CPU 0 instructions: 50000001 cycles: 16727893 (Simulation time: 0 hr 16 min 38 sec) 

Heartbeat CPU 0 instructions: 60000001 cycles: 56722400 heartbeat IPC: 0.250034 cumulative IPC: 0.250034 (Simulation time: 0 hr 21 min 31 sec) 
Heartbeat CPU 0 instructions: 70000002 cycles: 94491185 heartbeat IPC: 0.264769 cumulative IPC: 0.257191 (Simulation time: 0 hr 25 min 56 sec) 
Heartbeat CPU 0 instructions: 80000003 cycles: 142271394 heartbeat IPC: 0.209292 cumulative IPC: 0.238961 (Simulation time: 0 hr 29 min 27 sec) 
Heartbeat CPU 0 instructions: 90000000 cycles: 179088664 heartbeat IPC: 0.271612 cumulative IPC: 0.246365 (Simulation time: 0 hr 30 min 50 sec) 
Heartbeat CPU 0 instructions: 100000002 cycles: 223673453 heartbeat IPC: 0.224292 cumulative IPC: 0.241609 (Simulation time: 0 hr 31 min 42 sec) 
Finished CPU 0 instructions: 50000001 cycles: 206945560 cumulative IPC: 0.241609 (Simulation time: 0 hr 31 min 42 sec) 

ChampSim completed all CPUs

Region of Interest Statistics

CPU 0 cumulative IPC: 0.241609 instructions: 50000001 cycles: 206945560
ITLB TOTAL     ACCESS:    8811659  HIT:    8811659  MISS:          0  HIT %:        100  MISS %:          0   MPKI: 0
ITLB LOAD TRANSLATION ACCESS:    8811659  HIT:    8811659  MISS:          0  HIT %:        100  MISS %:          0   MPKI: 0
ITLB PREFETCH  REQUESTED:          0  ISSUED:          0  USEFUL:          0  USELESS:          0
ITLB USEFUL LOAD PREFETCHES:          0 PREFETCH ISSUED TO LOWER LEVEL:          0  ACCURACY: -nan
ITLB TIMELY PREFETCHES:          0 LATE PREFETCHES: 0 DROPPED PREFETCHES: 0
ITLB PREFETCHES SAME FILL-ORIGIN LEVEL: 0 DIFFERENT FILL-ORIGIN LEVEL: 0
ITLB AVERAGE MISS LATENCY: -nan cycles
ITLB RQ	ACCESS:   11346693	FORWARD:          0	MERGED:    2535035	TO_CACHE:    8811658

Revised Interactions: positive negative neutral
ITLB_interactions 0 0 0 -nan -nan -nan
ITLB_positive -nan -nan -nan
ITLB_negative -nan -nan -nan -nan -nan
ITLB_neutral -nan -nan -nan
DTLB TOTAL     ACCESS:   13859505  HIT:   13717100  MISS:     142405  HIT %:    98.9725  MISS %:    1.02749   MPKI: 2.8481
DTLB LOAD TRANSLATION ACCESS:   13859505  HIT:   13717100  MISS:     142405  HIT %:    98.9725  MISS %:    1.02749   MPKI: 2.8481
DTLB PREFETCH  REQUESTED:          0  ISSUED:          0  USEFUL:          0  USELESS:          0
DTLB USEFUL LOAD PREFETCHES:          0 PREFETCH ISSUED TO LOWER LEVEL:          0  ACCURACY: -nan
DTLB TIMELY PREFETCHES:          0 LATE PREFETCHES: 0 DROPPED PREFETCHES: 0
DTLB PREFETCHES SAME FILL-ORIGIN LEVEL: 0 DIFFERENT FILL-ORIGIN LEVEL: 0
DTLB AVERAGE MISS LATENCY: 26.3938 cycles
DTLB RQ	ACCESS:   22800039	FORWARD:          0	MERGED:    8920809	TO_CACHE:   13879230

Revised Interactions: positive negative neutral
DTLB_interactions 0 0 0 -nan -nan -nan
DTLB_positive -nan -nan -nan
DTLB_negative -nan -nan -nan -nan -nan
DTLB_neutral -nan -nan -nan
STLB TOTAL     ACCESS:     142405  HIT:      77642  MISS:      64763  HIT %:     54.522  MISS %:     45.478   MPKI: 1.29526
STLB LOAD TRANSLATION ACCESS:     142405  HIT:      77642  MISS:      64763  HIT %:     54.522  MISS %:     45.478   MPKI: 1.29526
STLB PREFETCH  REQUESTED:          0  ISSUED:          0  USEFUL:          0  USELESS:          0
STLB USEFUL LOAD PREFETCHES:          0 PREFETCH ISSUED TO LOWER LEVEL:          0  ACCURACY: -nan
STLB TIMELY PREFETCHES:          0 LATE PREFETCHES: 0 DROPPED PREFETCHES: 0
STLB PREFETCHES SAME FILL-ORIGIN LEVEL: 0 DIFFERENT FILL-ORIGIN LEVEL: 0
STLB AVERAGE MISS LATENCY: 38.2345 cycles
STLB RQ	ACCESS:     142405	FORWARD:          0	MERGED:          0	TO_CACHE:     142405

Revised Interactions: positive negative neutral
STLB_interactions 0 0 0 -nan -nan -nan
STLB_positive -nan -nan -nan
STLB_negative -nan -nan -nan -nan -nan
STLB_neutral -nan -nan -nan
STLB Hit, L1D data hit: 0
STLB Hit, L2C data hit: 0
STLB Hit, LLC data hit: 0
STLB Hit, LLC data miss: 0
STLB STLB hints to L2: 0
L1D TOTAL     ACCESS:   22145400  HIT:   19638752  MISS:    2506648  HIT %:     88.681  MISS %:     11.319   MPKI: 50.133
L1D LOAD      ACCESS:   10400151  HIT:    8012517  MISS:    2387634  HIT %:    77.0423  MISS %:    22.9577   MPKI: 47.7527
L1D RFO       ACCESS:   11745249  HIT:   11626235  MISS:     119014  HIT %:    98.9867  MISS %:    1.01329   MPKI: 2.38028
L1D PREFETCH  REQUESTED:          0  ISSUED:          0  USEFUL:          0  USELESS:          0
L1D USEFUL LOAD PREFETCHES:          0 PREFETCH ISSUED TO LOWER LEVEL:          0  ACCURACY: -nan
L1D TIMELY PREFETCHES:          0 LATE PREFETCHES: 0 DROPPED PREFETCHES: 0
L1D PREFETCHES SAME FILL-ORIGIN LEVEL: 0 DIFFERENT FILL-ORIGIN LEVEL: 0
L1D AVERAGE MISS LATENCY: 172.504 cycles
L1D RQ	ACCESS:   16791567	FORWARD:          0	MERGED:    6065322	TO_CACHE:   10717396
L1D WQ	ACCESS:   12292019	FORWARD:       8849	MERGED:     209376	TO_CACHE:   12082643

Revised Interactions: positive negative neutral
L1D_interactions 0 0 0 -nan -nan -nan
L1D_positive -nan -nan -nan
L1D_negative -nan -nan -nan -nan -nan
L1D_neutral -nan -nan -nan
L1D UNIQUE REGIONS ACCESSED: 0
L1D REGIONS CONFLICTS: 0
L1D Cross Page Prefetch Requests: 0
L1D Same Page Prefetch Requests: 0
L1D ROI Sum of L1D PQ occupancy: 0
L1D PREFETCHES PUSHED FROM L2C: 0
L1I TOTAL     ACCESS:   11346694  HIT:   11346694  MISS:          0  HIT %:        100  MISS %:          0   MPKI: 0
L1I LOAD      ACCESS:   11346694  HIT:   11346694  MISS:          0  HIT %:        100  MISS %:          0   MPKI: 0
L1I PREFETCH  REQUESTED:          0  ISSUED:          0  USEFUL:          0  USELESS:          0
L1I USEFUL LOAD PREFETCHES:          0 PREFETCH ISSUED TO LOWER LEVEL:          0  ACCURACY: -nan
L1I TIMELY PREFETCHES:          0 LATE PREFETCHES: 0 DROPPED PREFETCHES: 0
L1I PREFETCHES SAME FILL-ORIGIN LEVEL: 0 DIFFERENT FILL-ORIGIN LEVEL: 0
L1I AVERAGE MISS LATENCY: -nan cycles
L1I RQ	ACCESS:   15472385	FORWARD:          0	MERGED:    4125692	TO_CACHE:   11346693

Revised Interactions: positive negative neutral
L1I_interactions 0 0 0 -nan -nan -nan
L1I_positive -nan -nan -nan
L1I_negative -nan -nan -nan -nan -nan
L1I_neutral -nan -nan -nan
BTB TOTAL     ACCESS:    5654586  HIT:    5654552  MISS:         34  HIT %:    99.9994  MISS %: 0.000601282   MPKI: 0.00068
BTB BRANCH_DIRECT_JUMP	ACCESS:     580686  HIT:     580680  MISS:          6
BTB BRANCH_INDIRECT	ACCESS:          0  HIT:          0  MISS:          0
BTB BRANCH_CONDITIONAL	ACCESS:    5073764  HIT:    5073740  MISS:         24
BTB BRANCH_DIRECT_CALL	ACCESS:         68  HIT:         66  MISS:          2
BTB BRANCH_INDIRECT_CALL	ACCESS:          0  HIT:          0  MISS:          0
BTB BRANCH_RETURN	ACCESS:         68  HIT:         66  MISS:          2
BTB BRANCH_OTHER ACCESS:          0  HIT:          0  MISS:          0

L2C TOTAL     ACCESS:    2807781  HIT:     314036  MISS:    2493745  HIT %:    11.1845  MISS %:    88.8155   MPKI: 49.8749
L2C LOAD      ACCESS:    2387632  HIT:     113778  MISS:    2273854  HIT %:    4.76531  MISS %:    95.2347   MPKI: 45.4771
L2C DATA LOAD MPKI: 45.4771
L2C INSTRUCTION LOAD MPKI: 0
L2C RFO       ACCESS:     119012  HIT:       2242  MISS:     116770  HIT %:    1.88384  MISS %:    98.1162   MPKI: 2.3354
L2C WRITEBACK ACCESS:     236309  HIT:     136780  MISS:      99529  HIT %:    57.8818  MISS %:    42.1182   MPKI: 1.99058
L2C LOAD TRANSLATION ACCESS:      64828  HIT:      61236  MISS:       3592  HIT %:    94.4592  MISS %:    5.54082   MPKI: 0.07184
L2C PREFETCH  REQUESTED:          0  ISSUED:          0  USEFUL:          0  USELESS:          0
L2C USEFUL LOAD PREFETCHES:          0 PREFETCH ISSUED TO LOWER LEVEL:          0  ACCURACY: -nan
L2C TIMELY PREFETCHES:          0 LATE PREFETCHES: 0 DROPPED PREFETCHES: 0
L2C PREFETCHES SAME FILL-ORIGIN LEVEL: 0 DIFFERENT FILL-ORIGIN LEVEL: 0
L2C AVERAGE MISS LATENCY: 158.429 cycles
L2C RQ	ACCESS:    2571475	FORWARD:          0	MERGED:          0	TO_CACHE:    2571472
L2C WQ	ACCESS:     236309	FORWARD:          3	MERGED:          0	TO_CACHE:     236309

Revised Interactions: positive negative neutral
L2C_interactions 0 0 0 -nan -nan -nan
L2C_positive -nan -nan -nan
L2C_negative -nan -nan -nan -nan -nan
L2C_neutral -nan -nan -nan
L2C Instructions Evicting Data 0
L2C Translations Evicting Data 3581
L2C Data Evicting Data 2387400
L2C Instructions Evicting Instructions 0
L2C Translations Evicting Instructions 0
L2C Data Evicting Instructions 0
L2C Instructions Evicting Translations 0
L2C Translations Evicting Translations 11
L2C Data Evicting Translations 3224
L2C Dense regions hint from L2: 0
PSCL5 TOTAL     ACCESS:      64763  HIT:      64763  MISS:          0  HIT %:        100  MISS %:          0   MPKI: 0
PSCL5 LOAD TRANSLATION ACCESS:      64763  HIT:      64763  MISS:          0  HIT %:        100  MISS %:          0   MPKI: 0
PSCL5 PREFETCH  REQUESTED:          0  ISSUED:          0  USEFUL:          0  USELESS:          0
PSCL5 USEFUL LOAD PREFETCHES:          0 PREFETCH ISSUED TO LOWER LEVEL:          0  ACCURACY: -nan
PSCL5 TIMELY PREFETCHES:          0 LATE PREFETCHES: 0 DROPPED PREFETCHES: 0
PSCL5 PREFETCHES SAME FILL-ORIGIN LEVEL: 0 DIFFERENT FILL-ORIGIN LEVEL: 0

Revised Interactions: positive negative neutral
PSCL5_interactions 0 0 0 -nan -nan -nan
PSCL5_positive -nan -nan -nan
PSCL5_negative -nan -nan -nan -nan -nan
PSCL5_neutral -nan -nan -nan
PSCL4 TOTAL     ACCESS:      64763  HIT:      64763  MISS:          0  HIT %:        100  MISS %:          0   MPKI: 0
PSCL4 LOAD TRANSLATION ACCESS:      64763  HIT:      64763  MISS:          0  HIT %:        100  MISS %:          0   MPKI: 0
PSCL4 PREFETCH  REQUESTED:          0  ISSUED:          0  USEFUL:          0  USELESS:          0
PSCL4 USEFUL LOAD PREFETCHES:          0 PREFETCH ISSUED TO LOWER LEVEL:          0  ACCURACY: -nan
PSCL4 TIMELY PREFETCHES:          0 LATE PREFETCHES: 0 DROPPED PREFETCHES: 0
PSCL4 PREFETCHES SAME FILL-ORIGIN LEVEL: 0 DIFFERENT FILL-ORIGIN LEVEL: 0

Revised Interactions: positive negative neutral
PSCL4_interactions 0 0 0 -nan -nan -nan
PSCL4_positive -nan -nan -nan
PSCL4_negative -nan -nan -nan -nan -nan
PSCL4_neutral -nan -nan -nan
PSCL3 TOTAL     ACCESS:      64763  HIT:      64763  MISS:          0  HIT %:        100  MISS %:          0   MPKI: 0
PSCL3 LOAD TRANSLATION ACCESS:      64763  HIT:      64763  MISS:          0  HIT %:        100  MISS %:          0   MPKI: 0
PSCL3 PREFETCH  REQUESTED:          0  ISSUED:          0  USEFUL:          0  USELESS:          0
PSCL3 USEFUL LOAD PREFETCHES:          0 PREFETCH ISSUED TO LOWER LEVEL:          0  ACCURACY: -nan
PSCL3 TIMELY PREFETCHES:          0 LATE PREFETCHES: 0 DROPPED PREFETCHES: 0
PSCL3 PREFETCHES SAME FILL-ORIGIN LEVEL: 0 DIFFERENT FILL-ORIGIN LEVEL: 0

Revised Interactions: positive negative neutral
PSCL3_interactions 0 0 0 -nan -nan -nan
PSCL3_positive -nan -nan -nan
PSCL3_negative -nan -nan -nan -nan -nan
PSCL3_neutral -nan -nan -nan
PSCL2 TOTAL     ACCESS:      64763  HIT:      64668  MISS:         95  HIT %:    99.8533  MISS %:   0.146689   MPKI: 0.0019
PSCL2 LOAD TRANSLATION ACCESS:      64763  HIT:      64668  MISS:         95  HIT %:    99.8533  MISS %:   0.146689   MPKI: 0.0019
PSCL2 PREFETCH  REQUESTED:          0  ISSUED:          0  USEFUL:          0  USELESS:          0
PSCL2 USEFUL LOAD PREFETCHES:          0 PREFETCH ISSUED TO LOWER LEVEL:          0  ACCURACY: -nan
PSCL2 TIMELY PREFETCHES:          0 LATE PREFETCHES: 0 DROPPED PREFETCHES: 0
PSCL2 PREFETCHES SAME FILL-ORIGIN LEVEL: 0 DIFFERENT FILL-ORIGIN LEVEL: 0

Revised Interactions: positive negative neutral
PSCL2_interactions 0 0 0 -nan -nan -nan
PSCL2_positive -nan -nan -nan
PSCL2_negative -nan -nan -nan -nan -nan
PSCL2_neutral -nan -nan -nan
LLC TOTAL     ACCESS:    2601604  HIT:     106841  MISS:    2494763  HIT %:    4.10674  MISS %:    95.8933   MPKI: 49.8953
LLC LOAD      ACCESS:    2273854  HIT:       2651  MISS:    2271203  HIT %:   0.116586  MISS %:    99.8834   MPKI: 45.4241
LLC RFO       ACCESS:     116770  HIT:         33  MISS:     116737  HIT %:  0.0282607  MISS %:    99.9717   MPKI: 2.33474
LLC WRITEBACK ACCESS:     207388  HIT:     103105  MISS:     104283  HIT %:     49.716  MISS %:     50.284   MPKI: 2.08566
LLC LOAD TRANSLATION ACCESS:       3592  HIT:       1052  MISS:       2540  HIT %:    29.2873  MISS %:    70.7127   MPKI: 0.0508
LLC PREFETCH  REQUESTED:          0  ISSUED:          0  USEFUL:          0  USELESS:          0
LLC USEFUL LOAD PREFETCHES:          0 PREFETCH ISSUED TO LOWER LEVEL:          0  ACCURACY: -nan
LLC TIMELY PREFETCHES:          0 LATE PREFETCHES: 0 DROPPED PREFETCHES: 0
LLC PREFETCHES SAME FILL-ORIGIN LEVEL: 0 DIFFERENT FILL-ORIGIN LEVEL: 0
LLC AVERAGE MISS LATENCY: 129.554 cycles
LLC RQ	ACCESS:    2394216	FORWARD:          0	MERGED:          0	TO_CACHE:    2394216
LLC WQ	ACCESS:     207388	FORWARD:          0	MERGED:          0	TO_CACHE:     207388

Revised Interactions: positive negative neutral
LLC_interactions 0 0 0 -nan -nan -nan
LLC_positive -nan -nan -nan
LLC_negative -nan -nan -nan -nan -nan
LLC_neutral -nan -nan -nan
LLC Dense regions hint to LLC: 0

RAW hits: 636051
Loads Generated: 17427617
Loads sent to L1D: 16791567
Stores Generated: 12292015
Stores sent to L1D: 12292019
Major fault: 0 Minor fault: 20016
Allocated PAGES: 20016

DRAM Statistics
 CHANNEL 0
 RQ ROW_BUFFER_HIT:    1199514  ROW_BUFFER_MISS:    1190966
 DBUS_CONGESTED:       8942
 WQ ROW_BUFFER_HIT:     112924  ROW_BUFFER_MISS:      93691  FULL:          0

 AVG_CONGESTED_CYCLE: 4
 All warmup complete: 2
Channel 0 Bank busy for read cycles: 0
Channel 0 Bank busy for write cycles: 0
Channel 0
Rank 0
0banks busy for read cycles: 62860261
0banks busy for write cycles: 22097
1banks busy for read cycles: 61441662
1banks busy for write cycles: 6236435
2banks busy for read cycles: 31160258
2banks busy for write cycles: 2264705
3banks busy for read cycles: 18902004
3banks busy for write cycles: 1503965
4banks busy for read cycles: 9358542
4banks busy for write cycles: 1084085
5banks busy for read cycles: 3150821
5banks busy for write cycles: 961098
6banks busy for read cycles: 725254
6banks busy for write cycles: 905534
7banks busy for read cycles: 102548
7banks busy for write cycles: 1342923
8banks busy for read cycles: 459
8banks busy for write cycles: 4922910

CPU 0 Branch Prediction Accuracy: 98.3118% MPKI: 1.9419 Average ROB Occupancy at Mispredict: 184.635
Branch types
NOT_BRANCH: 44248456 88.4969%
BRANCH_DIRECT_JUMP: 580686 1.16137%
BRANCH_INDIRECT: 0 0%
BRANCH_CONDITIONAL: 5170450 10.3409%
BRANCH_DIRECT_CALL: 68 0.000136%
BRANCH_INDIRECT_CALL: 0 0%
BRANCH_RETURN: 68 0.000136%
BRANCH_OTHER: 0 0%

@sumon_overall_L1D         0         0         0         0         0         0         0
@Sumon_Early_by_class_L1D         0         0         0         0
@Sumon_Late_by_class_L1D         0         0         0         0

@Sumon_Early_by_cycle_L1D         0         0         0         0         0         0         0         0         0         0         0         0
@Sumon_Late_by_cycle_L1D         0         0         0         0         0         0
@Sumon_Early_stream_L1D         0         0         0         0         0         0         0         0         0         0         0         0
@Sumon_Early_CS_L1D         0         0         0         0         0         0         0         0         0         0         0         0
@Sumon_Early_CPLX_L1D         0         0         0         0         0         0         0         0         0         0         0         0
@Sumon_Late_stream_L1D         0         0         0         0         0         0
@Sumon_Late_CS_L1D         0         0         0         0         0         0
@Sumon_Late_CPLX_L1D         0         0         0         0         0         0
@sumon_overall_L2C         0         0         0         0         0         0         0
@Sumon_Early_by_class_L2C         0         0         0         0
@Sumon_Late_by_class_L2C         0         0         0         0

@Sumon_Early_by_cycle_L2C         0         0         0         0         0         0         0         0         0         0         0         0
@Sumon_Late_by_cycle_L2C         0         0         0         0         0         0
@Sumon_Early_stream_L2C         0         0         0         0         0         0         0         0         0         0         0         0
@Sumon_Early_CS_L2C         0         0         0         0         0         0         0         0         0         0         0         0
@Sumon_Early_CPLX_L2C         0         0         0         0         0         0         0         0         0         0         0         0
@Sumon_Late_stream_L2C         0         0         0         0         0         0
@Sumon_Late_CS_L2C         0         0         0         0         0         0
@Sumon_Late_CPLX_L2C         0         0         0         0         0         0
DRAM PAGES: 1048576
Allocated PAGES: 20016
