
*** ChampSim Multicore Out-of-Order Simulator ***

Warmup Instructions: 50000000
Simulation Instructions: 50000000
Number of CPUs: 1
LLC sets: 2048
LLC ways: 16
Off-chip DRAM Size: 4096 MB Channels: 1 Width: 64-bit Data Rate: 6400 MT/s
CPU 0 runs ../../biswa/SPEC2017Traces/605.mcf_s-782B.champsimtrace.xz
.xz
CPU 0 Bimodal branch predictor
BTB has LRU replacement policy
ITLB has LRU replacement policy
DTLB has LRU replacement policy
STLB has LRU replacement policy
L1I has LRU replacement policy
L1D has LRU replacement policy
Initialize DRRIP state for L2C
LLC has LRU replacement policy
Heartbeat CPU 0 instructions: 10000001 cycles: 3763371 heartbeat IPC: 2.65719 cumulative IPC: 2.65719 (Simulation time: 0 hr 3 min 23 sec) 
Heartbeat CPU 0 instructions: 20000000 cycles: 7495285 heartbeat IPC: 2.67959 cumulative IPC: 2.66834 (Simulation time: 0 hr 7 min 11 sec) 
Heartbeat CPU 0 instructions: 30000000 cycles: 11282575 heartbeat IPC: 2.64041 cumulative IPC: 2.65897 (Simulation time: 0 hr 11 min 5 sec) 
Heartbeat CPU 0 instructions: 40000002 cycles: 15043545 heartbeat IPC: 2.65889 cumulative IPC: 2.65895 (Simulation time: 0 hr 14 min 47 sec) 
Heartbeat CPU 0 instructions: 50000000 cycles: 18847253 heartbeat IPC: 2.62901 cumulative IPC: 2.65291 (Simulation time: 0 hr 17 min 57 sec) 

Warmup complete CPU 0 instructions: 50000001 cycles: 18847254 (Simulation time: 0 hr 17 min 57 sec) 

Heartbeat CPU 0 instructions: 60000003 cycles: 79781705 heartbeat IPC: 0.164111 cumulative IPC: 0.164111 (Simulation time: 0 hr 22 min 34 sec) 
Heartbeat CPU 0 instructions: 70000002 cycles: 140714341 heartbeat IPC: 0.164116 cumulative IPC: 0.164113 (Simulation time: 0 hr 26 min 45 sec) 
Heartbeat CPU 0 instructions: 80000002 cycles: 202191913 heartbeat IPC: 0.162661 cumulative IPC: 0.163626 (Simulation time: 0 hr 29 min 38 sec) 
Heartbeat CPU 0 instructions: 90000000 cycles: 267683512 heartbeat IPC: 0.152691 cumulative IPC: 0.160748 (Simulation time: 0 hr 30 min 52 sec) 
Heartbeat CPU 0 instructions: 100000001 cycles: 336712455 heartbeat IPC: 0.144867 cumulative IPC: 0.157299 (Simulation time: 0 hr 31 min 38 sec) 
Finished CPU 0 instructions: 50000000 cycles: 317865201 cumulative IPC: 0.157299 (Simulation time: 0 hr 31 min 38 sec) 

ChampSim completed all CPUs

Region of Interest Statistics

CPU 0 cumulative IPC: 0.157299 instructions: 50000000 cycles: 317865201
ITLB TOTAL     ACCESS:    8104260  HIT:    8104260  MISS:          0  HIT %:        100  MISS %:          0   MPKI: 0
ITLB LOAD TRANSLATION ACCESS:    8104260  HIT:    8104260  MISS:          0  HIT %:        100  MISS %:          0   MPKI: 0
ITLB PREFETCH  REQUESTED:          0  ISSUED:          0  USEFUL:          0  USELESS:          0
ITLB USEFUL LOAD PREFETCHES:          0 PREFETCH ISSUED TO LOWER LEVEL:          0  ACCURACY: -nan
ITLB TIMELY PREFETCHES:          0 LATE PREFETCHES: 0 DROPPED PREFETCHES: 0
ITLB PREFETCHES SAME FILL-ORIGIN LEVEL: 0 DIFFERENT FILL-ORIGIN LEVEL: 0
ITLB AVERAGE MISS LATENCY: -nan cycles
ITLB RQ	ACCESS:    8222908	FORWARD:          0	MERGED:     118648	TO_CACHE:    8104260

Revised Interactions: positive negative neutral
ITLB_interactions 0 0 0 -nan -nan -nan
ITLB_positive -nan -nan -nan
ITLB_negative -nan -nan -nan -nan -nan
ITLB_neutral -nan -nan -nan
DTLB TOTAL     ACCESS:   10675398  HIT:    6422857  MISS:    4252541  HIT %:     60.165  MISS %:     39.835   MPKI: 85.0508
DTLB LOAD TRANSLATION ACCESS:   10675398  HIT:    6422857  MISS:    4252541  HIT %:     60.165  MISS %:     39.835   MPKI: 85.0508
DTLB PREFETCH  REQUESTED:          0  ISSUED:          0  USEFUL:          0  USELESS:          0
DTLB USEFUL LOAD PREFETCHES:          0 PREFETCH ISSUED TO LOWER LEVEL:          0  ACCURACY: -nan
DTLB TIMELY PREFETCHES:          0 LATE PREFETCHES: 0 DROPPED PREFETCHES: 0
DTLB PREFETCHES SAME FILL-ORIGIN LEVEL: 0 DIFFERENT FILL-ORIGIN LEVEL: 0
DTLB AVERAGE MISS LATENCY: 10.7561 cycles
DTLB RQ	ACCESS:   11863573	FORWARD:          0	MERGED:    1122086	TO_CACHE:   10741487

Revised Interactions: positive negative neutral
DTLB_interactions 0 0 0 -nan -nan -nan
DTLB_positive -nan -nan -nan
DTLB_negative -nan -nan -nan -nan -nan
DTLB_neutral -nan -nan -nan
STLB TOTAL     ACCESS:    4252541  HIT:    4195480  MISS:      57061  HIT %:    98.6582  MISS %:    1.34181   MPKI: 1.14122
STLB LOAD TRANSLATION ACCESS:    4252541  HIT:    4195480  MISS:      57061  HIT %:    98.6582  MISS %:    1.34181   MPKI: 1.14122
STLB PREFETCH  REQUESTED:          0  ISSUED:          0  USEFUL:          0  USELESS:          0
STLB USEFUL LOAD PREFETCHES:          0 PREFETCH ISSUED TO LOWER LEVEL:          0  ACCURACY: -nan
STLB TIMELY PREFETCHES:          0 LATE PREFETCHES: 0 DROPPED PREFETCHES: 0
STLB PREFETCHES SAME FILL-ORIGIN LEVEL: 0 DIFFERENT FILL-ORIGIN LEVEL: 0
STLB AVERAGE MISS LATENCY: 124.302 cycles
STLB RQ	ACCESS:    4252541	FORWARD:          0	MERGED:          0	TO_CACHE:    4252541

Revised Interactions: positive negative neutral
STLB_interactions 0 0 0 -nan -nan -nan
STLB_positive -nan -nan -nan
STLB_negative -nan -nan -nan -nan -nan
STLB_neutral -nan -nan -nan
STLB Hit, L1D data hit: 0
STLB Hit, L2C data hit: 0
STLB Hit, LLC data hit: 0
STLB Hit, LLC data miss: 0
STLB STLB hints to L2: 0
L1D TOTAL     ACCESS:   11445915  HIT:    4012714  MISS:    7433201  HIT %:     35.058  MISS %:     64.942   MPKI: 148.664
L1D LOAD      ACCESS:   10395962  HIT:    2980446  MISS:    7415516  HIT %:    28.6693  MISS %:    71.3307   MPKI: 148.31
L1D RFO       ACCESS:    1049953  HIT:    1032268  MISS:      17685  HIT %:    98.3156  MISS %:    1.68436   MPKI: 0.3537
L1D PREFETCH  REQUESTED:          0  ISSUED:          0  USEFUL:          0  USELESS:          0
L1D USEFUL LOAD PREFETCHES:          0 PREFETCH ISSUED TO LOWER LEVEL:          0  ACCURACY: -nan
L1D TIMELY PREFETCHES:          0 LATE PREFETCHES: 0 DROPPED PREFETCHES: 0
L1D PREFETCHES SAME FILL-ORIGIN LEVEL: 0 DIFFERENT FILL-ORIGIN LEVEL: 0
L1D AVERAGE MISS LATENCY: 93.7787 cycles
L1D RQ	ACCESS:   17781505	FORWARD:          0	MERGED:    6828351	TO_CACHE:   10789561
L1D WQ	ACCESS:    1110839	FORWARD:     163593	MERGED:      36827	TO_CACHE:    1074012

Revised Interactions: positive negative neutral
L1D_interactions 0 0 0 -nan -nan -nan
L1D_positive -nan -nan -nan
L1D_negative -nan -nan -nan -nan -nan
L1D_neutral -nan -nan -nan
L1D UNIQUE REGIONS ACCESSED: 0
L1D REGIONS CONFLICTS: 0
L1D Cross Page Prefetch Requests: 0
L1D Same Page Prefetch Requests: 0
L1D ROI Sum of L1D PQ occupancy: 0
L1D PREFETCHES PUSHED FROM L2C: 0
L1I TOTAL     ACCESS:    8222908  HIT:    8222908  MISS:          0  HIT %:        100  MISS %:          0   MPKI: 0
L1I LOAD      ACCESS:    8222908  HIT:    8222908  MISS:          0  HIT %:        100  MISS %:          0   MPKI: 0
L1I PREFETCH  REQUESTED:          0  ISSUED:          0  USEFUL:          0  USELESS:          0
L1I USEFUL LOAD PREFETCHES:          0 PREFETCH ISSUED TO LOWER LEVEL:          0  ACCURACY: -nan
L1I TIMELY PREFETCHES:          0 LATE PREFETCHES: 0 DROPPED PREFETCHES: 0
L1I PREFETCHES SAME FILL-ORIGIN LEVEL: 0 DIFFERENT FILL-ORIGIN LEVEL: 0
L1I AVERAGE MISS LATENCY: -nan cycles
L1I RQ	ACCESS:   11211693	FORWARD:          0	MERGED:    2988785	TO_CACHE:    8222908

Revised Interactions: positive negative neutral
L1I_interactions 0 0 0 -nan -nan -nan
L1I_positive -nan -nan -nan
L1I_negative -nan -nan -nan -nan -nan
L1I_neutral -nan -nan -nan
BTB TOTAL     ACCESS:   14775569  HIT:   14712775  MISS:      62794  HIT %:     99.575  MISS %:   0.424985   MPKI: 1.25588
BTB BRANCH_DIRECT_JUMP	ACCESS:    1899352  HIT:    1899316  MISS:         36
BTB BRANCH_INDIRECT	ACCESS:          0  HIT:          0  MISS:          0
BTB BRANCH_CONDITIONAL	ACCESS:   12452229  HIT:   12452150  MISS:         79
BTB BRANCH_DIRECT_CALL	ACCESS:     195242  HIT:     195225  MISS:         17
BTB BRANCH_INDIRECT_CALL	ACCESS:      16752  HIT:      16744  MISS:          8
BTB BRANCH_RETURN	ACCESS:     211994  HIT:     149340  MISS:      62654
BTB BRANCH_OTHER ACCESS:          0  HIT:          0  MISS:          0

L2C TOTAL     ACCESS:    7634037  HIT:    2632436  MISS:    5001601  HIT %:    34.4829  MISS %:    65.5171   MPKI: 100.032
L2C LOAD      ACCESS:    7415510  HIT:    2458072  MISS:    4957438  HIT %:    33.1477  MISS %:    66.8523   MPKI: 99.1488
L2C DATA LOAD MPKI: 99.1488
L2C INSTRUCTION LOAD MPKI: 0
L2C RFO       ACCESS:      17685  HIT:      14412  MISS:       3273  HIT %:    81.4928  MISS %:    18.5072   MPKI: 0.06546
L2C WRITEBACK ACCESS:     143246  HIT:     116617  MISS:      26629  HIT %:    81.4103  MISS %:    18.5897   MPKI: 0.53258
L2C LOAD TRANSLATION ACCESS:      57596  HIT:      43335  MISS:      14261  HIT %:    75.2396  MISS %:    24.7604   MPKI: 0.28522
L2C PREFETCH  REQUESTED:          0  ISSUED:          0  USEFUL:          0  USELESS:          0
L2C USEFUL LOAD PREFETCHES:          0 PREFETCH ISSUED TO LOWER LEVEL:          0  ACCURACY: -nan
L2C TIMELY PREFETCHES:          0 LATE PREFETCHES: 0 DROPPED PREFETCHES: 0
L2C PREFETCHES SAME FILL-ORIGIN LEVEL: 0 DIFFERENT FILL-ORIGIN LEVEL: 0
L2C AVERAGE MISS LATENCY: 117.255 cycles
L2C RQ	ACCESS:    7490796	FORWARD:          0	MERGED:          0	TO_CACHE:    7490790
L2C WQ	ACCESS:     143246	FORWARD:          6	MERGED:          0	TO_CACHE:     143246

Revised Interactions: positive negative neutral
L2C_interactions 0 0 0 -nan -nan -nan
L2C_positive -nan -nan -nan
L2C_negative -nan -nan -nan -nan -nan
L2C_neutral -nan -nan -nan
L2C Instructions Evicting Data 0
L2C Translations Evicting Data 14222
L2C Data Evicting Data 4946678
L2C Instructions Evicting Instructions 0
L2C Translations Evicting Instructions 0
L2C Data Evicting Instructions 0
L2C Instructions Evicting Translations 0
L2C Translations Evicting Translations 39
L2C Data Evicting Translations 14033
L2C Dense regions hint from L2: 0
PSCL5 TOTAL     ACCESS:      57061  HIT:      57061  MISS:          0  HIT %:        100  MISS %:          0   MPKI: 0
PSCL5 LOAD TRANSLATION ACCESS:      57061  HIT:      57061  MISS:          0  HIT %:        100  MISS %:          0   MPKI: 0
PSCL5 PREFETCH  REQUESTED:          0  ISSUED:          0  USEFUL:          0  USELESS:          0
PSCL5 USEFUL LOAD PREFETCHES:          0 PREFETCH ISSUED TO LOWER LEVEL:          0  ACCURACY: -nan
PSCL5 TIMELY PREFETCHES:          0 LATE PREFETCHES: 0 DROPPED PREFETCHES: 0
PSCL5 PREFETCHES SAME FILL-ORIGIN LEVEL: 0 DIFFERENT FILL-ORIGIN LEVEL: 0

Revised Interactions: positive negative neutral
PSCL5_interactions 0 0 0 -nan -nan -nan
PSCL5_positive -nan -nan -nan
PSCL5_negative -nan -nan -nan -nan -nan
PSCL5_neutral -nan -nan -nan
PSCL4 TOTAL     ACCESS:      57061  HIT:      57061  MISS:          0  HIT %:        100  MISS %:          0   MPKI: 0
PSCL4 LOAD TRANSLATION ACCESS:      57061  HIT:      57061  MISS:          0  HIT %:        100  MISS %:          0   MPKI: 0
PSCL4 PREFETCH  REQUESTED:          0  ISSUED:          0  USEFUL:          0  USELESS:          0
PSCL4 USEFUL LOAD PREFETCHES:          0 PREFETCH ISSUED TO LOWER LEVEL:          0  ACCURACY: -nan
PSCL4 TIMELY PREFETCHES:          0 LATE PREFETCHES: 0 DROPPED PREFETCHES: 0
PSCL4 PREFETCHES SAME FILL-ORIGIN LEVEL: 0 DIFFERENT FILL-ORIGIN LEVEL: 0

Revised Interactions: positive negative neutral
PSCL4_interactions 0 0 0 -nan -nan -nan
PSCL4_positive -nan -nan -nan
PSCL4_negative -nan -nan -nan -nan -nan
PSCL4_neutral -nan -nan -nan
PSCL3 TOTAL     ACCESS:      57061  HIT:      57061  MISS:          0  HIT %:        100  MISS %:          0   MPKI: 0
PSCL3 LOAD TRANSLATION ACCESS:      57061  HIT:      57061  MISS:          0  HIT %:        100  MISS %:          0   MPKI: 0
PSCL3 PREFETCH  REQUESTED:          0  ISSUED:          0  USEFUL:          0  USELESS:          0
PSCL3 USEFUL LOAD PREFETCHES:          0 PREFETCH ISSUED TO LOWER LEVEL:          0  ACCURACY: -nan
PSCL3 TIMELY PREFETCHES:          0 LATE PREFETCHES: 0 DROPPED PREFETCHES: 0
PSCL3 PREFETCHES SAME FILL-ORIGIN LEVEL: 0 DIFFERENT FILL-ORIGIN LEVEL: 0

Revised Interactions: positive negative neutral
PSCL3_interactions 0 0 0 -nan -nan -nan
PSCL3_positive -nan -nan -nan
PSCL3_negative -nan -nan -nan -nan -nan
PSCL3_neutral -nan -nan -nan
PSCL2 TOTAL     ACCESS:      57061  HIT:      56327  MISS:        734  HIT %:    98.7137  MISS %:    1.28634   MPKI: 0.01468
PSCL2 LOAD TRANSLATION ACCESS:      57061  HIT:      56327  MISS:        734  HIT %:    98.7137  MISS %:    1.28634   MPKI: 0.01468
PSCL2 PREFETCH  REQUESTED:          0  ISSUED:          0  USEFUL:          0  USELESS:          0
PSCL2 USEFUL LOAD PREFETCHES:          0 PREFETCH ISSUED TO LOWER LEVEL:          0  ACCURACY: -nan
PSCL2 TIMELY PREFETCHES:          0 LATE PREFETCHES: 0 DROPPED PREFETCHES: 0
PSCL2 PREFETCHES SAME FILL-ORIGIN LEVEL: 0 DIFFERENT FILL-ORIGIN LEVEL: 0

Revised Interactions: positive negative neutral
PSCL2_interactions 0 0 0 -nan -nan -nan
PSCL2_positive -nan -nan -nan
PSCL2_negative -nan -nan -nan -nan -nan
PSCL2_neutral -nan -nan -nan
LLC TOTAL     ACCESS:    5033181  HIT:    1449865  MISS:    3583316  HIT %:    28.8061  MISS %:    71.1939   MPKI: 71.6663
LLC LOAD      ACCESS:    4957438  HIT:    1405449  MISS:    3551989  HIT %:    28.3503  MISS %:    71.6497   MPKI: 71.0398
LLC RFO       ACCESS:       3273  HIT:       1748  MISS:       1525  HIT %:    53.4067  MISS %:    46.5933   MPKI: 0.0305
LLC WRITEBACK ACCESS:      58209  HIT:      37251  MISS:      20958  HIT %:    63.9953  MISS %:    36.0047   MPKI: 0.41916
LLC LOAD TRANSLATION ACCESS:      14261  HIT:       5417  MISS:       8844  HIT %:    37.9847  MISS %:    62.0153   MPKI: 0.17688
LLC PREFETCH  REQUESTED:          0  ISSUED:          0  USEFUL:          0  USELESS:          0
LLC USEFUL LOAD PREFETCHES:          0 PREFETCH ISSUED TO LOWER LEVEL:          0  ACCURACY: -nan
LLC TIMELY PREFETCHES:          0 LATE PREFETCHES: 0 DROPPED PREFETCHES: 0
LLC PREFETCHES SAME FILL-ORIGIN LEVEL: 0 DIFFERENT FILL-ORIGIN LEVEL: 0
LLC AVERAGE MISS LATENCY: 121.287 cycles
LLC RQ	ACCESS:    4974971	FORWARD:          0	MERGED:          0	TO_CACHE:    4974971
LLC WQ	ACCESS:      58209	FORWARD:          0	MERGED:          0	TO_CACHE:      58209

Revised Interactions: positive negative neutral
LLC_interactions 0 0 0 -nan -nan -nan
LLC_positive -nan -nan -nan
LLC_negative -nan -nan -nan -nan -nan
LLC_neutral -nan -nan -nan
LLC Dense regions hint to LLC: 0

RAW hits: 128823
Loads Generated: 17910328
Loads sent to L1D: 17781505
Stores Generated: 1110839
Stores sent to L1D: 1110839
Major fault: 0 Minor fault: 86300
Allocated PAGES: 86300

DRAM Statistics
 CHANNEL 0
 RQ ROW_BUFFER_HIT:    1911039  ROW_BUFFER_MISS:    1651312
 DBUS_CONGESTED:        614
 WQ ROW_BUFFER_HIT:      19436  ROW_BUFFER_MISS:      30402  FULL:          0

 AVG_CONGESTED_CYCLE: 4
 All warmup complete: 2
Channel 0 Bank busy for read cycles: 0
Channel 0 Bank busy for write cycles: 0
Channel 0
Rank 0
0banks busy for read cycles: 127926624
0banks busy for write cycles: 29893
1banks busy for read cycles: 96933866
1banks busy for write cycles: 6578007
2banks busy for read cycles: 43718943
2banks busy for write cycles: 951105
3banks busy for read cycles: 22127418
3banks busy for write cycles: 306687
4banks busy for read cycles: 10120848
4banks busy for write cycles: 156465
5banks busy for read cycles: 4106817
5banks busy for write cycles: 107971
6banks busy for read cycles: 1756664
6banks busy for write cycles: 86351
7banks busy for read cycles: 1050917
7banks busy for write cycles: 89493
8banks busy for read cycles: 1698921
8banks busy for write cycles: 118212

CPU 0 Branch Prediction Accuracy: 96.256% MPKI: 11.3017 Average ROB Occupancy at Mispredict: 47.1349
Branch types
NOT_BRANCH: 34906688 69.8134%
BRANCH_DIRECT_JUMP: 1899352 3.7987%
BRANCH_INDIRECT: 0 0%
BRANCH_CONDITIONAL: 12769937 25.5399%
BRANCH_DIRECT_CALL: 195242 0.390484%
BRANCH_INDIRECT_CALL: 16752 0.033504%
BRANCH_RETURN: 211994 0.423988%
BRANCH_OTHER: 0 0%

@sumon_overall_L1D         0         0         0         0         0         0         0
@Sumon_Early_by_class_L1D         0         0         0         0
@Sumon_Late_by_class_L1D         0         0         0         0

@Sumon_Early_by_cycle_L1D         0         0         0         0         0         0         0         0         0         0         0         0
@Sumon_Late_by_cycle_L1D         0         0         0         0         0         0
@Sumon_Early_stream_L1D         0         0         0         0         0         0         0         0         0         0         0         0
@Sumon_Early_CS_L1D         0         0         0         0         0         0         0         0         0         0         0         0
@Sumon_Early_CPLX_L1D         0         0         0         0         0         0         0         0         0         0         0         0
@Sumon_Late_stream_L1D         0         0         0         0         0         0
@Sumon_Late_CS_L1D         0         0         0         0         0         0
@Sumon_Late_CPLX_L1D         0         0         0         0         0         0
@sumon_overall_L2C         0         0         0         0         0         0         0
@Sumon_Early_by_class_L2C         0         0         0         0
@Sumon_Late_by_class_L2C         0         0         0         0

@Sumon_Early_by_cycle_L2C         0         0         0         0         0         0         0         0         0         0         0         0
@Sumon_Late_by_cycle_L2C         0         0         0         0         0         0
@Sumon_Early_stream_L2C         0         0         0         0         0         0         0         0         0         0         0         0
@Sumon_Early_CS_L2C         0         0         0         0         0         0         0         0         0         0         0         0
@Sumon_Early_CPLX_L2C         0         0         0         0         0         0         0         0         0         0         0         0
@Sumon_Late_stream_L2C         0         0         0         0         0         0
@Sumon_Late_CS_L2C         0         0         0         0         0         0
@Sumon_Late_CPLX_L2C         0         0         0         0         0         0
DRAM PAGES: 1048576
Allocated PAGES: 86300
