
*** ChampSim Multicore Out-of-Order Simulator ***

Warmup Instructions: 50000000
Simulation Instructions: 50000000
Number of CPUs: 1
LLC sets: 2048
LLC ways: 16
Off-chip DRAM Size: 4096 MB Channels: 1 Width: 64-bit Data Rate: 6400 MT/s
CPU 0 runs ../../biswa/SPEC2017Traces/605.mcf_s-1644B.champsimtrace.xz
.xz
CPU 0 Bimodal branch predictor
BTB has LRU replacement policy
ITLB has LRU replacement policy
DTLB has LRU replacement policy
STLB has LRU replacement policy
L1I has LRU replacement policy
L1D has LRU replacement policy
Initialize DRRIP state for L2C
LLC has LRU replacement policy
Heartbeat CPU 0 instructions: 10000003 cycles: 5131271 heartbeat IPC: 1.94884 cumulative IPC: 1.94884 (Simulation time: 0 hr 4 min 42 sec) 
Heartbeat CPU 0 instructions: 20000001 cycles: 10261811 heartbeat IPC: 1.94911 cumulative IPC: 1.94897 (Simulation time: 0 hr 9 min 48 sec) 
Heartbeat CPU 0 instructions: 30000002 cycles: 15384901 heartbeat IPC: 1.95195 cumulative IPC: 1.94996 (Simulation time: 0 hr 14 min 37 sec) 
Heartbeat CPU 0 instructions: 40000002 cycles: 20498344 heartbeat IPC: 1.95563 cumulative IPC: 1.95138 (Simulation time: 0 hr 18 min 52 sec) 
Heartbeat CPU 0 instructions: 50000000 cycles: 25606717 heartbeat IPC: 1.95757 cumulative IPC: 1.95261 (Simulation time: 0 hr 23 min 1 sec) 

Warmup complete CPU 0 instructions: 50000004 cycles: 25606718 (Simulation time: 0 hr 23 min 1 sec) 

Heartbeat CPU 0 instructions: 60000001 cycles: 95096651 heartbeat IPC: 0.143906 cumulative IPC: 0.143906 (Simulation time: 0 hr 29 min 12 sec) 
Heartbeat CPU 0 instructions: 70000001 cycles: 164510906 heartbeat IPC: 0.144063 cumulative IPC: 0.143984 (Simulation time: 0 hr 31 min 20 sec) 
Heartbeat CPU 0 instructions: 80000000 cycles: 234384168 heartbeat IPC: 0.143116 cumulative IPC: 0.143694 (Simulation time: 0 hr 32 min 25 sec) 
Heartbeat CPU 0 instructions: 90000000 cycles: 304104438 heartbeat IPC: 0.14343 cumulative IPC: 0.143628 (Simulation time: 0 hr 33 min 24 sec) 
Heartbeat CPU 0 instructions: 100000003 cycles: 374907351 heartbeat IPC: 0.141237 cumulative IPC: 0.143143 (Simulation time: 0 hr 34 min 24 sec) 
Finished CPU 0 instructions: 50000003 cycles: 349300634 cumulative IPC: 0.143143 (Simulation time: 0 hr 34 min 24 sec) 

ChampSim completed all CPUs

Region of Interest Statistics

CPU 0 cumulative IPC: 0.143143 instructions: 50000003 cycles: 349300634
ITLB TOTAL     ACCESS:    8973711  HIT:    8973711  MISS:          0  HIT %:        100  MISS %:          0   MPKI: 0
ITLB LOAD TRANSLATION ACCESS:    8973711  HIT:    8973711  MISS:          0  HIT %:        100  MISS %:          0   MPKI: 0
ITLB PREFETCH  REQUESTED:          0  ISSUED:          0  USEFUL:          0  USELESS:          0
ITLB USEFUL LOAD PREFETCHES:          0 PREFETCH ISSUED TO LOWER LEVEL:          0  ACCURACY: -nan
ITLB TIMELY PREFETCHES:          0 LATE PREFETCHES: 0 DROPPED PREFETCHES: 0
ITLB PREFETCHES SAME FILL-ORIGIN LEVEL: 0 DIFFERENT FILL-ORIGIN LEVEL: 0
ITLB AVERAGE MISS LATENCY: -nan cycles
ITLB RQ	ACCESS:    8978467	FORWARD:          0	MERGED:       4757	TO_CACHE:    8973710

Revised Interactions: positive negative neutral
ITLB_interactions 0 0 0 -nan -nan -nan
ITLB_positive -nan -nan -nan
ITLB_negative -nan -nan -nan -nan -nan
ITLB_neutral -nan -nan -nan
DTLB TOTAL     ACCESS:   21432660  HIT:   19981344  MISS:    1451316  HIT %:    93.2285  MISS %:    6.77152   MPKI: 29.0263
DTLB LOAD TRANSLATION ACCESS:   21432660  HIT:   19981344  MISS:    1451316  HIT %:    93.2285  MISS %:    6.77152   MPKI: 29.0263
DTLB PREFETCH  REQUESTED:          0  ISSUED:          0  USEFUL:          0  USELESS:          0
DTLB USEFUL LOAD PREFETCHES:          0 PREFETCH ISSUED TO LOWER LEVEL:          0  ACCURACY: -nan
DTLB TIMELY PREFETCHES:          0 LATE PREFETCHES: 0 DROPPED PREFETCHES: 0
DTLB PREFETCHES SAME FILL-ORIGIN LEVEL: 0 DIFFERENT FILL-ORIGIN LEVEL: 0
DTLB AVERAGE MISS LATENCY: 455.009 cycles
DTLB RQ	ACCESS:   32976686	FORWARD:          0	MERGED:    3467114	TO_CACHE:   29509572

Revised Interactions: positive negative neutral
DTLB_interactions 0 0 0 -nan -nan -nan
DTLB_positive -nan -nan -nan
DTLB_negative -nan -nan -nan -nan -nan
DTLB_neutral -nan -nan -nan
STLB TOTAL     ACCESS:    1451316  HIT:     246046  MISS:    1205270  HIT %:    16.9533  MISS %:    83.0467   MPKI: 24.1054
STLB LOAD TRANSLATION ACCESS:    1451316  HIT:     246046  MISS:    1205270  HIT %:    16.9533  MISS %:    83.0467   MPKI: 24.1054
STLB PREFETCH  REQUESTED:          0  ISSUED:          0  USEFUL:          0  USELESS:          0
STLB USEFUL LOAD PREFETCHES:          0 PREFETCH ISSUED TO LOWER LEVEL:          0  ACCURACY: -nan
STLB TIMELY PREFETCHES:          0 LATE PREFETCHES: 0 DROPPED PREFETCHES: 0
STLB PREFETCHES SAME FILL-ORIGIN LEVEL: 0 DIFFERENT FILL-ORIGIN LEVEL: 0
STLB AVERAGE MISS LATENCY: 536.969 cycles
STLB RQ	ACCESS:    1451317	FORWARD:          0	MERGED:          0	TO_CACHE:    1451317

Revised Interactions: positive negative neutral
STLB_interactions 0 0 0 -nan -nan -nan
STLB_positive -nan -nan -nan
STLB_negative -nan -nan -nan -nan -nan
STLB_neutral -nan -nan -nan
STLB Hit, L1D data hit: 0
STLB Hit, L2C data hit: 0
STLB Hit, LLC data hit: 0
STLB Hit, LLC data miss: 0
STLB STLB hints to L2: 0
L1D TOTAL     ACCESS:   24947021  HIT:   20446343  MISS:    4500678  HIT %:    81.9591  MISS %:    18.0409   MPKI: 90.0136
L1D LOAD      ACCESS:   15104613  HIT:   12790576  MISS:    2314037  HIT %:    84.6799  MISS %:    15.3201   MPKI: 46.2807
L1D RFO       ACCESS:    9842408  HIT:    7655767  MISS:    2186641  HIT %:    77.7835  MISS %:    22.2165   MPKI: 43.7328
L1D PREFETCH  REQUESTED:          0  ISSUED:          0  USEFUL:          0  USELESS:          0
L1D USEFUL LOAD PREFETCHES:          0 PREFETCH ISSUED TO LOWER LEVEL:          0  ACCURACY: -nan
L1D TIMELY PREFETCHES:          0 LATE PREFETCHES: 0 DROPPED PREFETCHES: 0
L1D PREFETCHES SAME FILL-ORIGIN LEVEL: 0 DIFFERENT FILL-ORIGIN LEVEL: 0
L1D AVERAGE MISS LATENCY: 276.789 cycles
L1D RQ	ACCESS:   20127934	FORWARD:          0	MERGED:    4122699	TO_CACHE:   15483648
L1D WQ	ACCESS:   17493168	FORWARD:     521587	MERGED:        130	TO_CACHE:   17493038

Revised Interactions: positive negative neutral
L1D_interactions 0 0 0 -nan -nan -nan
L1D_positive -nan -nan -nan
L1D_negative -nan -nan -nan -nan -nan
L1D_neutral -nan -nan -nan
L1D UNIQUE REGIONS ACCESSED: 0
L1D REGIONS CONFLICTS: 0
L1D Cross Page Prefetch Requests: 0
L1D Same Page Prefetch Requests: 0
L1D ROI Sum of L1D PQ occupancy: 0
L1D PREFETCHES PUSHED FROM L2C: 0
L1I TOTAL     ACCESS:    8978468  HIT:    8978468  MISS:          0  HIT %:        100  MISS %:          0   MPKI: 0
L1I LOAD      ACCESS:    8978468  HIT:    8978468  MISS:          0  HIT %:        100  MISS %:          0   MPKI: 0
L1I PREFETCH  REQUESTED:          0  ISSUED:          0  USEFUL:          0  USELESS:          0
L1I USEFUL LOAD PREFETCHES:          0 PREFETCH ISSUED TO LOWER LEVEL:          0  ACCURACY: -nan
L1I TIMELY PREFETCHES:          0 LATE PREFETCHES: 0 DROPPED PREFETCHES: 0
L1I PREFETCHES SAME FILL-ORIGIN LEVEL: 0 DIFFERENT FILL-ORIGIN LEVEL: 0
L1I AVERAGE MISS LATENCY: -nan cycles
L1I RQ	ACCESS:   14865733	FORWARD:          0	MERGED:    5887266	TO_CACHE:    8978467

Revised Interactions: positive negative neutral
L1I_interactions 0 0 0 -nan -nan -nan
L1I_positive -nan -nan -nan
L1I_negative -nan -nan -nan -nan -nan
L1I_neutral -nan -nan -nan
BTB TOTAL     ACCESS:    5120014  HIT:    5120009  MISS:          5  HIT %:    99.9999  MISS %: 9.7656e-05   MPKI: 0.0001
BTB BRANCH_DIRECT_JUMP	ACCESS:     746772  HIT:     746771  MISS:          1
BTB BRANCH_INDIRECT	ACCESS:          0  HIT:          0  MISS:          0
BTB BRANCH_CONDITIONAL	ACCESS:    2186606  HIT:    2186604  MISS:          2
BTB BRANCH_DIRECT_CALL	ACCESS:    1093318  HIT:    1093317  MISS:          1
BTB BRANCH_INDIRECT_CALL	ACCESS:          0  HIT:          0  MISS:          0
BTB BRANCH_RETURN	ACCESS:    1093318  HIT:    1093317  MISS:          1
BTB BRANCH_OTHER ACCESS:          0  HIT:          0  MISS:          0

L2C TOTAL     ACCESS:   10752754  HIT:    5352391  MISS:    5400363  HIT %:    49.7769  MISS %:    50.2231   MPKI: 108.007
L2C LOAD      ACCESS:    2314037  HIT:     229242  MISS:    2084795  HIT %:    9.90658  MISS %:    90.0934   MPKI: 41.6959
L2C DATA LOAD MPKI: 41.6959
L2C INSTRUCTION LOAD MPKI: 0
L2C RFO       ACCESS:    2186640  HIT:        150  MISS:    2186490  HIT %: 0.00685984  MISS %:    99.9931   MPKI: 43.7298
L2C WRITEBACK ACCESS:    4500676  HIT:    4395204  MISS:     105472  HIT %:    97.6565  MISS %:    2.34347   MPKI: 2.10944
L2C LOAD TRANSLATION ACCESS:    1751401  HIT:     727795  MISS:    1023606  HIT %:     41.555  MISS %:     58.445   MPKI: 20.4721
L2C PREFETCH  REQUESTED:          0  ISSUED:          0  USEFUL:          0  USELESS:          0
L2C USEFUL LOAD PREFETCHES:          0 PREFETCH ISSUED TO LOWER LEVEL:          0  ACCURACY: -nan
L2C TIMELY PREFETCHES:          0 LATE PREFETCHES: 0 DROPPED PREFETCHES: 0
L2C PREFETCHES SAME FILL-ORIGIN LEVEL: 0 DIFFERENT FILL-ORIGIN LEVEL: 0
L2C AVERAGE MISS LATENCY: 264.187 cycles
L2C RQ	ACCESS:    6252081	FORWARD:          0	MERGED:          0	TO_CACHE:    6252081
L2C WQ	ACCESS:    4500678	FORWARD:          0	MERGED:          0	TO_CACHE:    4500678

Revised Interactions: positive negative neutral
L2C_interactions 0 0 0 -nan -nan -nan
L2C_positive -nan -nan -nan
L2C_negative -nan -nan -nan -nan -nan
L2C_neutral -nan -nan -nan
L2C Instructions Evicting Data 0
L2C Translations Evicting Data 828288
L2C Data Evicting Data 3454712
L2C Instructions Evicting Instructions 0
L2C Translations Evicting Instructions 0
L2C Data Evicting Instructions 0
L2C Instructions Evicting Translations 0
L2C Translations Evicting Translations 195318
L2C Data Evicting Translations 816573
L2C Dense regions hint from L2: 0
PSCL5 TOTAL     ACCESS:    1205271  HIT:    1205271  MISS:          0  HIT %:        100  MISS %:          0   MPKI: 0
PSCL5 LOAD TRANSLATION ACCESS:    1205271  HIT:    1205271  MISS:          0  HIT %:        100  MISS %:          0   MPKI: 0
PSCL5 PREFETCH  REQUESTED:          0  ISSUED:          0  USEFUL:          0  USELESS:          0
PSCL5 USEFUL LOAD PREFETCHES:          0 PREFETCH ISSUED TO LOWER LEVEL:          0  ACCURACY: -nan
PSCL5 TIMELY PREFETCHES:          0 LATE PREFETCHES: 0 DROPPED PREFETCHES: 0
PSCL5 PREFETCHES SAME FILL-ORIGIN LEVEL: 0 DIFFERENT FILL-ORIGIN LEVEL: 0

Revised Interactions: positive negative neutral
PSCL5_interactions 0 0 0 -nan -nan -nan
PSCL5_positive -nan -nan -nan
PSCL5_negative -nan -nan -nan -nan -nan
PSCL5_neutral -nan -nan -nan
PSCL4 TOTAL     ACCESS:    1205271  HIT:    1205271  MISS:          0  HIT %:        100  MISS %:          0   MPKI: 0
PSCL4 LOAD TRANSLATION ACCESS:    1205271  HIT:    1205271  MISS:          0  HIT %:        100  MISS %:          0   MPKI: 0
PSCL4 PREFETCH  REQUESTED:          0  ISSUED:          0  USEFUL:          0  USELESS:          0
PSCL4 USEFUL LOAD PREFETCHES:          0 PREFETCH ISSUED TO LOWER LEVEL:          0  ACCURACY: -nan
PSCL4 TIMELY PREFETCHES:          0 LATE PREFETCHES: 0 DROPPED PREFETCHES: 0
PSCL4 PREFETCHES SAME FILL-ORIGIN LEVEL: 0 DIFFERENT FILL-ORIGIN LEVEL: 0

Revised Interactions: positive negative neutral
PSCL4_interactions 0 0 0 -nan -nan -nan
PSCL4_positive -nan -nan -nan
PSCL4_negative -nan -nan -nan -nan -nan
PSCL4_neutral -nan -nan -nan
PSCL3 TOTAL     ACCESS:    1205271  HIT:    1205271  MISS:          0  HIT %:        100  MISS %:          0   MPKI: 0
PSCL3 LOAD TRANSLATION ACCESS:    1205271  HIT:    1205271  MISS:          0  HIT %:        100  MISS %:          0   MPKI: 0
PSCL3 PREFETCH  REQUESTED:          0  ISSUED:          0  USEFUL:          0  USELESS:          0
PSCL3 USEFUL LOAD PREFETCHES:          0 PREFETCH ISSUED TO LOWER LEVEL:          0  ACCURACY: -nan
PSCL3 TIMELY PREFETCHES:          0 LATE PREFETCHES: 0 DROPPED PREFETCHES: 0
PSCL3 PREFETCHES SAME FILL-ORIGIN LEVEL: 0 DIFFERENT FILL-ORIGIN LEVEL: 0

Revised Interactions: positive negative neutral
PSCL3_interactions 0 0 0 -nan -nan -nan
PSCL3_positive -nan -nan -nan
PSCL3_negative -nan -nan -nan -nan -nan
PSCL3_neutral -nan -nan -nan
PSCL2 TOTAL     ACCESS:    1205271  HIT:     659103  MISS:     546168  HIT %:     54.685  MISS %:     45.315   MPKI: 10.9234
PSCL2 LOAD TRANSLATION ACCESS:    1205271  HIT:     659103  MISS:     546168  HIT %:     54.685  MISS %:     45.315   MPKI: 10.9234
PSCL2 PREFETCH  REQUESTED:          0  ISSUED:          0  USEFUL:          0  USELESS:          0
PSCL2 USEFUL LOAD PREFETCHES:          0 PREFETCH ISSUED TO LOWER LEVEL:          0  ACCURACY: -nan
PSCL2 TIMELY PREFETCHES:          0 LATE PREFETCHES: 0 DROPPED PREFETCHES: 0
PSCL2 PREFETCHES SAME FILL-ORIGIN LEVEL: 0 DIFFERENT FILL-ORIGIN LEVEL: 0

Revised Interactions: positive negative neutral
PSCL2_interactions 0 0 0 -nan -nan -nan
PSCL2_positive -nan -nan -nan
PSCL2_negative -nan -nan -nan -nan -nan
PSCL2_neutral -nan -nan -nan
LLC TOTAL     ACCESS:    9566159  HIT:    5004514  MISS:    4561645  HIT %:    52.3148  MISS %:    47.6852   MPKI: 91.2329
LLC LOAD      ACCESS:    2084790  HIT:     506096  MISS:    1578694  HIT %:    24.2756  MISS %:    75.7244   MPKI: 31.5739
LLC RFO       ACCESS:    2186490  HIT:       7821  MISS:    2178669  HIT %:   0.357697  MISS %:    99.6423   MPKI: 43.5734
LLC WRITEBACK ACCESS:    4271273  HIT:    4267910  MISS:       3363  HIT %:    99.9213  MISS %:  0.0787353   MPKI: 0.06726
LLC LOAD TRANSLATION ACCESS:    1023606  HIT:     222687  MISS:     800919  HIT %:    21.7551  MISS %:    78.2449   MPKI: 16.0184
LLC PREFETCH  REQUESTED:          0  ISSUED:          0  USEFUL:          0  USELESS:          0
LLC USEFUL LOAD PREFETCHES:          0 PREFETCH ISSUED TO LOWER LEVEL:          0  ACCURACY: -nan
LLC TIMELY PREFETCHES:          0 LATE PREFETCHES: 0 DROPPED PREFETCHES: 0
LLC PREFETCHES SAME FILL-ORIGIN LEVEL: 0 DIFFERENT FILL-ORIGIN LEVEL: 0
LLC AVERAGE MISS LATENCY: 277.591 cycles
LLC RQ	ACCESS:    5294893	FORWARD:          0	MERGED:          0	TO_CACHE:    5294888
LLC WQ	ACCESS:    4271275	FORWARD:          5	MERGED:          0	TO_CACHE:    4271275

Revised Interactions: positive negative neutral
LLC_interactions 0 0 0 -nan -nan -nan
LLC_positive -nan -nan -nan
LLC_negative -nan -nan -nan -nan -nan
LLC_neutral -nan -nan -nan
LLC Dense regions hint to LLC: 0

RAW hits: 645191
Loads Generated: 20773126
Loads sent to L1D: 20127934
Stores Generated: 17493170
Stores sent to L1D: 17493168
Major fault: 0 Minor fault: 247527
Allocated PAGES: 247527

DRAM Statistics
 CHANNEL 0
 RQ ROW_BUFFER_HIT:      19065  ROW_BUFFER_MISS:    4538314
 DBUS_CONGESTED:         20
 WQ ROW_BUFFER_HIT:     802757  ROW_BUFFER_MISS:    2956675  FULL:          0

 AVG_CONGESTED_CYCLE: 4
 All warmup complete: 2
Channel 0 Bank busy for read cycles: 0
Channel 0 Bank busy for write cycles: 0
Channel 0
Rank 0
0banks busy for read cycles: 500431
0banks busy for write cycles: 0
1banks busy for read cycles: 41782647
1banks busy for write cycles: 617245
2banks busy for read cycles: 53406174
2banks busy for write cycles: 616710
3banks busy for read cycles: 64239131
3banks busy for write cycles: 631451
4banks busy for read cycles: 45847597
4banks busy for write cycles: 1386265
5banks busy for read cycles: 23534895
5banks busy for write cycles: 2714796
6banks busy for read cycles: 8886054
6banks busy for write cycles: 5650690
7banks busy for read cycles: 2013771
7banks busy for write cycles: 20765323
8banks busy for read cycles: 244650
8banks busy for write cycles: 76462805

CPU 0 Branch Prediction Accuracy: 94.9741% MPKI: 6.2455 Average ROB Occupancy at Mispredict: 102.991
Branch types
NOT_BRANCH: 43786403 87.5728%
BRANCH_DIRECT_JUMP: 746772 1.49354%
BRANCH_INDIRECT: 0 0%
BRANCH_CONDITIONAL: 3279955 6.55991%
BRANCH_DIRECT_CALL: 1093318 2.18664%
BRANCH_INDIRECT_CALL: 0 0%
BRANCH_RETURN: 1093318 2.18664%
BRANCH_OTHER: 0 0%

@sumon_overall_L1D         0         0         0         0         0         0         0
@Sumon_Early_by_class_L1D         0         0         0         0
@Sumon_Late_by_class_L1D         0         0         0         0

@Sumon_Early_by_cycle_L1D         0         0         0         0         0         0         0         0         0         0         0         0
@Sumon_Late_by_cycle_L1D         0         0         0         0         0         0
@Sumon_Early_stream_L1D         0         0         0         0         0         0         0         0         0         0         0         0
@Sumon_Early_CS_L1D         0         0         0         0         0         0         0         0         0         0         0         0
@Sumon_Early_CPLX_L1D         0         0         0         0         0         0         0         0         0         0         0         0
@Sumon_Late_stream_L1D         0         0         0         0         0         0
@Sumon_Late_CS_L1D         0         0         0         0         0         0
@Sumon_Late_CPLX_L1D         0         0         0         0         0         0
@sumon_overall_L2C         0         0         0         0         0         0         0
@Sumon_Early_by_class_L2C         0         0         0         0
@Sumon_Late_by_class_L2C         0         0         0         0

@Sumon_Early_by_cycle_L2C         0         0         0         0         0         0         0         0         0         0         0         0
@Sumon_Late_by_cycle_L2C         0         0         0         0         0         0
@Sumon_Early_stream_L2C         0         0         0         0         0         0         0         0         0         0         0         0
@Sumon_Early_CS_L2C         0         0         0         0         0         0         0         0         0         0         0         0
@Sumon_Early_CPLX_L2C         0         0         0         0         0         0         0         0         0         0         0         0
@Sumon_Late_stream_L2C         0         0         0         0         0         0
@Sumon_Late_CS_L2C         0         0         0         0         0         0
@Sumon_Late_CPLX_L2C         0         0         0         0         0         0
DRAM PAGES: 1048576
Allocated PAGES: 247527
