
*** ChampSim Multicore Out-of-Order Simulator ***

Warmup Instructions: 50000000
Simulation Instructions: 50000000
Number of CPUs: 1
LLC sets: 2048
LLC ways: 16
Off-chip DRAM Size: 4096 MB Channels: 1 Width: 64-bit Data Rate: 6400 MT/s
CPU 0 runs ../../biswa/SPEC2017Traces/621.wrf_s-6673B.champsimtrace.xz
.xz
CPU 0 Bimodal branch predictor
BTB has LRU replacement policy
ITLB has LRU replacement policy
DTLB has LRU replacement policy
STLB has LRU replacement policy
L1I has LRU replacement policy
L1D has LRU replacement policy
Initialize DRRIP state for L2C
LLC has LRU replacement policy
Heartbeat CPU 0 instructions: 10000002 cycles: 3568514 heartbeat IPC: 2.80229 cumulative IPC: 2.80229 (Simulation time: 0 hr 2 min 51 sec) 
Heartbeat CPU 0 instructions: 20000003 cycles: 6486412 heartbeat IPC: 3.42712 cumulative IPC: 3.08337 (Simulation time: 0 hr 5 min 9 sec) 
Heartbeat CPU 0 instructions: 30000000 cycles: 9319231 heartbeat IPC: 3.53005 cumulative IPC: 3.21915 (Simulation time: 0 hr 7 min 35 sec) 
Heartbeat CPU 0 instructions: 40000002 cycles: 12220040 heartbeat IPC: 3.44731 cumulative IPC: 3.27331 (Simulation time: 0 hr 10 min 22 sec) 
Heartbeat CPU 0 instructions: 50000001 cycles: 15130358 heartbeat IPC: 3.43605 cumulative IPC: 3.30461 (Simulation time: 0 hr 13 min 0 sec) 

Warmup complete CPU 0 instructions: 50000001 cycles: 15130358 (Simulation time: 0 hr 13 min 0 sec) 

Heartbeat CPU 0 instructions: 60000000 cycles: 35160808 heartbeat IPC: 0.49924 cumulative IPC: 0.49924 (Simulation time: 0 hr 16 min 36 sec) 
Heartbeat CPU 0 instructions: 70000000 cycles: 58382592 heartbeat IPC: 0.43063 cumulative IPC: 0.462404 (Simulation time: 0 hr 20 min 21 sec) 
Heartbeat CPU 0 instructions: 80000000 cycles: 78393663 heartbeat IPC: 0.499723 cumulative IPC: 0.474209 (Simulation time: 0 hr 23 min 25 sec) 
Heartbeat CPU 0 instructions: 90000003 cycles: 98546942 heartbeat IPC: 0.496197 cumulative IPC: 0.479521 (Simulation time: 0 hr 26 min 16 sec) 
Heartbeat CPU 0 instructions: 100000000 cycles: 128833871 heartbeat IPC: 0.330175 cumulative IPC: 0.43974 (Simulation time: 0 hr 29 min 15 sec) 
Finished CPU 0 instructions: 50000000 cycles: 113703514 cumulative IPC: 0.43974 (Simulation time: 0 hr 29 min 15 sec) 

ChampSim completed all CPUs

Region of Interest Statistics

CPU 0 cumulative IPC: 0.43974 instructions: 50000000 cycles: 113703514
ITLB TOTAL     ACCESS:    7673412  HIT:    7673340  MISS:         72  HIT %:    99.9991  MISS %: 0.000938305   MPKI: 0.00144
ITLB LOAD TRANSLATION ACCESS:    7673412  HIT:    7673340  MISS:         72  HIT %:    99.9991  MISS %: 0.000938305   MPKI: 0.00144
ITLB PREFETCH  REQUESTED:          0  ISSUED:          0  USEFUL:          0  USELESS:          0
ITLB USEFUL LOAD PREFETCHES:          0 PREFETCH ISSUED TO LOWER LEVEL:          0  ACCURACY: -nan
ITLB TIMELY PREFETCHES:          0 LATE PREFETCHES: 0 DROPPED PREFETCHES: 0
ITLB PREFETCHES SAME FILL-ORIGIN LEVEL: 0 DIFFERENT FILL-ORIGIN LEVEL: 0
ITLB AVERAGE MISS LATENCY: 226.042 cycles
ITLB RQ	ACCESS:    9488781	FORWARD:          0	MERGED:    1815344	TO_CACHE:    7673437

Revised Interactions: positive negative neutral
ITLB_interactions 0 0 0 -nan -nan -nan
ITLB_positive -nan -nan -nan
ITLB_negative -nan -nan -nan -nan -nan
ITLB_neutral -nan -nan -nan
DTLB TOTAL     ACCESS:   12885625  HIT:   12753931  MISS:     131694  HIT %:     98.978  MISS %:    1.02202   MPKI: 2.63388
DTLB LOAD TRANSLATION ACCESS:   12885625  HIT:   12753931  MISS:     131694  HIT %:     98.978  MISS %:    1.02202   MPKI: 2.63388
DTLB PREFETCH  REQUESTED:          0  ISSUED:          0  USEFUL:          0  USELESS:          0
DTLB USEFUL LOAD PREFETCHES:          0 PREFETCH ISSUED TO LOWER LEVEL:          0  ACCURACY: -nan
DTLB TIMELY PREFETCHES:          0 LATE PREFETCHES: 0 DROPPED PREFETCHES: 0
DTLB PREFETCHES SAME FILL-ORIGIN LEVEL: 0 DIFFERENT FILL-ORIGIN LEVEL: 0
DTLB AVERAGE MISS LATENCY: 20.2644 cycles
DTLB RQ	ACCESS:   14701853	FORWARD:          0	MERGED:    1799978	TO_CACHE:   12901875

Revised Interactions: positive negative neutral
DTLB_interactions 0 0 0 -nan -nan -nan
DTLB_positive -nan -nan -nan
DTLB_negative -nan -nan -nan -nan -nan
DTLB_neutral -nan -nan -nan
STLB TOTAL     ACCESS:     131766  HIT:     116509  MISS:      15257  HIT %:    88.4211  MISS %:    11.5789   MPKI: 0.30514
STLB LOAD TRANSLATION ACCESS:     131766  HIT:     116509  MISS:      15257  HIT %:    88.4211  MISS %:    11.5789   MPKI: 0.30514
STLB PREFETCH  REQUESTED:          0  ISSUED:          0  USEFUL:          0  USELESS:          0
STLB USEFUL LOAD PREFETCHES:          0 PREFETCH ISSUED TO LOWER LEVEL:          0  ACCURACY: -nan
STLB TIMELY PREFETCHES:          0 LATE PREFETCHES: 0 DROPPED PREFETCHES: 0
STLB PREFETCHES SAME FILL-ORIGIN LEVEL: 0 DIFFERENT FILL-ORIGIN LEVEL: 0
STLB AVERAGE MISS LATENCY: 97.535 cycles
STLB RQ	ACCESS:     131766	FORWARD:          0	MERGED:          0	TO_CACHE:     131766

Revised Interactions: positive negative neutral
STLB_interactions 0 0 0 -nan -nan -nan
STLB_positive -nan -nan -nan
STLB_negative -nan -nan -nan -nan -nan
STLB_neutral -nan -nan -nan
STLB Hit, L1D data hit: 0
STLB Hit, L2C data hit: 0
STLB Hit, LLC data hit: 0
STLB Hit, LLC data miss: 0
STLB STLB hints to L2: 0
L1D TOTAL     ACCESS:   13175772  HIT:   11474998  MISS:    1700774  HIT %:    87.0917  MISS %:    12.9083   MPKI: 34.0155
L1D LOAD      ACCESS:   10159337  HIT:    8673697  MISS:    1485640  HIT %:    85.3766  MISS %:    14.6234   MPKI: 29.7128
L1D RFO       ACCESS:    3016435  HIT:    2801301  MISS:     215134  HIT %:    92.8679  MISS %:    7.13206   MPKI: 4.30268
L1D PREFETCH  REQUESTED:          0  ISSUED:          0  USEFUL:          0  USELESS:          0
L1D USEFUL LOAD PREFETCHES:          0 PREFETCH ISSUED TO LOWER LEVEL:          0  ACCURACY: -nan
L1D TIMELY PREFETCHES:          0 LATE PREFETCHES: 0 DROPPED PREFETCHES: 0
L1D PREFETCHES SAME FILL-ORIGIN LEVEL: 0 DIFFERENT FILL-ORIGIN LEVEL: 0
L1D AVERAGE MISS LATENCY: 200.143 cycles
L1D RQ	ACCESS:   16589543	FORWARD:          0	MERGED:    5354239	TO_CACHE:   11215795
L1D WQ	ACCESS:    3489004	FORWARD:      19509	MERGED:       2946	TO_CACHE:    3486058

Revised Interactions: positive negative neutral
L1D_interactions 0 0 0 -nan -nan -nan
L1D_positive -nan -nan -nan
L1D_negative -nan -nan -nan -nan -nan
L1D_neutral -nan -nan -nan
L1D UNIQUE REGIONS ACCESSED: 0
L1D REGIONS CONFLICTS: 0
L1D Cross Page Prefetch Requests: 0
L1D Same Page Prefetch Requests: 0
L1D ROI Sum of L1D PQ occupancy: 0
L1D PREFETCHES PUSHED FROM L2C: 0
L1I TOTAL     ACCESS:    9487400  HIT:    9484622  MISS:       2778  HIT %:    99.9707  MISS %:  0.0292809   MPKI: 0.05556
L1I LOAD      ACCESS:    9487400  HIT:    9484622  MISS:       2778  HIT %:    99.9707  MISS %:  0.0292809   MPKI: 0.05556
L1I PREFETCH  REQUESTED:          0  ISSUED:          0  USEFUL:          0  USELESS:          0
L1I USEFUL LOAD PREFETCHES:          0 PREFETCH ISSUED TO LOWER LEVEL:          0  ACCURACY: -nan
L1I TIMELY PREFETCHES:          0 LATE PREFETCHES: 0 DROPPED PREFETCHES: 0
L1I PREFETCHES SAME FILL-ORIGIN LEVEL: 0 DIFFERENT FILL-ORIGIN LEVEL: 0
L1I AVERAGE MISS LATENCY: 201.526 cycles
L1I RQ	ACCESS:   13232336	FORWARD:          0	MERGED:    3743555	TO_CACHE:    9488781

Revised Interactions: positive negative neutral
L1I_interactions 0 0 0 -nan -nan -nan
L1I_positive -nan -nan -nan
L1I_negative -nan -nan -nan -nan -nan
L1I_neutral -nan -nan -nan
BTB TOTAL     ACCESS:    2203355  HIT:    2197121  MISS:       6234  HIT %:    99.7171  MISS %:   0.282932   MPKI: 0.12468
BTB BRANCH_DIRECT_JUMP	ACCESS:       3916  HIT:       3875  MISS:         41
BTB BRANCH_INDIRECT	ACCESS:          0  HIT:          0  MISS:          0
BTB BRANCH_CONDITIONAL	ACCESS:    2181747  HIT:    2181275  MISS:        472
BTB BRANCH_DIRECT_CALL	ACCESS:       8847  HIT:       8610  MISS:        237
BTB BRANCH_INDIRECT_CALL	ACCESS:          0  HIT:          0  MISS:          0
BTB BRANCH_RETURN	ACCESS:       8845  HIT:       3361  MISS:       5484
BTB BRANCH_OTHER ACCESS:          0  HIT:          0  MISS:          0

L2C TOTAL     ACCESS:    2319427  HIT:    1030128  MISS:    1289299  HIT %:     44.413  MISS %:     55.587   MPKI: 25.786
L2C LOAD      ACCESS:    1488398  HIT:     331916  MISS:    1156482  HIT %:    22.3002  MISS %:    77.6998   MPKI: 23.1296
L2C DATA LOAD MPKI: 23.0741
L2C INSTRUCTION LOAD MPKI: 0.05556
L2C RFO       ACCESS:     215131  HIT:      91959  MISS:     123172  HIT %:    42.7456  MISS %:    57.2544   MPKI: 2.46344
L2C WRITEBACK ACCESS:     600526  HIT:     593510  MISS:       7016  HIT %:    98.8317  MISS %:    1.16831   MPKI: 0.14032
L2C LOAD TRANSLATION ACCESS:      15372  HIT:      12743  MISS:       2629  HIT %:    82.8975  MISS %:    17.1025   MPKI: 0.05258
L2C PREFETCH  REQUESTED:          0  ISSUED:          0  USEFUL:          0  USELESS:          0
L2C USEFUL LOAD PREFETCHES:          0 PREFETCH ISSUED TO LOWER LEVEL:          0  ACCURACY: -nan
L2C TIMELY PREFETCHES:          0 LATE PREFETCHES: 0 DROPPED PREFETCHES: 0
L2C PREFETCHES SAME FILL-ORIGIN LEVEL: 0 DIFFERENT FILL-ORIGIN LEVEL: 0
L2C AVERAGE MISS LATENCY: 244.762 cycles
L2C RQ	ACCESS:    1718934	FORWARD:          0	MERGED:          0	TO_CACHE:    1718911
L2C WQ	ACCESS:     600534	FORWARD:         23	MERGED:          0	TO_CACHE:     600534

Revised Interactions: positive negative neutral
L2C_interactions 0 0 0 -nan -nan -nan
L2C_positive -nan -nan -nan
L2C_negative -nan -nan -nan -nan -nan
L2C_neutral -nan -nan -nan
L2C Instructions Evicting Data 2763
L2C Translations Evicting Data 2623
L2C Data Evicting Data 1271548
L2C Instructions Evicting Instructions 4
L2C Translations Evicting Instructions 2
L2C Data Evicting Instructions 2760
L2C Instructions Evicting Translations 11
L2C Translations Evicting Translations 4
L2C Data Evicting Translations 2568
L2C Dense regions hint from L2: 0
PSCL5 TOTAL     ACCESS:      15257  HIT:      15257  MISS:          0  HIT %:        100  MISS %:          0   MPKI: 0
PSCL5 LOAD TRANSLATION ACCESS:      15257  HIT:      15257  MISS:          0  HIT %:        100  MISS %:          0   MPKI: 0
PSCL5 PREFETCH  REQUESTED:          0  ISSUED:          0  USEFUL:          0  USELESS:          0
PSCL5 USEFUL LOAD PREFETCHES:          0 PREFETCH ISSUED TO LOWER LEVEL:          0  ACCURACY: -nan
PSCL5 TIMELY PREFETCHES:          0 LATE PREFETCHES: 0 DROPPED PREFETCHES: 0
PSCL5 PREFETCHES SAME FILL-ORIGIN LEVEL: 0 DIFFERENT FILL-ORIGIN LEVEL: 0

Revised Interactions: positive negative neutral
PSCL5_interactions 0 0 0 -nan -nan -nan
PSCL5_positive -nan -nan -nan
PSCL5_negative -nan -nan -nan -nan -nan
PSCL5_neutral -nan -nan -nan
PSCL4 TOTAL     ACCESS:      15257  HIT:      15257  MISS:          0  HIT %:        100  MISS %:          0   MPKI: 0
PSCL4 LOAD TRANSLATION ACCESS:      15257  HIT:      15257  MISS:          0  HIT %:        100  MISS %:          0   MPKI: 0
PSCL4 PREFETCH  REQUESTED:          0  ISSUED:          0  USEFUL:          0  USELESS:          0
PSCL4 USEFUL LOAD PREFETCHES:          0 PREFETCH ISSUED TO LOWER LEVEL:          0  ACCURACY: -nan
PSCL4 TIMELY PREFETCHES:          0 LATE PREFETCHES: 0 DROPPED PREFETCHES: 0
PSCL4 PREFETCHES SAME FILL-ORIGIN LEVEL: 0 DIFFERENT FILL-ORIGIN LEVEL: 0

Revised Interactions: positive negative neutral
PSCL4_interactions 0 0 0 -nan -nan -nan
PSCL4_positive -nan -nan -nan
PSCL4_negative -nan -nan -nan -nan -nan
PSCL4_neutral -nan -nan -nan
PSCL3 TOTAL     ACCESS:      15257  HIT:      15257  MISS:          0  HIT %:        100  MISS %:          0   MPKI: 0
PSCL3 LOAD TRANSLATION ACCESS:      15257  HIT:      15257  MISS:          0  HIT %:        100  MISS %:          0   MPKI: 0
PSCL3 PREFETCH  REQUESTED:          0  ISSUED:          0  USEFUL:          0  USELESS:          0
PSCL3 USEFUL LOAD PREFETCHES:          0 PREFETCH ISSUED TO LOWER LEVEL:          0  ACCURACY: -nan
PSCL3 TIMELY PREFETCHES:          0 LATE PREFETCHES: 0 DROPPED PREFETCHES: 0
PSCL3 PREFETCHES SAME FILL-ORIGIN LEVEL: 0 DIFFERENT FILL-ORIGIN LEVEL: 0

Revised Interactions: positive negative neutral
PSCL3_interactions 0 0 0 -nan -nan -nan
PSCL3_positive -nan -nan -nan
PSCL3_negative -nan -nan -nan -nan -nan
PSCL3_neutral -nan -nan -nan
PSCL2 TOTAL     ACCESS:      15257  HIT:      15142  MISS:        115  HIT %:    99.2462  MISS %:   0.753752   MPKI: 0.0023
PSCL2 LOAD TRANSLATION ACCESS:      15257  HIT:      15142  MISS:        115  HIT %:    99.2462  MISS %:   0.753752   MPKI: 0.0023
PSCL2 PREFETCH  REQUESTED:          0  ISSUED:          0  USEFUL:          0  USELESS:          0
PSCL2 USEFUL LOAD PREFETCHES:          0 PREFETCH ISSUED TO LOWER LEVEL:          0  ACCURACY: -nan
PSCL2 TIMELY PREFETCHES:          0 LATE PREFETCHES: 0 DROPPED PREFETCHES: 0
PSCL2 PREFETCHES SAME FILL-ORIGIN LEVEL: 0 DIFFERENT FILL-ORIGIN LEVEL: 0

Revised Interactions: positive negative neutral
PSCL2_interactions 0 0 0 -nan -nan -nan
PSCL2_positive -nan -nan -nan
PSCL2_negative -nan -nan -nan -nan -nan
PSCL2_neutral -nan -nan -nan
LLC TOTAL     ACCESS:    1719148  HIT:     505071  MISS:    1214077  HIT %:    29.3791  MISS %:    70.6209   MPKI: 24.2815
LLC LOAD      ACCESS:    1156482  HIT:      68280  MISS:    1088202  HIT %:    5.90411  MISS %:    94.0959   MPKI: 21.764
LLC RFO       ACCESS:     123172  HIT:       2924  MISS:     120248  HIT %:    2.37392  MISS %:    97.6261   MPKI: 2.40496
LLC WRITEBACK ACCESS:     436865  HIT:     433673  MISS:       3192  HIT %:    99.2693  MISS %:   0.730661   MPKI: 0.06384
LLC LOAD TRANSLATION ACCESS:       2629  HIT:        194  MISS:       2435  HIT %:    7.37923  MISS %:    92.6208   MPKI: 0.0487
LLC PREFETCH  REQUESTED:          0  ISSUED:          0  USEFUL:          0  USELESS:          0
LLC USEFUL LOAD PREFETCHES:          0 PREFETCH ISSUED TO LOWER LEVEL:          0  ACCURACY: -nan
LLC TIMELY PREFETCHES:          0 LATE PREFETCHES: 0 DROPPED PREFETCHES: 0
LLC PREFETCHES SAME FILL-ORIGIN LEVEL: 0 DIFFERENT FILL-ORIGIN LEVEL: 0
LLC AVERAGE MISS LATENCY: 228.086 cycles
LLC RQ	ACCESS:    1282291	FORWARD:          0	MERGED:          0	TO_CACHE:    1282291
LLC WQ	ACCESS:     436873	FORWARD:          0	MERGED:          0	TO_CACHE:     436873

Revised Interactions: positive negative neutral
LLC_interactions 0 0 0 -nan -nan -nan
LLC_positive -nan -nan -nan
LLC_negative -nan -nan -nan -nan -nan
LLC_neutral -nan -nan -nan
LLC Dense regions hint to LLC: 0

RAW hits: 176179
Loads Generated: 16765722
Loads sent to L1D: 16589543
Stores Generated: 3489005
Stores sent to L1D: 3489004
Major fault: 0 Minor fault: 7750
Allocated PAGES: 7750

DRAM Statistics
 CHANNEL 0
 RQ ROW_BUFFER_HIT:     312841  ROW_BUFFER_MISS:     897993
 DBUS_CONGESTED:        728
 WQ ROW_BUFFER_HIT:     227567  ROW_BUFFER_MISS:     157224  FULL:          0

 AVG_CONGESTED_CYCLE: 4
 All warmup complete: 2
Channel 0 Bank busy for read cycles: 0
Channel 0 Bank busy for write cycles: 0
Channel 0
Rank 0
0banks busy for read cycles: 19714893
0banks busy for write cycles: 28329
1banks busy for read cycles: 31405418
1banks busy for write cycles: 5150448
2banks busy for read cycles: 25521253
2banks busy for write cycles: 2958297
3banks busy for read cycles: 7645795
3banks busy for write cycles: 1679436
4banks busy for read cycles: 5742912
4banks busy for write cycles: 1234176
5banks busy for read cycles: 1793043
5banks busy for write cycles: 939394
6banks busy for read cycles: 738527
6banks busy for write cycles: 812119
7banks busy for read cycles: 653421
7banks busy for write cycles: 1086831
8banks busy for read cycles: 609955
8banks busy for write cycles: 5989268

CPU 0 Branch Prediction Accuracy: 94.351% MPKI: 2.76314 Average ROB Occupancy at Mispredict: 158.244
Branch types
NOT_BRANCH: 47554004 95.108%
BRANCH_DIRECT_JUMP: 3916 0.007832%
BRANCH_INDIRECT: 0 0%
BRANCH_CONDITIONAL: 2424088 4.84818%
BRANCH_DIRECT_CALL: 8847 0.017694%
BRANCH_INDIRECT_CALL: 0 0%
BRANCH_RETURN: 8845 0.01769%
BRANCH_OTHER: 0 0%

@sumon_overall_L1D         0         0         0         0         0         0         0
@Sumon_Early_by_class_L1D         0         0         0         0
@Sumon_Late_by_class_L1D         0         0         0         0

@Sumon_Early_by_cycle_L1D         0         0         0         0         0         0         0         0         0         0         0         0
@Sumon_Late_by_cycle_L1D         0         0         0         0         0         0
@Sumon_Early_stream_L1D         0         0         0         0         0         0         0         0         0         0         0         0
@Sumon_Early_CS_L1D         0         0         0         0         0         0         0         0         0         0         0         0
@Sumon_Early_CPLX_L1D         0         0         0         0         0         0         0         0         0         0         0         0
@Sumon_Late_stream_L1D         0         0         0         0         0         0
@Sumon_Late_CS_L1D         0         0         0         0         0         0
@Sumon_Late_CPLX_L1D         0         0         0         0         0         0
@sumon_overall_L2C         0         0         0         0         0         0         0
@Sumon_Early_by_class_L2C         0         0         0         0
@Sumon_Late_by_class_L2C         0         0         0         0

@Sumon_Early_by_cycle_L2C         0         0         0         0         0         0         0         0         0         0         0         0
@Sumon_Late_by_cycle_L2C         0         0         0         0         0         0
@Sumon_Early_stream_L2C         0         0         0         0         0         0         0         0         0         0         0         0
@Sumon_Early_CS_L2C         0         0         0         0         0         0         0         0         0         0         0         0
@Sumon_Early_CPLX_L2C         0         0         0         0         0         0         0         0         0         0         0         0
@Sumon_Late_stream_L2C         0         0         0         0         0         0
@Sumon_Late_CS_L2C         0         0         0         0         0         0
@Sumon_Late_CPLX_L2C         0         0         0         0         0         0
DRAM PAGES: 1048576
Allocated PAGES: 7750
