
*** ChampSim Multicore Out-of-Order Simulator ***

Warmup Instructions: 50000000
Simulation Instructions: 50000000
Number of CPUs: 1
LLC sets: 2048
LLC ways: 16
Off-chip DRAM Size: 4096 MB Channels: 1 Width: 64-bit Data Rate: 6400 MT/s
CPU 0 runs ../../biswa/SPEC2017Traces/628.pop2_s-17B.champsimtrace.xz
.xz
CPU 0 Bimodal branch predictor
BTB has LRU replacement policy
ITLB has LRU replacement policy
DTLB has LRU replacement policy
STLB has LRU replacement policy
L1I has LRU replacement policy
L1D has LRU replacement policy
Initialize DRRIP state for L2C
LLC has LRU replacement policy
Heartbeat CPU 0 instructions: 10000003 cycles: 3002119 heartbeat IPC: 3.33098 cumulative IPC: 3.33098 (Simulation time: 0 hr 1 min 47 sec) 
Heartbeat CPU 0 instructions: 20000001 cycles: 6003835 heartbeat IPC: 3.33143 cumulative IPC: 3.3312 (Simulation time: 0 hr 3 min 49 sec) 
Heartbeat CPU 0 instructions: 30000003 cycles: 9005358 heartbeat IPC: 3.33164 cumulative IPC: 3.33135 (Simulation time: 0 hr 5 min 50 sec) 
Heartbeat CPU 0 instructions: 40000003 cycles: 12006644 heartbeat IPC: 3.33191 cumulative IPC: 3.33149 (Simulation time: 0 hr 8 min 1 sec) 
Heartbeat CPU 0 instructions: 50000003 cycles: 15009965 heartbeat IPC: 3.32965 cumulative IPC: 3.33112 (Simulation time: 0 hr 10 min 14 sec) 

Warmup complete CPU 0 instructions: 50000003 cycles: 15009965 (Simulation time: 0 hr 10 min 14 sec) 

Heartbeat CPU 0 instructions: 60000000 cycles: 28370830 heartbeat IPC: 0.748454 cumulative IPC: 0.748454 (Simulation time: 0 hr 13 min 9 sec) 
Heartbeat CPU 0 instructions: 70000002 cycles: 41548240 heartbeat IPC: 0.758875 cumulative IPC: 0.753628 (Simulation time: 0 hr 16 min 1 sec) 
Heartbeat CPU 0 instructions: 80000000 cycles: 54342822 heartbeat IPC: 0.781581 cumulative IPC: 0.762721 (Simulation time: 0 hr 18 min 21 sec) 
Heartbeat CPU 0 instructions: 90000003 cycles: 69047019 heartbeat IPC: 0.680078 cumulative IPC: 0.740233 (Simulation time: 0 hr 20 min 44 sec) 
Heartbeat CPU 0 instructions: 100000000 cycles: 82248300 heartbeat IPC: 0.757502 cumulative IPC: 0.743623 (Simulation time: 0 hr 23 min 4 sec) 
Finished CPU 0 instructions: 50000002 cycles: 67238345 cumulative IPC: 0.743623 (Simulation time: 0 hr 23 min 4 sec) 

ChampSim completed all CPUs

Region of Interest Statistics

CPU 0 cumulative IPC: 0.743623 instructions: 50000002 cycles: 67238345
ITLB TOTAL     ACCESS:    8500975  HIT:    8499917  MISS:       1058  HIT %:    99.9876  MISS %:  0.0124456   MPKI: 0.02116
ITLB LOAD TRANSLATION ACCESS:    8500975  HIT:    8499917  MISS:       1058  HIT %:    99.9876  MISS %:  0.0124456   MPKI: 0.02116
ITLB PREFETCH  REQUESTED:          0  ISSUED:          0  USEFUL:          0  USELESS:          0
ITLB USEFUL LOAD PREFETCHES:          0 PREFETCH ISSUED TO LOWER LEVEL:          0  ACCURACY: -nan
ITLB TIMELY PREFETCHES:          0 LATE PREFETCHES: 0 DROPPED PREFETCHES: 0
ITLB PREFETCHES SAME FILL-ORIGIN LEVEL: 0 DIFFERENT FILL-ORIGIN LEVEL: 0
ITLB AVERAGE MISS LATENCY: 14.8507 cycles
ITLB RQ	ACCESS:    9662560	FORWARD:          0	MERGED:    1161275	TO_CACHE:    8501285

Revised Interactions: positive negative neutral
ITLB_interactions 0 0 0 -nan -nan -nan
ITLB_positive -nan -nan -nan
ITLB_negative -nan -nan -nan -nan -nan
ITLB_neutral -nan -nan -nan
DTLB TOTAL     ACCESS:   10294892  HIT:   10267125  MISS:      27767  HIT %:    99.7303  MISS %:   0.269716   MPKI: 0.55534
DTLB LOAD TRANSLATION ACCESS:   10294892  HIT:   10267125  MISS:      27767  HIT %:    99.7303  MISS %:   0.269716   MPKI: 0.55534
DTLB PREFETCH  REQUESTED:          0  ISSUED:          0  USEFUL:          0  USELESS:          0
DTLB USEFUL LOAD PREFETCHES:          0 PREFETCH ISSUED TO LOWER LEVEL:          0  ACCURACY: -nan
DTLB TIMELY PREFETCHES:          0 LATE PREFETCHES: 0 DROPPED PREFETCHES: 0
DTLB PREFETCHES SAME FILL-ORIGIN LEVEL: 0 DIFFERENT FILL-ORIGIN LEVEL: 0
DTLB AVERAGE MISS LATENCY: 23.2655 cycles
DTLB RQ	ACCESS:   11142422	FORWARD:          0	MERGED:     841630	TO_CACHE:   10300792

Revised Interactions: positive negative neutral
DTLB_interactions 0 0 0 -nan -nan -nan
DTLB_positive -nan -nan -nan
DTLB_negative -nan -nan -nan -nan -nan
DTLB_neutral -nan -nan -nan
STLB TOTAL     ACCESS:      28825  HIT:      26604  MISS:       2221  HIT %:    92.2949  MISS %:    7.70512   MPKI: 0.04442
STLB LOAD TRANSLATION ACCESS:      28825  HIT:      26604  MISS:       2221  HIT %:    92.2949  MISS %:    7.70512   MPKI: 0.04442
STLB PREFETCH  REQUESTED:          0  ISSUED:          0  USEFUL:          0  USELESS:          0
STLB USEFUL LOAD PREFETCHES:          0 PREFETCH ISSUED TO LOWER LEVEL:          0  ACCURACY: -nan
STLB TIMELY PREFETCHES:          0 LATE PREFETCHES: 0 DROPPED PREFETCHES: 0
STLB PREFETCHES SAME FILL-ORIGIN LEVEL: 0 DIFFERENT FILL-ORIGIN LEVEL: 0
STLB AVERAGE MISS LATENCY: 179.148 cycles
STLB RQ	ACCESS:      28825	FORWARD:          0	MERGED:          0	TO_CACHE:      28825

Revised Interactions: positive negative neutral
STLB_interactions 0 0 0 -nan -nan -nan
STLB_positive -nan -nan -nan
STLB_negative -nan -nan -nan -nan -nan
STLB_neutral -nan -nan -nan
STLB Hit, L1D data hit: 0
STLB Hit, L2C data hit: 0
STLB Hit, LLC data hit: 0
STLB Hit, LLC data miss: 0
STLB STLB hints to L2: 0
L1D TOTAL     ACCESS:   10332616  HIT:    9533372  MISS:     799244  HIT %:    92.2648  MISS %:    7.73516   MPKI: 15.9849
L1D LOAD      ACCESS:    7199272  HIT:    6685444  MISS:     513828  HIT %:    92.8628  MISS %:    7.13722   MPKI: 10.2766
L1D RFO       ACCESS:    3133344  HIT:    2847928  MISS:     285416  HIT %:     90.891  MISS %:    9.10899   MPKI: 5.70832
L1D PREFETCH  REQUESTED:          0  ISSUED:          0  USEFUL:          0  USELESS:          0
L1D USEFUL LOAD PREFETCHES:          0 PREFETCH ISSUED TO LOWER LEVEL:          0  ACCURACY: -nan
L1D TIMELY PREFETCHES:          0 LATE PREFETCHES: 0 DROPPED PREFETCHES: 0
L1D PREFETCHES SAME FILL-ORIGIN LEVEL: 0 DIFFERENT FILL-ORIGIN LEVEL: 0
L1D AVERAGE MISS LATENCY: 57.6338 cycles
L1D RQ	ACCESS:   10668949	FORWARD:          0	MERGED:    3157038	TO_CACHE:    7485118
L1D WQ	ACCESS:    3740433	FORWARD:      26793	MERGED:      83129	TO_CACHE:    3657304

Revised Interactions: positive negative neutral
L1D_interactions 0 0 0 -nan -nan -nan
L1D_positive -nan -nan -nan
L1D_negative -nan -nan -nan -nan -nan
L1D_neutral -nan -nan -nan
L1D UNIQUE REGIONS ACCESSED: 0
L1D REGIONS CONFLICTS: 0
L1D Cross Page Prefetch Requests: 0
L1D Same Page Prefetch Requests: 0
L1D ROI Sum of L1D PQ occupancy: 0
L1D PREFETCHES PUSHED FROM L2C: 0
L1I TOTAL     ACCESS:    9652898  HIT:    9628100  MISS:      24798  HIT %:    99.7431  MISS %:   0.256897   MPKI: 0.49596
L1I LOAD      ACCESS:    9652898  HIT:    9628100  MISS:      24798  HIT %:    99.7431  MISS %:   0.256897   MPKI: 0.49596
L1I PREFETCH  REQUESTED:          0  ISSUED:          0  USEFUL:          0  USELESS:          0
L1I USEFUL LOAD PREFETCHES:          0 PREFETCH ISSUED TO LOWER LEVEL:          0  ACCURACY: -nan
L1I TIMELY PREFETCHES:          0 LATE PREFETCHES: 0 DROPPED PREFETCHES: 0
L1I PREFETCHES SAME FILL-ORIGIN LEVEL: 0 DIFFERENT FILL-ORIGIN LEVEL: 0
L1I AVERAGE MISS LATENCY: 45.7013 cycles
L1I RQ	ACCESS:   14440916	FORWARD:          0	MERGED:    4778356	TO_CACHE:    9662560

Revised Interactions: positive negative neutral
L1I_interactions 0 0 0 -nan -nan -nan
L1I_positive -nan -nan -nan
L1I_negative -nan -nan -nan -nan -nan
L1I_neutral -nan -nan -nan
BTB TOTAL     ACCESS:    5842920  HIT:    5825348  MISS:      17572  HIT %:    99.6993  MISS %:    0.30074   MPKI: 0.35144
BTB BRANCH_DIRECT_JUMP	ACCESS:     214980  HIT:     214813  MISS:        167
BTB BRANCH_INDIRECT	ACCESS:       2007  HIT:       1748  MISS:        259
BTB BRANCH_CONDITIONAL	ACCESS:    5423645  HIT:    5422372  MISS:       1273
BTB BRANCH_DIRECT_CALL	ACCESS:     101143  HIT:     100534  MISS:        609
BTB BRANCH_INDIRECT_CALL	ACCESS:          0  HIT:          0  MISS:          0
BTB BRANCH_RETURN	ACCESS:     101145  HIT:      85881  MISS:      15264
BTB BRANCH_OTHER ACCESS:          0  HIT:          0  MISS:          0

L2C TOTAL     ACCESS:    1200928  HIT:     896103  MISS:     304825  HIT %:    74.6175  MISS %:    25.3825   MPKI: 6.0965
L2C LOAD      ACCESS:     538585  HIT:     320796  MISS:     217789  HIT %:    59.5627  MISS %:    40.4373   MPKI: 4.35578
L2C DATA LOAD MPKI: 3.90786
L2C INSTRUCTION LOAD MPKI: 0.44792
L2C RFO       ACCESS:     285413  HIT:     201365  MISS:      84048  HIT %:    70.5521  MISS %:    29.4479   MPKI: 1.68096
L2C WRITEBACK ACCESS:     374391  HIT:     372639  MISS:       1752  HIT %:     99.532  MISS %:    0.46796   MPKI: 0.03504
L2C LOAD TRANSLATION ACCESS:       2539  HIT:       1303  MISS:       1236  HIT %:    51.3194  MISS %:    48.6806   MPKI: 0.02472
L2C PREFETCH  REQUESTED:          0  ISSUED:          0  USEFUL:          0  USELESS:          0
L2C USEFUL LOAD PREFETCHES:          0 PREFETCH ISSUED TO LOWER LEVEL:          0  ACCURACY: -nan
L2C TIMELY PREFETCHES:          0 LATE PREFETCHES: 0 DROPPED PREFETCHES: 0
L2C PREFETCHES SAME FILL-ORIGIN LEVEL: 0 DIFFERENT FILL-ORIGIN LEVEL: 0
L2C AVERAGE MISS LATENCY: 114.21 cycles
L2C RQ	ACCESS:     826581	FORWARD:          0	MERGED:          0	TO_CACHE:     826537
L2C WQ	ACCESS:     374391	FORWARD:         44	MERGED:          0	TO_CACHE:     374391

Revised Interactions: positive negative neutral
L2C_interactions 0 0 0 -nan -nan -nan
L2C_positive -nan -nan -nan
L2C_negative -nan -nan -nan -nan -nan
L2C_neutral -nan -nan -nan
L2C Instructions Evicting Data 19493
L2C Translations Evicting Data 1125
L2C Data Evicting Data 258191
L2C Instructions Evicting Instructions 2788
L2C Translations Evicting Instructions 101
L2C Data Evicting Instructions 20130
L2C Instructions Evicting Translations 115
L2C Translations Evicting Translations 10
L2C Data Evicting Translations 1120
L2C Dense regions hint from L2: 0
PSCL5 TOTAL     ACCESS:       2221  HIT:       2221  MISS:          0  HIT %:        100  MISS %:          0   MPKI: 0
PSCL5 LOAD TRANSLATION ACCESS:       2221  HIT:       2221  MISS:          0  HIT %:        100  MISS %:          0   MPKI: 0
PSCL5 PREFETCH  REQUESTED:          0  ISSUED:          0  USEFUL:          0  USELESS:          0
PSCL5 USEFUL LOAD PREFETCHES:          0 PREFETCH ISSUED TO LOWER LEVEL:          0  ACCURACY: -nan
PSCL5 TIMELY PREFETCHES:          0 LATE PREFETCHES: 0 DROPPED PREFETCHES: 0
PSCL5 PREFETCHES SAME FILL-ORIGIN LEVEL: 0 DIFFERENT FILL-ORIGIN LEVEL: 0

Revised Interactions: positive negative neutral
PSCL5_interactions 0 0 0 -nan -nan -nan
PSCL5_positive -nan -nan -nan
PSCL5_negative -nan -nan -nan -nan -nan
PSCL5_neutral -nan -nan -nan
PSCL4 TOTAL     ACCESS:       2221  HIT:       2221  MISS:          0  HIT %:        100  MISS %:          0   MPKI: 0
PSCL4 LOAD TRANSLATION ACCESS:       2221  HIT:       2221  MISS:          0  HIT %:        100  MISS %:          0   MPKI: 0
PSCL4 PREFETCH  REQUESTED:          0  ISSUED:          0  USEFUL:          0  USELESS:          0
PSCL4 USEFUL LOAD PREFETCHES:          0 PREFETCH ISSUED TO LOWER LEVEL:          0  ACCURACY: -nan
PSCL4 TIMELY PREFETCHES:          0 LATE PREFETCHES: 0 DROPPED PREFETCHES: 0
PSCL4 PREFETCHES SAME FILL-ORIGIN LEVEL: 0 DIFFERENT FILL-ORIGIN LEVEL: 0

Revised Interactions: positive negative neutral
PSCL4_interactions 0 0 0 -nan -nan -nan
PSCL4_positive -nan -nan -nan
PSCL4_negative -nan -nan -nan -nan -nan
PSCL4_neutral -nan -nan -nan
PSCL3 TOTAL     ACCESS:       2221  HIT:       2221  MISS:          0  HIT %:        100  MISS %:          0   MPKI: 0
PSCL3 LOAD TRANSLATION ACCESS:       2221  HIT:       2221  MISS:          0  HIT %:        100  MISS %:          0   MPKI: 0
PSCL3 PREFETCH  REQUESTED:          0  ISSUED:          0  USEFUL:          0  USELESS:          0
PSCL3 USEFUL LOAD PREFETCHES:          0 PREFETCH ISSUED TO LOWER LEVEL:          0  ACCURACY: -nan
PSCL3 TIMELY PREFETCHES:          0 LATE PREFETCHES: 0 DROPPED PREFETCHES: 0
PSCL3 PREFETCHES SAME FILL-ORIGIN LEVEL: 0 DIFFERENT FILL-ORIGIN LEVEL: 0

Revised Interactions: positive negative neutral
PSCL3_interactions 0 0 0 -nan -nan -nan
PSCL3_positive -nan -nan -nan
PSCL3_negative -nan -nan -nan -nan -nan
PSCL3_neutral -nan -nan -nan
PSCL2 TOTAL     ACCESS:       2221  HIT:       1882  MISS:        339  HIT %:    84.7366  MISS %:    15.2634   MPKI: 0.00678
PSCL2 LOAD TRANSLATION ACCESS:       2221  HIT:       1882  MISS:        339  HIT %:    84.7366  MISS %:    15.2634   MPKI: 0.00678
PSCL2 PREFETCH  REQUESTED:          0  ISSUED:          0  USEFUL:          0  USELESS:          0
PSCL2 USEFUL LOAD PREFETCHES:          0 PREFETCH ISSUED TO LOWER LEVEL:          0  ACCURACY: -nan
PSCL2 TIMELY PREFETCHES:          0 LATE PREFETCHES: 0 DROPPED PREFETCHES: 0
PSCL2 PREFETCHES SAME FILL-ORIGIN LEVEL: 0 DIFFERENT FILL-ORIGIN LEVEL: 0

Revised Interactions: positive negative neutral
PSCL2_interactions 0 0 0 -nan -nan -nan
PSCL2_positive -nan -nan -nan
PSCL2_negative -nan -nan -nan -nan -nan
PSCL2_neutral -nan -nan -nan
LLC TOTAL     ACCESS:     441698  HIT:     276805  MISS:     164893  HIT %:    62.6684  MISS %:    37.3316   MPKI: 3.29786
LLC LOAD      ACCESS:     217789  HIT:      97530  MISS:     120259  HIT %:    44.7819  MISS %:    55.2181   MPKI: 2.40518
LLC RFO       ACCESS:      84048  HIT:      41461  MISS:      42587  HIT %:    49.3301  MISS %:    50.6699   MPKI: 0.85174
LLC WRITEBACK ACCESS:     138625  HIT:     136959  MISS:       1666  HIT %:    98.7982  MISS %:     1.2018   MPKI: 0.03332
LLC LOAD TRANSLATION ACCESS:       1236  HIT:        855  MISS:        381  HIT %:    69.1748  MISS %:    30.8252   MPKI: 0.00762
LLC PREFETCH  REQUESTED:          0  ISSUED:          0  USEFUL:          0  USELESS:          0
LLC USEFUL LOAD PREFETCHES:          0 PREFETCH ISSUED TO LOWER LEVEL:          0  ACCURACY: -nan
LLC TIMELY PREFETCHES:          0 LATE PREFETCHES: 0 DROPPED PREFETCHES: 0
LLC PREFETCHES SAME FILL-ORIGIN LEVEL: 0 DIFFERENT FILL-ORIGIN LEVEL: 0
LLC AVERAGE MISS LATENCY: 155.395 cycles
LLC RQ	ACCESS:     303073	FORWARD:          0	MERGED:          0	TO_CACHE:     303073
LLC WQ	ACCESS:     138625	FORWARD:          0	MERGED:          0	TO_CACHE:     138625

Revised Interactions: positive negative neutral
LLC_interactions 0 0 0 -nan -nan -nan
LLC_positive -nan -nan -nan
LLC_negative -nan -nan -nan -nan -nan
LLC_neutral -nan -nan -nan
LLC Dense regions hint to LLC: 0

RAW hits: 122340
Loads Generated: 10791289
Loads sent to L1D: 10668949
Stores Generated: 3740422
Stores sent to L1D: 3740433
Major fault: 0 Minor fault: 5309
Allocated PAGES: 5309

DRAM Statistics
 CHANNEL 0
 RQ ROW_BUFFER_HIT:      63688  ROW_BUFFER_MISS:      99539
 DBUS_CONGESTED:        576
 WQ ROW_BUFFER_HIT:      30700  ROW_BUFFER_MISS:      30049  FULL:          0

 AVG_CONGESTED_CYCLE: 4
 All warmup complete: 2
Channel 0 Bank busy for read cycles: 0
Channel 0 Bank busy for write cycles: 0
Channel 0
Rank 0
0banks busy for read cycles: 52363526
0banks busy for write cycles: 8975
1banks busy for read cycles: 5773852
1banks busy for write cycles: 1460207
2banks busy for read cycles: 3254062
2banks busy for write cycles: 847572
3banks busy for read cycles: 849585
3banks busy for write cycles: 493352
4banks busy for read cycles: 493628
4banks busy for write cycles: 310928
5banks busy for read cycles: 70939
5banks busy for write cycles: 211308
6banks busy for read cycles: 116498
6banks busy for write cycles: 154522
7banks busy for read cycles: 11087
7banks busy for write cycles: 181888
8banks busy for read cycles: 27258
8banks busy for write cycles: 609159

CPU 0 Branch Prediction Accuracy: 97.2621% MPKI: 3.31844 Average ROB Occupancy at Mispredict: 45.5154
Branch types
NOT_BRANCH: 43939855 87.8797%
BRANCH_DIRECT_JUMP: 214980 0.42996%
BRANCH_INDIRECT: 2007 0.004014%
BRANCH_CONDITIONAL: 5640904 11.2818%
BRANCH_DIRECT_CALL: 101143 0.202286%
BRANCH_INDIRECT_CALL: 0 0%
BRANCH_RETURN: 101145 0.20229%
BRANCH_OTHER: 0 0%

@sumon_overall_L1D         0         0         0         0         0         0         0
@Sumon_Early_by_class_L1D         0         0         0         0
@Sumon_Late_by_class_L1D         0         0         0         0

@Sumon_Early_by_cycle_L1D         0         0         0         0         0         0         0         0         0         0         0         0
@Sumon_Late_by_cycle_L1D         0         0         0         0         0         0
@Sumon_Early_stream_L1D         0         0         0         0         0         0         0         0         0         0         0         0
@Sumon_Early_CS_L1D         0         0         0         0         0         0         0         0         0         0         0         0
@Sumon_Early_CPLX_L1D         0         0         0         0         0         0         0         0         0         0         0         0
@Sumon_Late_stream_L1D         0         0         0         0         0         0
@Sumon_Late_CS_L1D         0         0         0         0         0         0
@Sumon_Late_CPLX_L1D         0         0         0         0         0         0
@sumon_overall_L2C         0         0         0         0         0         0         0
@Sumon_Early_by_class_L2C         0         0         0         0
@Sumon_Late_by_class_L2C         0         0         0         0

@Sumon_Early_by_cycle_L2C         0         0         0         0         0         0         0         0         0         0         0         0
@Sumon_Late_by_cycle_L2C         0         0         0         0         0         0
@Sumon_Early_stream_L2C         0         0         0         0         0         0         0         0         0         0         0         0
@Sumon_Early_CS_L2C         0         0         0         0         0         0         0         0         0         0         0         0
@Sumon_Early_CPLX_L2C         0         0         0         0         0         0         0         0         0         0         0         0
@Sumon_Late_stream_L2C         0         0         0         0         0         0
@Sumon_Late_CS_L2C         0         0         0         0         0         0
@Sumon_Late_CPLX_L2C         0         0         0         0         0         0
DRAM PAGES: 1048576
Allocated PAGES: 5309
