
*** ChampSim Multicore Out-of-Order Simulator ***

Warmup Instructions: 50000000
Simulation Instructions: 50000000
Number of CPUs: 1
LLC sets: 2048
LLC ways: 16
Off-chip DRAM Size: 4096 MB Channels: 1 Width: 64-bit Data Rate: 6400 MT/s
CPU 0 runs ../../biswa/SPEC2017Traces/657.xz_s-2302B.champsimtrace.xz
.xz
CPU 0 Bimodal branch predictor
BTB has LRU replacement policy
ITLB has LRU replacement policy
DTLB has LRU replacement policy
STLB has LRU replacement policy
L1I has LRU replacement policy
L1D has LRU replacement policy
Initialize DRRIP state for L2C
LLC has LRU replacement policy
Heartbeat CPU 0 instructions: 10000003 cycles: 2791276 heartbeat IPC: 3.58259 cumulative IPC: 3.58259 (Simulation time: 0 hr 1 min 56 sec) 
Heartbeat CPU 0 instructions: 20000002 cycles: 5586575 heartbeat IPC: 3.57743 cumulative IPC: 3.58001 (Simulation time: 0 hr 3 min 54 sec) 
Heartbeat CPU 0 instructions: 30000000 cycles: 8416021 heartbeat IPC: 3.53426 cumulative IPC: 3.56463 (Simulation time: 0 hr 6 min 0 sec) 
Heartbeat CPU 0 instructions: 40000003 cycles: 11202646 heartbeat IPC: 3.58857 cumulative IPC: 3.57059 (Simulation time: 0 hr 8 min 9 sec) 
Heartbeat CPU 0 instructions: 50000000 cycles: 13994913 heartbeat IPC: 3.58132 cumulative IPC: 3.57273 (Simulation time: 0 hr 10 min 15 sec) 

Warmup complete CPU 0 instructions: 50000004 cycles: 13994914 (Simulation time: 0 hr 10 min 15 sec) 

Heartbeat CPU 0 instructions: 60000001 cycles: 33785587 heartbeat IPC: 0.505289 cumulative IPC: 0.505288 (Simulation time: 0 hr 13 min 17 sec) 
Heartbeat CPU 0 instructions: 70000000 cycles: 52878023 heartbeat IPC: 0.523768 cumulative IPC: 0.514362 (Simulation time: 0 hr 15 min 58 sec) 
Heartbeat CPU 0 instructions: 80000003 cycles: 72405976 heartbeat IPC: 0.512087 cumulative IPC: 0.513601 (Simulation time: 0 hr 18 min 31 sec) 
Heartbeat CPU 0 instructions: 90000002 cycles: 92192176 heartbeat IPC: 0.505403 cumulative IPC: 0.511527 (Simulation time: 0 hr 21 min 1 sec) 
Heartbeat CPU 0 instructions: 100000001 cycles: 111349859 heartbeat IPC: 0.521984 cumulative IPC: 0.513585 (Simulation time: 0 hr 23 min 37 sec) 
Finished CPU 0 instructions: 50000001 cycles: 97354946 cumulative IPC: 0.513585 (Simulation time: 0 hr 23 min 37 sec) 

ChampSim completed all CPUs

Region of Interest Statistics

CPU 0 cumulative IPC: 0.513585 instructions: 50000001 cycles: 97354946
ITLB TOTAL     ACCESS:    7242648  HIT:    7242648  MISS:          0  HIT %:        100  MISS %:          0   MPKI: 0
ITLB LOAD TRANSLATION ACCESS:    7242648  HIT:    7242648  MISS:          0  HIT %:        100  MISS %:          0   MPKI: 0
ITLB PREFETCH  REQUESTED:          0  ISSUED:          0  USEFUL:          0  USELESS:          0
ITLB USEFUL LOAD PREFETCHES:          0 PREFETCH ISSUED TO LOWER LEVEL:          0  ACCURACY: -nan
ITLB TIMELY PREFETCHES:          0 LATE PREFETCHES: 0 DROPPED PREFETCHES: 0
ITLB PREFETCHES SAME FILL-ORIGIN LEVEL: 0 DIFFERENT FILL-ORIGIN LEVEL: 0
ITLB AVERAGE MISS LATENCY: -nan cycles
ITLB RQ	ACCESS:    8573935	FORWARD:          0	MERGED:    1331288	TO_CACHE:    7242647

Revised Interactions: positive negative neutral
ITLB_interactions 0 0 0 -nan -nan -nan
ITLB_positive -nan -nan -nan
ITLB_negative -nan -nan -nan -nan -nan
ITLB_neutral -nan -nan -nan
DTLB TOTAL     ACCESS:   10102118  HIT:    9800163  MISS:     301955  HIT %:     97.011  MISS %:    2.98903   MPKI: 6.0391
DTLB LOAD TRANSLATION ACCESS:   10102118  HIT:    9800163  MISS:     301955  HIT %:     97.011  MISS %:    2.98903   MPKI: 6.0391
DTLB PREFETCH  REQUESTED:          0  ISSUED:          0  USEFUL:          0  USELESS:          0
DTLB USEFUL LOAD PREFETCHES:          0 PREFETCH ISSUED TO LOWER LEVEL:          0  ACCURACY: -nan
DTLB TIMELY PREFETCHES:          0 LATE PREFETCHES: 0 DROPPED PREFETCHES: 0
DTLB PREFETCHES SAME FILL-ORIGIN LEVEL: 0 DIFFERENT FILL-ORIGIN LEVEL: 0
DTLB AVERAGE MISS LATENCY: 13.3897 cycles
DTLB RQ	ACCESS:   12069365	FORWARD:          0	MERGED:    1965160	TO_CACHE:   10104205

Revised Interactions: positive negative neutral
DTLB_interactions 0 0 0 -nan -nan -nan
DTLB_positive -nan -nan -nan
DTLB_negative -nan -nan -nan -nan -nan
DTLB_neutral -nan -nan -nan
STLB TOTAL     ACCESS:     301955  HIT:     255337  MISS:      46618  HIT %:    84.5613  MISS %:    15.4387   MPKI: 0.93236
STLB LOAD TRANSLATION ACCESS:     301955  HIT:     255337  MISS:      46618  HIT %:    84.5613  MISS %:    15.4387   MPKI: 0.93236
STLB PREFETCH  REQUESTED:          0  ISSUED:          0  USEFUL:          0  USELESS:          0
STLB USEFUL LOAD PREFETCHES:          0 PREFETCH ISSUED TO LOWER LEVEL:          0  ACCURACY: -nan
STLB TIMELY PREFETCHES:          0 LATE PREFETCHES: 0 DROPPED PREFETCHES: 0
STLB PREFETCHES SAME FILL-ORIGIN LEVEL: 0 DIFFERENT FILL-ORIGIN LEVEL: 0
STLB AVERAGE MISS LATENCY: 28.3693 cycles
STLB RQ	ACCESS:     301955	FORWARD:          0	MERGED:          0	TO_CACHE:     301955

Revised Interactions: positive negative neutral
STLB_interactions 0 0 0 -nan -nan -nan
STLB_positive -nan -nan -nan
STLB_negative -nan -nan -nan -nan -nan
STLB_neutral -nan -nan -nan
STLB Hit, L1D data hit: 0
STLB Hit, L2C data hit: 0
STLB Hit, LLC data hit: 0
STLB Hit, LLC data miss: 0
STLB STLB hints to L2: 0
L1D TOTAL     ACCESS:   12025854  HIT:   11691668  MISS:     334186  HIT %:    97.2211  MISS %:     2.7789   MPKI: 6.68372
L1D LOAD      ACCESS:    8267783  HIT:    7971701  MISS:     296082  HIT %:    96.4188  MISS %:    3.58115   MPKI: 5.92164
L1D RFO       ACCESS:    3758071  HIT:    3719967  MISS:      38104  HIT %:    98.9861  MISS %:    1.01392   MPKI: 0.76208
L1D PREFETCH  REQUESTED:          0  ISSUED:          0  USEFUL:          0  USELESS:          0
L1D USEFUL LOAD PREFETCHES:          0 PREFETCH ISSUED TO LOWER LEVEL:          0  ACCURACY: -nan
L1D TIMELY PREFETCHES:          0 LATE PREFETCHES: 0 DROPPED PREFETCHES: 0
L1D PREFETCHES SAME FILL-ORIGIN LEVEL: 0 DIFFERENT FILL-ORIGIN LEVEL: 0
L1D AVERAGE MISS LATENCY: 73.3887 cycles
L1D RQ	ACCESS:   11316081	FORWARD:          0	MERGED:    2992813	TO_CACHE:    8299669
L1D WQ	ACCESS:    3834337	FORWARD:      23599	MERGED:      64641	TO_CACHE:    3769696

Revised Interactions: positive negative neutral
L1D_interactions 0 0 0 -nan -nan -nan
L1D_positive -nan -nan -nan
L1D_negative -nan -nan -nan -nan -nan
L1D_neutral -nan -nan -nan
L1D UNIQUE REGIONS ACCESSED: 0
L1D REGIONS CONFLICTS: 0
L1D Cross Page Prefetch Requests: 0
L1D Same Page Prefetch Requests: 0
L1D ROI Sum of L1D PQ occupancy: 0
L1D PREFETCHES PUSHED FROM L2C: 0
L1I TOTAL     ACCESS:    8573892  HIT:    8573793  MISS:         99  HIT %:    99.9988  MISS %: 0.00115467   MPKI: 0.00198
L1I LOAD      ACCESS:    8573892  HIT:    8573793  MISS:         99  HIT %:    99.9988  MISS %: 0.00115467   MPKI: 0.00198
L1I PREFETCH  REQUESTED:          0  ISSUED:          0  USEFUL:          0  USELESS:          0
L1I USEFUL LOAD PREFETCHES:          0 PREFETCH ISSUED TO LOWER LEVEL:          0  ACCURACY: -nan
L1I TIMELY PREFETCHES:          0 LATE PREFETCHES: 0 DROPPED PREFETCHES: 0
L1I PREFETCHES SAME FILL-ORIGIN LEVEL: 0 DIFFERENT FILL-ORIGIN LEVEL: 0
L1I AVERAGE MISS LATENCY: 95.2121 cycles
L1I RQ	ACCESS:   13066573	FORWARD:          0	MERGED:    4492638	TO_CACHE:    8573935

Revised Interactions: positive negative neutral
L1I_interactions 0 0 0 -nan -nan -nan
L1I_positive -nan -nan -nan
L1I_negative -nan -nan -nan -nan -nan
L1I_neutral -nan -nan -nan
BTB TOTAL     ACCESS:    6282462  HIT:    6229962  MISS:      52500  HIT %:    99.1643  MISS %:    0.83566   MPKI: 1.05
BTB BRANCH_DIRECT_JUMP	ACCESS:     665651  HIT:     665574  MISS:         77
BTB BRANCH_INDIRECT	ACCESS:      91529  HIT:      41384  MISS:      50145
BTB BRANCH_CONDITIONAL	ACCESS:    5411196  HIT:    5410957  MISS:        239
BTB BRANCH_DIRECT_CALL	ACCESS:      35840  HIT:      35821  MISS:         19
BTB BRANCH_INDIRECT_CALL	ACCESS:      21203  HIT:      21196  MISS:          7
BTB BRANCH_RETURN	ACCESS:      57043  HIT:      55030  MISS:       2013
BTB BRANCH_OTHER ACCESS:          0  HIT:          0  MISS:          0

L2C TOTAL     ACCESS:     597702  HIT:     401655  MISS:     196047  HIT %:    67.1999  MISS %:    32.8001   MPKI: 3.92094
L2C LOAD      ACCESS:     296181  HIT:     137408  MISS:     158773  HIT %:    46.3933  MISS %:    53.6067   MPKI: 3.17546
L2C DATA LOAD MPKI: 3.17348
L2C INSTRUCTION LOAD MPKI: 0.00198
L2C RFO       ACCESS:      38104  HIT:      24659  MISS:      13445  HIT %:     64.715  MISS %:     35.285   MPKI: 0.2689
L2C WRITEBACK ACCESS:     216772  HIT:     196600  MISS:      20172  HIT %:    90.6944  MISS %:    9.30563   MPKI: 0.40344
L2C LOAD TRANSLATION ACCESS:      46645  HIT:      42988  MISS:       3657  HIT %:    92.1599  MISS %:    7.84007   MPKI: 0.07314
L2C PREFETCH  REQUESTED:          0  ISSUED:          0  USEFUL:          0  USELESS:          0
L2C USEFUL LOAD PREFETCHES:          0 PREFETCH ISSUED TO LOWER LEVEL:          0  ACCURACY: -nan
L2C TIMELY PREFETCHES:          0 LATE PREFETCHES: 0 DROPPED PREFETCHES: 0
L2C PREFETCHES SAME FILL-ORIGIN LEVEL: 0 DIFFERENT FILL-ORIGIN LEVEL: 0
L2C AVERAGE MISS LATENCY: 100.92 cycles
L2C RQ	ACCESS:     380930	FORWARD:          0	MERGED:          0	TO_CACHE:     380930
L2C WQ	ACCESS:     216772	FORWARD:          0	MERGED:          0	TO_CACHE:     216772

Revised Interactions: positive negative neutral
L2C_interactions 0 0 0 -nan -nan -nan
L2C_positive -nan -nan -nan
L2C_negative -nan -nan -nan -nan -nan
L2C_neutral -nan -nan -nan
L2C Instructions Evicting Data 97
L2C Translations Evicting Data 3533
L2C Data Evicting Data 168801
L2C Instructions Evicting Instructions 0
L2C Translations Evicting Instructions 0
L2C Data Evicting Instructions 94
L2C Instructions Evicting Translations 2
L2C Translations Evicting Translations 124
L2C Data Evicting Translations 3224
L2C Dense regions hint from L2: 0
PSCL5 TOTAL     ACCESS:      46618  HIT:      46618  MISS:          0  HIT %:        100  MISS %:          0   MPKI: 0
PSCL5 LOAD TRANSLATION ACCESS:      46618  HIT:      46618  MISS:          0  HIT %:        100  MISS %:          0   MPKI: 0
PSCL5 PREFETCH  REQUESTED:          0  ISSUED:          0  USEFUL:          0  USELESS:          0
PSCL5 USEFUL LOAD PREFETCHES:          0 PREFETCH ISSUED TO LOWER LEVEL:          0  ACCURACY: -nan
PSCL5 TIMELY PREFETCHES:          0 LATE PREFETCHES: 0 DROPPED PREFETCHES: 0
PSCL5 PREFETCHES SAME FILL-ORIGIN LEVEL: 0 DIFFERENT FILL-ORIGIN LEVEL: 0

Revised Interactions: positive negative neutral
PSCL5_interactions 0 0 0 -nan -nan -nan
PSCL5_positive -nan -nan -nan
PSCL5_negative -nan -nan -nan -nan -nan
PSCL5_neutral -nan -nan -nan
PSCL4 TOTAL     ACCESS:      46618  HIT:      46618  MISS:          0  HIT %:        100  MISS %:          0   MPKI: 0
PSCL4 LOAD TRANSLATION ACCESS:      46618  HIT:      46618  MISS:          0  HIT %:        100  MISS %:          0   MPKI: 0
PSCL4 PREFETCH  REQUESTED:          0  ISSUED:          0  USEFUL:          0  USELESS:          0
PSCL4 USEFUL LOAD PREFETCHES:          0 PREFETCH ISSUED TO LOWER LEVEL:          0  ACCURACY: -nan
PSCL4 TIMELY PREFETCHES:          0 LATE PREFETCHES: 0 DROPPED PREFETCHES: 0
PSCL4 PREFETCHES SAME FILL-ORIGIN LEVEL: 0 DIFFERENT FILL-ORIGIN LEVEL: 0

Revised Interactions: positive negative neutral
PSCL4_interactions 0 0 0 -nan -nan -nan
PSCL4_positive -nan -nan -nan
PSCL4_negative -nan -nan -nan -nan -nan
PSCL4_neutral -nan -nan -nan
PSCL3 TOTAL     ACCESS:      46618  HIT:      46618  MISS:          0  HIT %:        100  MISS %:          0   MPKI: 0
PSCL3 LOAD TRANSLATION ACCESS:      46618  HIT:      46618  MISS:          0  HIT %:        100  MISS %:          0   MPKI: 0
PSCL3 PREFETCH  REQUESTED:          0  ISSUED:          0  USEFUL:          0  USELESS:          0
PSCL3 USEFUL LOAD PREFETCHES:          0 PREFETCH ISSUED TO LOWER LEVEL:          0  ACCURACY: -nan
PSCL3 TIMELY PREFETCHES:          0 LATE PREFETCHES: 0 DROPPED PREFETCHES: 0
PSCL3 PREFETCHES SAME FILL-ORIGIN LEVEL: 0 DIFFERENT FILL-ORIGIN LEVEL: 0

Revised Interactions: positive negative neutral
PSCL3_interactions 0 0 0 -nan -nan -nan
PSCL3_positive -nan -nan -nan
PSCL3_negative -nan -nan -nan -nan -nan
PSCL3_neutral -nan -nan -nan
PSCL2 TOTAL     ACCESS:      46618  HIT:      46591  MISS:         27  HIT %:    99.9421  MISS %:  0.0579175   MPKI: 0.00054
PSCL2 LOAD TRANSLATION ACCESS:      46618  HIT:      46591  MISS:         27  HIT %:    99.9421  MISS %:  0.0579175   MPKI: 0.00054
PSCL2 PREFETCH  REQUESTED:          0  ISSUED:          0  USEFUL:          0  USELESS:          0
PSCL2 USEFUL LOAD PREFETCHES:          0 PREFETCH ISSUED TO LOWER LEVEL:          0  ACCURACY: -nan
PSCL2 TIMELY PREFETCHES:          0 LATE PREFETCHES: 0 DROPPED PREFETCHES: 0
PSCL2 PREFETCHES SAME FILL-ORIGIN LEVEL: 0 DIFFERENT FILL-ORIGIN LEVEL: 0

Revised Interactions: positive negative neutral
PSCL2_interactions 0 0 0 -nan -nan -nan
PSCL2_positive -nan -nan -nan
PSCL2_negative -nan -nan -nan -nan -nan
PSCL2_neutral -nan -nan -nan
LLC TOTAL     ACCESS:     298545  HIT:     214259  MISS:      84286  HIT %:    71.7677  MISS %:    28.2323   MPKI: 1.68572
LLC LOAD      ACCESS:     158773  HIT:      84264  MISS:      74509  HIT %:     53.072  MISS %:     46.928   MPKI: 1.49018
LLC RFO       ACCESS:      13445  HIT:       5061  MISS:       8384  HIT %:    37.6422  MISS %:    62.3578   MPKI: 0.16768
LLC WRITEBACK ACCESS:     122670  HIT:     122236  MISS:        434  HIT %:    99.6462  MISS %:   0.353795   MPKI: 0.00868
LLC LOAD TRANSLATION ACCESS:       3657  HIT:       2698  MISS:        959  HIT %:    73.7763  MISS %:    26.2237   MPKI: 0.01918
LLC PREFETCH  REQUESTED:          0  ISSUED:          0  USEFUL:          0  USELESS:          0
LLC USEFUL LOAD PREFETCHES:          0 PREFETCH ISSUED TO LOWER LEVEL:          0  ACCURACY: -nan
LLC TIMELY PREFETCHES:          0 LATE PREFETCHES: 0 DROPPED PREFETCHES: 0
LLC PREFETCHES SAME FILL-ORIGIN LEVEL: 0 DIFFERENT FILL-ORIGIN LEVEL: 0
LLC AVERAGE MISS LATENCY: 172.043 cycles
LLC RQ	ACCESS:     175875	FORWARD:          0	MERGED:          0	TO_CACHE:     175875
LLC WQ	ACCESS:     122670	FORWARD:          0	MERGED:          0	TO_CACHE:     122670

Revised Interactions: positive negative neutral
LLC_interactions 0 0 0 -nan -nan -nan
LLC_positive -nan -nan -nan
LLC_negative -nan -nan -nan -nan -nan
LLC_neutral -nan -nan -nan
LLC Dense regions hint to LLC: 0

RAW hits: 442784
Loads Generated: 11758865
Loads sent to L1D: 11316081
Stores Generated: 3834339
Stores sent to L1D: 3834337
Major fault: 0 Minor fault: 7115
Allocated PAGES: 7115

DRAM Statistics
 CHANNEL 0
 RQ ROW_BUFFER_HIT:        913  ROW_BUFFER_MISS:      82939
 DBUS_CONGESTED:          1
 WQ ROW_BUFFER_HIT:      10480  ROW_BUFFER_MISS:      54037  FULL:          0

 AVG_CONGESTED_CYCLE: 8
 All warmup complete: 2
Channel 0 Bank busy for read cycles: 0
Channel 0 Bank busy for write cycles: 0
Channel 0
Rank 0
0banks busy for read cycles: 77978081
0banks busy for write cycles: 44169
1banks busy for read cycles: 9481806
1banks busy for write cycles: 6800719
2banks busy for read cycles: 1224473
2banks busy for write cycles: 1301600
3banks busy for read cycles: 138127
3banks busy for write cycles: 260716
4banks busy for read cycles: 25546
4banks busy for write cycles: 55681
5banks busy for read cycles: 5617
5banks busy for write cycles: 15197
6banks busy for read cycles: 1722
6banks busy for write cycles: 5312
7banks busy for read cycles: 2
7banks busy for write cycles: 2591
8banks busy for read cycles: 95
8banks busy for write cycles: 13493

CPU 0 Branch Prediction Accuracy: 87.826% MPKI: 16.1242 Average ROB Occupancy at Mispredict: 21.2669
Branch types
NOT_BRANCH: 43377258 86.7545%
BRANCH_DIRECT_JUMP: 665651 1.3313%
BRANCH_INDIRECT: 91529 0.183058%
BRANCH_CONDITIONAL: 5751130 11.5023%
BRANCH_DIRECT_CALL: 35840 0.07168%
BRANCH_INDIRECT_CALL: 21203 0.042406%
BRANCH_RETURN: 57043 0.114086%
BRANCH_OTHER: 0 0%

@sumon_overall_L1D         0         0         0         0         0         0         0
@Sumon_Early_by_class_L1D         0         0         0         0
@Sumon_Late_by_class_L1D         0         0         0         0

@Sumon_Early_by_cycle_L1D         0         0         0         0         0         0         0         0         0         0         0         0
@Sumon_Late_by_cycle_L1D         0         0         0         0         0         0
@Sumon_Early_stream_L1D         0         0         0         0         0         0         0         0         0         0         0         0
@Sumon_Early_CS_L1D         0         0         0         0         0         0         0         0         0         0         0         0
@Sumon_Early_CPLX_L1D         0         0         0         0         0         0         0         0         0         0         0         0
@Sumon_Late_stream_L1D         0         0         0         0         0         0
@Sumon_Late_CS_L1D         0         0         0         0         0         0
@Sumon_Late_CPLX_L1D         0         0         0         0         0         0
@sumon_overall_L2C         0         0         0         0         0         0         0
@Sumon_Early_by_class_L2C         0         0         0         0
@Sumon_Late_by_class_L2C         0         0         0         0

@Sumon_Early_by_cycle_L2C         0         0         0         0         0         0         0         0         0         0         0         0
@Sumon_Late_by_cycle_L2C         0         0         0         0         0         0
@Sumon_Early_stream_L2C         0         0         0         0         0         0         0         0         0         0         0         0
@Sumon_Early_CS_L2C         0         0         0         0         0         0         0         0         0         0         0         0
@Sumon_Early_CPLX_L2C         0         0         0         0         0         0         0         0         0         0         0         0
@Sumon_Late_stream_L2C         0         0         0         0         0         0
@Sumon_Late_CS_L2C         0         0         0         0         0         0
@Sumon_Late_CPLX_L2C         0         0         0         0         0         0
DRAM PAGES: 1048576
Allocated PAGES: 7115
