
*** ChampSim Multicore Out-of-Order Simulator ***

Warmup Instructions: 10000000
Simulation Instructions: 50000000
Number of CPUs: 1
LLC sets: 2048
LLC ways: 16
Off-chip DRAM Size: 4096 MB Channels: 1 Width: 64-bit Data Rate: 400 MT/s
CPU 0 runs traces/SPEC2017/620.omnetpp_s-874B.champsimtrace.xz
.xz
CPU 0 Bimodal branch predictor
BTB has LRU replacement policy
ITLB has LRU replacement policy
DTLB has LRU replacement policy
STLB has LRU replacement policy
L1I has LRU replacement policy
IP Table Entries: 256
L1D has LRU replacement policy
IP_Table L2 entries: 256
L2C has LRU replacement policy
LLC has LRU replacement policy
Heartbeat CPU 0 instructions: 10000001 cycles: 3908163 heartbeat IPC: 2.55875 cumulative IPC: 2.55875 (Simulation time: 0 hr 14 min 12 sec) 

Warmup complete CPU 0 instructions: 10000001 cycles: 3908163 (Simulation time: 0 hr 14 min 12 sec) 

Heartbeat CPU 0 instructions: 20000000 cycles: 51873951 heartbeat IPC: 0.208482 cumulative IPC: 0.208482 (Simulation time: 0 hr 28 min 24 sec) 
Heartbeat CPU 0 instructions: 30000002 cycles: 99808691 heartbeat IPC: 0.208617 cumulative IPC: 0.208549 (Simulation time: 0 hr 42 min 26 sec) 
Heartbeat CPU 0 instructions: 40000000 cycles: 148321367 heartbeat IPC: 0.206132 cumulative IPC: 0.207737 (Simulation time: 0 hr 56 min 27 sec) 
Heartbeat CPU 0 instructions: 50000001 cycles: 196800777 heartbeat IPC: 0.206273 cumulative IPC: 0.207369 (Simulation time: 1 hr 7 min 49 sec) 
Heartbeat CPU 0 instructions: 60000001 cycles: 245230626 heartbeat IPC: 0.206484 cumulative IPC: 0.207192 (Simulation time: 1 hr 15 min 30 sec) 
Finished CPU 0 instructions: 50000000 cycles: 241322463 cumulative IPC: 0.207192 (Simulation time: 1 hr 15 min 30 sec) 

ChampSim completed all CPUs

Region of Interest Statistics

CPU 0 cumulative IPC: 0.207192 instructions: 50000000 cycles: 241322463
ITLB TOTAL     ACCESS:    8266079  HIT:    8186452  MISS:      79627  HIT %:    99.0367  MISS %:   0.963298   MPKI: 1.59254
ITLB LOAD TRANSLATION ACCESS:    8266079  HIT:    8186452  MISS:      79627  HIT %:    99.0367  MISS %:   0.963298   MPKI: 1.59254
ITLB PREFETCH  REQUESTED:          0  ISSUED:          0  USEFUL:          0  USELESS:          0
ITLB USEFUL LOAD PREFETCHES:          0 PREFETCH ISSUED TO LOWER LEVEL:          0  ACCURACY: -nan
ITLB TIMELY PREFETCHES:          0 LATE PREFETCHES: 0 DROPPED PREFETCHES: 0
ITLB PREFETCHES SAME FILL-ORIGIN LEVEL: 0 DIFFERENT FILL-ORIGIN LEVEL: 0
ITLB AVERAGE MISS LATENCY: 10.2755 cycles
ITLB RQ	ACCESS:    9321305	FORWARD:          0	MERGED:    1030863	TO_CACHE:    8290442

DTLB TOTAL     ACCESS:   19530123  HIT:   18570697  MISS:     959426  HIT %:    95.0875  MISS %:    4.91254   MPKI: 19.1885
DTLB LOAD TRANSLATION ACCESS:   19530123  HIT:   18570697  MISS:     959426  HIT %:    95.0875  MISS %:    4.91254   MPKI: 19.1885
DTLB PREFETCH  REQUESTED:          0  ISSUED:          0  USEFUL:          0  USELESS:          0
DTLB USEFUL LOAD PREFETCHES:          0 PREFETCH ISSUED TO LOWER LEVEL:          0  ACCURACY: -nan
DTLB TIMELY PREFETCHES:          0 LATE PREFETCHES: 0 DROPPED PREFETCHES: 0
DTLB PREFETCHES SAME FILL-ORIGIN LEVEL: 0 DIFFERENT FILL-ORIGIN LEVEL: 0
DTLB AVERAGE MISS LATENCY: 37.4781 cycles
DTLB RQ	ACCESS:   22018336	FORWARD:          0	MERGED:    2472960	TO_CACHE:   19545376

STLB TOTAL     ACCESS:    2861846  HIT:    2646095  MISS:     215751  HIT %:    92.4611  MISS %:    7.53888   MPKI: 4.31502
STLB LOAD TRANSLATION ACCESS:    1039053  HIT:     823302  MISS:     215751  HIT %:    79.2358  MISS %:    20.7642   MPKI: 4.31502
STLB TRANSLATION FROM L1D PREFETCHER ACCESS:    1822793  HIT:    1822793  MISS:          0  HIT %:        100  MISS %:          0   MPKI: 0
STLB PREFETCH  REQUESTED:          0  ISSUED:          0  USEFUL:          0  USELESS:          0
STLB USEFUL LOAD PREFETCHES:          0 PREFETCH ISSUED TO LOWER LEVEL:          0  ACCURACY: -nan
STLB TIMELY PREFETCHES:          0 LATE PREFETCHES: 0 DROPPED PREFETCHES: 0
STLB PREFETCHES SAME FILL-ORIGIN LEVEL: 0 DIFFERENT FILL-ORIGIN LEVEL: 0
STLB AVERAGE MISS LATENCY: 126.857 cycles
STLB RQ	ACCESS:    3289177	FORWARD:          0	MERGED:     427330	TO_CACHE:    2861847

STLB Hit, L1D data hit: 0
STLB Hit, L2C data hit: 0
STLB Hit, LLC data hit: 0
STLB Hit, LLC data miss: 0
STLB STLB hints to L2: 0
L1D TOTAL     ACCESS:   23916087  HIT:   22257782  MISS:    1658305  HIT %:    93.0662  MISS %:    6.93385   MPKI: 33.1661
L1D LOAD      ACCESS:   12718862  HIT:   11956186  MISS:     762676  HIT %:    94.0036  MISS %:    5.99642   MPKI: 15.2535
L1D RFO       ACCESS:    9031834  HIT:    8925060  MISS:     106774  HIT %:    98.8178  MISS %:     1.1822   MPKI: 2.13548
L1D PREFETCH  ACCESS:    2165391  HIT:    1376536  MISS:     788855  HIT %:    63.5699  MISS %:    36.4301   MPKI: 15.7771
L1D PREFETCH  REQUESTED:    4500650  ISSUED:    4500646  USEFUL:     106990  USELESS:     681812
L1D USEFUL LOAD PREFETCHES:     106990 PREFETCH ISSUED TO LOWER LEVEL:     809293  ACCURACY: 13.2202
L1D TIMELY PREFETCHES:     106990 LATE PREFETCHES: 17980 DROPPED PREFETCHES: 0
L1D PREFETCHES SAME FILL-ORIGIN LEVEL: 809293 DIFFERENT FILL-ORIGIN LEVEL: 0
L1D AVERAGE MISS LATENCY: 1.56994e+06 cycles
L1D RQ	ACCESS:   16236440	FORWARD:          0	MERGED:    2801763	TO_CACHE:   12814190
L1D WQ	ACCESS:    9281775	FORWARD:     620887	MERGED:      77629	TO_CACHE:    9204146
L1D PQ	ACCESS:    2250523	FORWARD:          0	MERGED:          0	TO_CACHE:    2250123

L1D UNIQUE REGIONS ACCESSED: 0
L1D REGIONS CONFLICTS: 0
L1D Cross Page Prefetch Requests: 0
L1D Same Page Prefetch Requests: 2673899
L1D ROI Sum of L1D PQ occupancy: 29229321
L1D PREFETCHES PUSHED FROM L2C: 0
L1I TOTAL     ACCESS:    9314833  HIT:    9296259  MISS:      18574  HIT %:    99.8006  MISS %:   0.199402   MPKI: 0.37148
L1I LOAD      ACCESS:    9314833  HIT:    9296259  MISS:      18574  HIT %:    99.8006  MISS %:   0.199402   MPKI: 0.37148
L1I PREFETCH  REQUESTED:          0  ISSUED:          0  USEFUL:          0  USELESS:          0
L1I USEFUL LOAD PREFETCHES:          0 PREFETCH ISSUED TO LOWER LEVEL:          0  ACCURACY: -nan
L1I TIMELY PREFETCHES:          0 LATE PREFETCHES: 0 DROPPED PREFETCHES: 0
L1I PREFETCHES SAME FILL-ORIGIN LEVEL: 0 DIFFERENT FILL-ORIGIN LEVEL: 0
L1I AVERAGE MISS LATENCY: 33.8974 cycles
L1I RQ	ACCESS:   14346918	FORWARD:          0	MERGED:    5025613	TO_CACHE:    9321305

BTB TOTAL     ACCESS:    7896296  HIT:    7421687  MISS:     474609  HIT %:    93.9895  MISS %:    6.01053   MPKI: 9.49218
BTB BRANCH_DIRECT_JUMP	ACCESS:     569513  HIT:     569409  MISS:        104
BTB BRANCH_INDIRECT	ACCESS:     168336  HIT:     146852  MISS:      21484
BTB BRANCH_CONDITIONAL	ACCESS:    4189086  HIT:    4188659  MISS:        427
BTB BRANCH_DIRECT_CALL	ACCESS:     886019  HIT:     885794  MISS:        225
BTB BRANCH_INDIRECT_CALL	ACCESS:     598662  HIT:     596661  MISS:       2001
BTB BRANCH_RETURN	ACCESS:    1484680  HIT:    1034312  MISS:     450368
BTB BRANCH_OTHER ACCESS:          0  HIT:          0  MISS:          0

L2C TOTAL     ACCESS:    2538217  HIT:    1198123  MISS:    1340094  HIT %:    47.2033  MISS %:    52.7967   MPKI: 26.8019
L2C LOAD      ACCESS:     763246  HIT:     260751  MISS:     502495  HIT %:    34.1634  MISS %:    65.8366   MPKI: 10.0499
L2C DATA LOAD MPKI: 9.93822
L2C INSTRUCTION LOAD MPKI: 0.11168
L2C RFO       ACCESS:     104314  HIT:      24015  MISS:      80299  HIT %:    23.0218  MISS %:    76.9782   MPKI: 1.60598
L2C PREFETCH  ACCESS:     887294  HIT:     269618  MISS:     617676  HIT %:    30.3865  MISS %:    69.6135   MPKI: 12.3535
L2C DATA PREFETCH MPKI: 12.3535
L2C INSTRUCTION PREFETCH MPKI: 0
L2C WRITEBACK ACCESS:     477757  HIT:     475950  MISS:       1807  HIT %:    99.6218  MISS %:   0.378226   MPKI: 0.03614
L2C LOAD TRANSLATION ACCESS:     305606  HIT:     167789  MISS:     137817  HIT %:    54.9037  MISS %:    45.0963   MPKI: 2.75634
L2C PREFETCH  REQUESTED:      85526  ISSUED:      85526  USEFUL:      41971  USELESS:     575645
L2C USEFUL LOAD PREFETCHES:      41971 PREFETCH ISSUED TO LOWER LEVEL:     619040  ACCURACY: 6.78001
L2C TIMELY PREFETCHES:      41971 LATE PREFETCHES: 1364 DROPPED PREFETCHES: 0
L2C PREFETCHES SAME FILL-ORIGIN LEVEL: 47611 DIFFERENT FILL-ORIGIN LEVEL: 0
L2C AVERAGE MISS LATENCY: 186.26 cycles
L2C RQ	ACCESS:    1173191	FORWARD:          0	MERGED:          0	TO_CACHE:    1173166
L2C WQ	ACCESS:     477757	FORWARD:         38	MERGED:          0	TO_CACHE:     477757
L2C PQ	ACCESS:     894819	FORWARD:          0	MERGED:       1705	TO_CACHE:     893101

L2C Instructions Evicting Data 4751
L2C Translations Evicting Data 123044
L2C Data Evicting Data 1067056
L2C Instructions Evicting Instructions 285
L2C Translations Evicting Instructions 509
L2C Data Evicting Instructions 4799
L2C Instructions Evicting Translations 548
L2C Translations Evicting Translations 14264
L2C Data Evicting Translations 123031
L2C Dense regions hint from L2: 0
PSCL5 TOTAL     ACCESS:     215751  HIT:     215751  MISS:          0  HIT %:        100  MISS %:          0   MPKI: 0
PSCL5 LOAD TRANSLATION ACCESS:     215751  HIT:     215751  MISS:          0  HIT %:        100  MISS %:          0   MPKI: 0
PSCL5 PREFETCH  REQUESTED:          0  ISSUED:          0  USEFUL:          0  USELESS:          0
PSCL5 USEFUL LOAD PREFETCHES:          0 PREFETCH ISSUED TO LOWER LEVEL:          0  ACCURACY: -nan
PSCL5 TIMELY PREFETCHES:          0 LATE PREFETCHES: 0 DROPPED PREFETCHES: 0
PSCL5 PREFETCHES SAME FILL-ORIGIN LEVEL: 0 DIFFERENT FILL-ORIGIN LEVEL: 0

PSCL4 TOTAL     ACCESS:     215751  HIT:     215751  MISS:          0  HIT %:        100  MISS %:          0   MPKI: 0
PSCL4 LOAD TRANSLATION ACCESS:     215751  HIT:     215751  MISS:          0  HIT %:        100  MISS %:          0   MPKI: 0
PSCL4 PREFETCH  REQUESTED:          0  ISSUED:          0  USEFUL:          0  USELESS:          0
PSCL4 USEFUL LOAD PREFETCHES:          0 PREFETCH ISSUED TO LOWER LEVEL:          0  ACCURACY: -nan
PSCL4 TIMELY PREFETCHES:          0 LATE PREFETCHES: 0 DROPPED PREFETCHES: 0
PSCL4 PREFETCHES SAME FILL-ORIGIN LEVEL: 0 DIFFERENT FILL-ORIGIN LEVEL: 0

PSCL3 TOTAL     ACCESS:     215751  HIT:     215751  MISS:          0  HIT %:        100  MISS %:          0   MPKI: 0
PSCL3 LOAD TRANSLATION ACCESS:     215751  HIT:     215751  MISS:          0  HIT %:        100  MISS %:          0   MPKI: 0
PSCL3 PREFETCH  REQUESTED:          0  ISSUED:          0  USEFUL:          0  USELESS:          0
PSCL3 USEFUL LOAD PREFETCHES:          0 PREFETCH ISSUED TO LOWER LEVEL:          0  ACCURACY: -nan
PSCL3 TIMELY PREFETCHES:          0 LATE PREFETCHES: 0 DROPPED PREFETCHES: 0
PSCL3 PREFETCHES SAME FILL-ORIGIN LEVEL: 0 DIFFERENT FILL-ORIGIN LEVEL: 0

PSCL2 TOTAL     ACCESS:     215751  HIT:     125896  MISS:      89855  HIT %:    58.3525  MISS %:    41.6475   MPKI: 1.7971
PSCL2 LOAD TRANSLATION ACCESS:     215751  HIT:     125896  MISS:      89855  HIT %:    58.3525  MISS %:    41.6475   MPKI: 1.7971
PSCL2 PREFETCH  REQUESTED:          0  ISSUED:          0  USEFUL:          0  USELESS:          0
PSCL2 USEFUL LOAD PREFETCHES:          0 PREFETCH ISSUED TO LOWER LEVEL:          0  ACCURACY: -nan
PSCL2 TIMELY PREFETCHES:          0 LATE PREFETCHES: 0 DROPPED PREFETCHES: 0
PSCL2 PREFETCHES SAME FILL-ORIGIN LEVEL: 0 DIFFERENT FILL-ORIGIN LEVEL: 0

LLC TOTAL     ACCESS:    1695360  HIT:     738365  MISS:     956995  HIT %:    43.5521  MISS %:    56.4479   MPKI: 19.1399
LLC LOAD      ACCESS:     501228  HIT:     137530  MISS:     363698  HIT %:    27.4386  MISS %:    72.5614   MPKI: 7.27396
LLC RFO       ACCESS:      80200  HIT:      31198  MISS:      49002  HIT %:    38.9002  MISS %:    61.0998   MPKI: 0.98004
LLC PREFETCH  ACCESS:     619038  HIT:     136024  MISS:     483014  HIT %:    21.9734  MISS %:    78.0266   MPKI: 9.66028
LLC WRITEBACK ACCESS:     357077  HIT:     354622  MISS:       2455  HIT %:    99.3125  MISS %:   0.687527   MPKI: 0.0491
LLC LOAD TRANSLATION ACCESS:     137817  HIT:      78991  MISS:      58826  HIT %:    57.3159  MISS %:    42.6841   MPKI: 1.17652
LLC PREFETCH  REQUESTED:          0  ISSUED:          0  USEFUL:      26206  USELESS:     456778
LLC USEFUL LOAD PREFETCHES:      26206 PREFETCH ISSUED TO LOWER LEVEL:     483014  ACCURACY: 5.42552
LLC TIMELY PREFETCHES:      26206 LATE PREFETCHES: 0 DROPPED PREFETCHES: 0
LLC PREFETCHES SAME FILL-ORIGIN LEVEL: 0 DIFFERENT FILL-ORIGIN LEVEL: 0
LLC AVERAGE MISS LATENCY: 218.641 cycles
LLC RQ	ACCESS:     719247	FORWARD:          0	MERGED:          0	TO_CACHE:     719245
LLC WQ	ACCESS:     357077	FORWARD:          4	MERGED:          0	TO_CACHE:     357077
LLC PQ	ACCESS:     619040	FORWARD:          0	MERGED:          0	TO_CACHE:     619038

LLC Dense regions hint to LLC: 0

RAW hits: 652620
Loads Generated: 16889060
Loads sent to L1D: 16236440
Stores Generated: 9281774
Stores sent to L1D: 9281775
Major fault: 0 Minor fault: 45883
Allocated PAGES: 45883

stream: 
stream:times selected: 3999739
stream:pref_filled: 614139
stream:pref_useful: 108016
stream:pref_late: 19842
stream:misses: 152508
stream:misses_by_poll: 0

CS: 
CS:times selected: 32450
CS:pref_filled: 12423
CS:pref_useful: 1989
CS:pref_late: 3
CS:misses: 853
CS:misses_by_poll: 3

CPLX: 
CPLX:times selected: 3969992
CPLX:pref_filled: 301896
CPLX:pref_useful: 14030
CPLX:pref_late: 776
CPLX:misses: 492008
CPLX:misses_by_poll: 653

NL_L1: 
NL:times selected: 17525
NL:pref_filled: 6091
NL:pref_useful: 1142
NL:pref_late: 221
NL:misses: 5424
NL:misses_by_poll: 0

total selections: 8019706
total_filled: 788855
total_useful: 106990
total_late: 21324
total_polluted: 656
total_misses_after_warmup: 858002
conflicts: 1772303
Degree Incremented Times: 0
Degree Decremented Times: 225343

L1 IP Table Write Accesses: 9535355
L1 IP Table Read Accesses: 7763052
L1 RST Write Accesses: 3425613
L1 RST Read Accesses: 6851226
L1 CSPT Write Accesses: 3425613
L1 CSPT Read Accesses: 6825299
L1 RR Filter Tag Write Accesses: 2250527
L1 RR Filter Tag Read Accesses: 127607347
L1 IP Table Tag Write Accesses: 12814188
L1 IP Table Tag Read Accesses: 12814188
L1 RST Tag Write Accesses: 0
L1 RST Tag Read Accesses: 29517288
L1 RR Filter Write Accesses: 0
L1 RR Filter Read Accesses: 4402236
test: 1931605
L2 IP Table Read Accesses: 3012152
L2 IP Table Write Accesses: 2371468
L2 IP Table Tag Read Accesses: 1549334
L2 IP Table Tag Write Accesses: 1549334

DRAM Statistics
 CHANNEL 0
 RQ ROW_BUFFER_HIT:      98537  ROW_BUFFER_MISS:     855993
 DBUS_CONGESTED:     742610
 WQ ROW_BUFFER_HIT:      78420  ROW_BUFFER_MISS:     176648  FULL:          0

 AVG_CONGESTED_CYCLE: 64
 All warmup complete: 2
Channel 0 Bank busy for read cycles: 0
Channel 0 Bank busy for write cycles: 0
Channel 0
Rank 0
0banks busy for read cycles: 96852714
0banks busy for write cycles: 89823
1banks busy for read cycles: 54409240
1banks busy for write cycles: 15358915
2banks busy for read cycles: 31014861
2banks busy for write cycles: 8596533
3banks busy for read cycles: 11885846
3banks busy for write cycles: 5611813
4banks busy for read cycles: 4567311
4banks busy for write cycles: 3894281
5banks busy for read cycles: 1444276
5banks busy for write cycles: 2755504
6banks busy for read cycles: 364632
6banks busy for write cycles: 1935582
7banks busy for read cycles: 74840
7banks busy for write cycles: 1456215
8banks busy for read cycles: 11081
8banks busy for write cycles: 998997

CPU 0 Branch Prediction Accuracy: 95.851% MPKI: 8.63412 Average ROB Occupancy at Mispredict: 29.5756
Branch types
NOT_BRANCH: 39594523 79.189%
BRANCH_DIRECT_JUMP: 569513 1.13903%
BRANCH_INDIRECT: 168336 0.336672%
BRANCH_CONDITIONAL: 6697939 13.3959%
BRANCH_DIRECT_CALL: 886019 1.77204%
BRANCH_INDIRECT_CALL: 598662 1.19732%
BRANCH_RETURN: 1484680 2.96936%
BRANCH_OTHER: 0 0%

@sumon_overall_L1D    106990     17980    681812    788855   4500646   4500650
@Sumon_Early_by_class_L1D     90691      1592     11981       161
@Sumon_Late_by_class_L1D     16715         2       700       161

@Sumon_Early_by_cycle_L1D     15896      7510      5329      4410      1882     15201     15434      9239      5365     11902      8327      6495
@Sumon_Late_by_cycle_L1D      7667      4973      5269        62         7         2         0         0         0         0         0         0
@Sumon_Early_stream_L1D     15207      6822      4555      3452      1546     13237     12775      7659      4169      9436      6467      5366
@Sumon_Early_CS_L1D         4        19        54        20         8         2       681       230       167       329        28        50
@Sumon_Early_CPLX_L1D       462       407       648       433       301      1684      1006      1221       987      2031      1768      1033
@Sumon_Late_stream_L1D      6949      4639      5056        62         7         2         0         0         0         0         0         0
@Sumon_Late_CS_L1D         2         0         0         0         0         0         0         0         0         0         0         0
@Sumon_Late_CPLX_L1D       289       274       137         0         0         0         0         0         0         0         0         0
@sumon_overall_L2C     41971      1364    575645    617676     85526     85526
@Sumon_Early_by_class_L2C     23730        94      7334         0
@Sumon_Late_by_class_L2C         0         0         0         0

@Sumon_Early_by_cycle_L2C       369       980       379       557       428      2494      2558       526      1172       315      1674     30519
@Sumon_Late_by_cycle_L2C       951       144       262         7         0         0         0         0         0         0         0         0
@Sumon_Early_stream_L2C         0         0         0         0         0         0         0         0         0        66      1112     22552
@Sumon_Early_CS_L2C         0         0         0         0         0         0         0         0         0         0        11        83
@Sumon_Early_CPLX_L2C         0         0         0         0         0         0         0         0         0        12       322      7000
@Sumon_Late_stream_L2C         0         0         0         0         0         0         0         0         0         0         0         0
@Sumon_Late_CS_L2C         0         0         0         0         0         0         0         0         0         0         0         0
@Sumon_Late_CPLX_L2C         0         0         0         0         0         0         0         0         0         0         0         0
DRAM PAGES: 1048576
Allocated PAGES: 45883
