
*** ChampSim Multicore Out-of-Order Simulator ***

Warmup Instructions: 10000000
Simulation Instructions: 50000000
Number of CPUs: 1
LLC sets: 2048
LLC ways: 16
Off-chip DRAM Size: 4096 MB Channels: 1 Width: 64-bit Data Rate: 400 MT/s
CPU 0 runs traces/SPEC2017/623.xalancbmk_s-10B.champsimtrace.xz
.xz
CPU 0 Bimodal branch predictor
BTB has LRU replacement policy
ITLB has LRU replacement policy
DTLB has LRU replacement policy
STLB has LRU replacement policy
L1I has LRU replacement policy
IP Table Entries: 256
L1D has LRU replacement policy
IP_Table L2 entries: 256
L2C has LRU replacement policy
LLC has LRU replacement policy
Heartbeat CPU 0 instructions: 10000003 cycles: 3120609 heartbeat IPC: 3.2045 cumulative IPC: 3.2045 (Simulation time: 0 hr 11 min 40 sec) 

Warmup complete CPU 0 instructions: 10000003 cycles: 3120609 (Simulation time: 0 hr 11 min 40 sec) 

Heartbeat CPU 0 instructions: 20000000 cycles: 56060326 heartbeat IPC: 0.188894 cumulative IPC: 0.188894 (Simulation time: 0 hr 25 min 15 sec) 
Heartbeat CPU 0 instructions: 30000001 cycles: 108255993 heartbeat IPC: 0.191587 cumulative IPC: 0.190231 (Simulation time: 0 hr 38 min 47 sec) 
Heartbeat CPU 0 instructions: 40000000 cycles: 155961282 heartbeat IPC: 0.20962 cumulative IPC: 0.196283 (Simulation time: 0 hr 51 min 47 sec) 
Heartbeat CPU 0 instructions: 50000000 cycles: 213230625 heartbeat IPC: 0.174613 cumulative IPC: 0.190376 (Simulation time: 1 hr 4 min 18 sec) 
Heartbeat CPU 0 instructions: 60000001 cycles: 265807972 heartbeat IPC: 0.190196 cumulative IPC: 0.19034 (Simulation time: 1 hr 12 min 41 sec) 
Finished CPU 0 instructions: 50000002 cycles: 262687364 cumulative IPC: 0.19034 (Simulation time: 1 hr 12 min 41 sec) 

ChampSim completed all CPUs

Region of Interest Statistics

CPU 0 cumulative IPC: 0.19034 instructions: 50000002 cycles: 262687364
ITLB TOTAL     ACCESS:    7748928  HIT:    7719020  MISS:      29908  HIT %:     99.614  MISS %:   0.385963   MPKI: 0.59816
ITLB LOAD TRANSLATION ACCESS:    7748928  HIT:    7719020  MISS:      29908  HIT %:     99.614  MISS %:   0.385963   MPKI: 0.59816
ITLB PREFETCH  REQUESTED:          0  ISSUED:          0  USEFUL:          0  USELESS:          0
ITLB USEFUL LOAD PREFETCHES:          0 PREFETCH ISSUED TO LOWER LEVEL:          0  ACCURACY: -nan
ITLB TIMELY PREFETCHES:          0 LATE PREFETCHES: 0 DROPPED PREFETCHES: 0
ITLB PREFETCHES SAME FILL-ORIGIN LEVEL: 0 DIFFERENT FILL-ORIGIN LEVEL: 0
ITLB AVERAGE MISS LATENCY: 21.0271 cycles
ITLB RQ	ACCESS:    8915790	FORWARD:          0	MERGED:    1159897	TO_CACHE:    7755893

DTLB TOTAL     ACCESS:   10286487  HIT:    9945404  MISS:     341083  HIT %:    96.6842  MISS %:    3.31584   MPKI: 6.82166
DTLB LOAD TRANSLATION ACCESS:   10286487  HIT:    9945404  MISS:     341083  HIT %:    96.6842  MISS %:    3.31584   MPKI: 6.82166
DTLB PREFETCH  REQUESTED:          0  ISSUED:          0  USEFUL:          0  USELESS:          0
DTLB USEFUL LOAD PREFETCHES:          0 PREFETCH ISSUED TO LOWER LEVEL:          0  ACCURACY: -nan
DTLB TIMELY PREFETCHES:          0 LATE PREFETCHES: 0 DROPPED PREFETCHES: 0
DTLB PREFETCHES SAME FILL-ORIGIN LEVEL: 0 DIFFERENT FILL-ORIGIN LEVEL: 0
DTLB AVERAGE MISS LATENCY: 85.0208 cycles
DTLB RQ	ACCESS:   11370215	FORWARD:          0	MERGED:    1022711	TO_CACHE:   10347504

STLB TOTAL     ACCESS:    1573749  HIT:    1310240  MISS:     263509  HIT %:     83.256  MISS %:     16.744   MPKI: 5.27018
STLB LOAD TRANSLATION ACCESS:     370991  HIT:     107578  MISS:     263413  HIT %:    28.9975  MISS %:    71.0025   MPKI: 5.26826
STLB TRANSLATION FROM L1D PREFETCHER ACCESS:    1202758  HIT:    1202662  MISS:         96  HIT %:     99.992  MISS %: 0.00798166   MPKI: 0.00192
STLB PREFETCH  REQUESTED:          0  ISSUED:          0  USEFUL:         96  USELESS:          0
STLB USEFUL LOAD PREFETCHES:         96 PREFETCH ISSUED TO LOWER LEVEL:          0  ACCURACY: inf
STLB TIMELY PREFETCHES:         96 LATE PREFETCHES: 0 DROPPED PREFETCHES: 0
STLB PREFETCHES SAME FILL-ORIGIN LEVEL: 0 DIFFERENT FILL-ORIGIN LEVEL: 0
STLB AVERAGE MISS LATENCY: 99.7977 cycles
STLB RQ	ACCESS:    2195020	FORWARD:          0	MERGED:     621169	TO_CACHE:    1573851

STLB Hit, L1D data hit: 0
STLB Hit, L2C data hit: 0
STLB Hit, LLC data hit: 0
STLB Hit, LLC data miss: 0
STLB STLB hints to L2: 0
L1D TOTAL     ACCESS:   12737443  HIT:   10444713  MISS:    2292730  HIT %:    82.0001  MISS %:    17.9999   MPKI: 45.8546
L1D LOAD      ACCESS:    9038194  HIT:    7831403  MISS:    1206791  HIT %:    86.6479  MISS %:    13.3521   MPKI: 24.1358
L1D RFO       ACCESS:    2231052  HIT:    2211320  MISS:      19732  HIT %:    99.1156  MISS %:   0.884426   MPKI: 0.39464
L1D PREFETCH  ACCESS:    1468197  HIT:     401990  MISS:    1066207  HIT %:    27.3798  MISS %:    72.6202   MPKI: 21.3241
L1D PREFETCH  REQUESTED:    3648078  ISSUED:    3648062  USEFUL:     178068  USELESS:     887997
L1D USEFUL LOAD PREFETCHES:     178068 PREFETCH ISSUED TO LOWER LEVEL:    1154999  ACCURACY: 15.4172
L1D TIMELY PREFETCHES:     178068 LATE PREFETCHES: 88296 DROPPED PREFETCHES: 0
L1D PREFETCHES SAME FILL-ORIGIN LEVEL: 1154999 DIFFERENT FILL-ORIGIN LEVEL: 0
L1D AVERAGE MISS LATENCY: 5.22866e+06 cycles
L1D RQ	ACCESS:   14736694	FORWARD:          0	MERGED:    5588929	TO_CACHE:    9091294
L1D WQ	ACCESS:    2303184	FORWARD:      56475	MERGED:      24263	TO_CACHE:    2278921
L1D PQ	ACCESS:    1824033	FORWARD:          0	MERGED:          0	TO_CACHE:    1824029

L1D UNIQUE REGIONS ACCESSED: 0
L1D REGIONS CONFLICTS: 0
L1D Cross Page Prefetch Requests: 0
L1D Same Page Prefetch Requests: 2166361
L1D ROI Sum of L1D PQ occupancy: 23940400
L1D PREFETCHES PUSHED FROM L2C: 0
L1I TOTAL     ACCESS:    8865245  HIT:    8693898  MISS:     171347  HIT %:    98.0672  MISS %:    1.93279   MPKI: 3.42694
L1I LOAD      ACCESS:    8865245  HIT:    8693898  MISS:     171347  HIT %:    98.0672  MISS %:    1.93279   MPKI: 3.42694
L1I PREFETCH  REQUESTED:          0  ISSUED:          0  USEFUL:          0  USELESS:          0
L1I USEFUL LOAD PREFETCHES:          0 PREFETCH ISSUED TO LOWER LEVEL:          0  ACCURACY: -nan
L1I TIMELY PREFETCHES:          0 LATE PREFETCHES: 0 DROPPED PREFETCHES: 0
L1I PREFETCHES SAME FILL-ORIGIN LEVEL: 0 DIFFERENT FILL-ORIGIN LEVEL: 0
L1I AVERAGE MISS LATENCY: 47.0793 cycles
L1I RQ	ACCESS:   15118838	FORWARD:          0	MERGED:    6203048	TO_CACHE:    8915790

BTB TOTAL     ACCESS:    8242341  HIT:    8167689  MISS:      74652  HIT %:    99.0943  MISS %:   0.905714   MPKI: 1.49304
BTB BRANCH_DIRECT_JUMP	ACCESS:     118676  HIT:     118023  MISS:        653
BTB BRANCH_INDIRECT	ACCESS:      21952  HIT:       8655  MISS:      13297
BTB BRANCH_CONDITIONAL	ACCESS:    6931277  HIT:    6928565  MISS:       2712
BTB BRANCH_DIRECT_CALL	ACCESS:     319784  HIT:     318786  MISS:        998
BTB BRANCH_INDIRECT_CALL	ACCESS:     265434  HIT:     262598  MISS:       2836
BTB BRANCH_RETURN	ACCESS:     585218  HIT:     531062  MISS:      54156
BTB BRANCH_OTHER ACCESS:          0  HIT:          0  MISS:          0

L2C TOTAL     ACCESS:    2807892  HIT:     583231  MISS:    2224661  HIT %:    20.7711  MISS %:    79.2289   MPKI: 44.4932
L2C LOAD      ACCESS:    1289841  HIT:     231329  MISS:    1058512  HIT %:    17.9347  MISS %:    82.0653   MPKI: 21.1702
L2C DATA LOAD MPKI: 20.359
L2C INSTRUCTION LOAD MPKI: 0.81126
L2C RFO       ACCESS:      19230  HIT:       8081  MISS:      11149  HIT %:    42.0229  MISS %:    57.9771   MPKI: 0.22298
L2C PREFETCH  ACCESS:    1192571  HIT:     101203  MISS:    1091368  HIT %:    8.48612  MISS %:    91.5139   MPKI: 21.8274
L2C DATA PREFETCH MPKI: 21.8274
L2C INSTRUCTION PREFETCH MPKI: 0
L2C WRITEBACK ACCESS:      41577  HIT:      41383  MISS:        194  HIT %:    99.5334  MISS %:   0.466604   MPKI: 0.00388
L2C LOAD TRANSLATION ACCESS:     264553  HIT:     201187  MISS:      63366  HIT %:    76.0479  MISS %:    23.9521   MPKI: 1.26732
L2C TRANSLATION FROM L1D PREFETCHER ACCESS:        120  HIT:         48  MISS:         72  HIT %:         40  MISS %:         60   MPKI: 0.00144
L2C PREFETCH  REQUESTED:      40240  ISSUED:      40240  USEFUL:      11734  USELESS:    1078963
L2C USEFUL LOAD PREFETCHES:      11734 PREFETCH ISSUED TO LOWER LEVEL:    1092103  ACCURACY: 1.07444
L2C TIMELY PREFETCHES:      11734 LATE PREFETCHES: 734 DROPPED PREFETCHES: 0
L2C PREFETCHES SAME FILL-ORIGIN LEVEL: 14956 DIFFERENT FILL-ORIGIN LEVEL: 0
L2C AVERAGE MISS LATENCY: 288.609 cycles
L2C RQ	ACCESS:    1573752	FORWARD:          0	MERGED:          0	TO_CACHE:    1573746
L2C WQ	ACCESS:      41577	FORWARD:          6	MERGED:          0	TO_CACHE:      41577
L2C PQ	ACCESS:    1195239	FORWARD:          0	MERGED:        831	TO_CACHE:    1194408

L2C Instructions Evicting Data 38561
L2C Translations Evicting Data 60797
L2C Data Evicting Data 2020140
L2C Instructions Evicting Instructions 1207
L2C Translations Evicting Instructions 774
L2C Data Evicting Instructions 39542
L2C Instructions Evicting Translations 795
L2C Translations Evicting Translations 1867
L2C Data Evicting Translations 60784
L2C Dense regions hint from L2: 0
PSCL5 TOTAL     ACCESS:     263509  HIT:     263509  MISS:          0  HIT %:        100  MISS %:          0   MPKI: 0
PSCL5 LOAD TRANSLATION ACCESS:     263413  HIT:     263413  MISS:          0  HIT %:        100  MISS %:          0   MPKI: 0
PSCL5 TRANSLATION FROM L1D PREFETCHER ACCESS:         96  HIT:         96  MISS:          0  HIT %:        100  MISS %:          0   MPKI: 0
PSCL5 PREFETCH  REQUESTED:          0  ISSUED:          0  USEFUL:          0  USELESS:          0
PSCL5 USEFUL LOAD PREFETCHES:          0 PREFETCH ISSUED TO LOWER LEVEL:          0  ACCURACY: -nan
PSCL5 TIMELY PREFETCHES:          0 LATE PREFETCHES: 0 DROPPED PREFETCHES: 0
PSCL5 PREFETCHES SAME FILL-ORIGIN LEVEL: 0 DIFFERENT FILL-ORIGIN LEVEL: 0

PSCL4 TOTAL     ACCESS:     263509  HIT:     263509  MISS:          0  HIT %:        100  MISS %:          0   MPKI: 0
PSCL4 LOAD TRANSLATION ACCESS:     263413  HIT:     263413  MISS:          0  HIT %:        100  MISS %:          0   MPKI: 0
PSCL4 TRANSLATION FROM L1D PREFETCHER ACCESS:         96  HIT:         96  MISS:          0  HIT %:        100  MISS %:          0   MPKI: 0
PSCL4 PREFETCH  REQUESTED:          0  ISSUED:          0  USEFUL:          0  USELESS:          0
PSCL4 USEFUL LOAD PREFETCHES:          0 PREFETCH ISSUED TO LOWER LEVEL:          0  ACCURACY: -nan
PSCL4 TIMELY PREFETCHES:          0 LATE PREFETCHES: 0 DROPPED PREFETCHES: 0
PSCL4 PREFETCHES SAME FILL-ORIGIN LEVEL: 0 DIFFERENT FILL-ORIGIN LEVEL: 0

PSCL3 TOTAL     ACCESS:     263509  HIT:     263509  MISS:          0  HIT %:        100  MISS %:          0   MPKI: 0
PSCL3 LOAD TRANSLATION ACCESS:     263413  HIT:     263413  MISS:          0  HIT %:        100  MISS %:          0   MPKI: 0
PSCL3 TRANSLATION FROM L1D PREFETCHER ACCESS:         96  HIT:         96  MISS:          0  HIT %:        100  MISS %:          0   MPKI: 0
PSCL3 PREFETCH  REQUESTED:          0  ISSUED:          0  USEFUL:          0  USELESS:          0
PSCL3 USEFUL LOAD PREFETCHES:          0 PREFETCH ISSUED TO LOWER LEVEL:          0  ACCURACY: -nan
PSCL3 TIMELY PREFETCHES:          0 LATE PREFETCHES: 0 DROPPED PREFETCHES: 0
PSCL3 PREFETCHES SAME FILL-ORIGIN LEVEL: 0 DIFFERENT FILL-ORIGIN LEVEL: 0

PSCL2 TOTAL     ACCESS:     263509  HIT:     262345  MISS:       1164  HIT %:    99.5583  MISS %:   0.441731   MPKI: 0.02328
PSCL2 LOAD TRANSLATION ACCESS:     263437  HIT:     262273  MISS:       1164  HIT %:    99.5581  MISS %:   0.441851   MPKI: 0.02328
PSCL2 TRANSLATION FROM L1D PREFETCHER ACCESS:         72  HIT:         72  MISS:          0  HIT %:        100  MISS %:          0   MPKI: 0
PSCL2 PREFETCH  REQUESTED:          0  ISSUED:          0  USEFUL:          0  USELESS:          0
PSCL2 USEFUL LOAD PREFETCHES:          0 PREFETCH ISSUED TO LOWER LEVEL:          0  ACCURACY: -nan
PSCL2 TIMELY PREFETCHES:          0 LATE PREFETCHES: 0 DROPPED PREFETCHES: 0
PSCL2 PREFETCHES SAME FILL-ORIGIN LEVEL: 0 DIFFERENT FILL-ORIGIN LEVEL: 0

LLC TOTAL     ACCESS:    2246450  HIT:     136459  MISS:    2109991  HIT %:    6.07443  MISS %:    93.9256   MPKI: 42.1998
LLC LOAD      ACCESS:    1057803  HIT:      59478  MISS:     998325  HIT %:    5.62279  MISS %:    94.3772   MPKI: 19.9665
LLC RFO       ACCESS:      11124  HIT:       1770  MISS:       9354  HIT %:    15.9115  MISS %:    84.0885   MPKI: 0.18708
LLC PREFETCH  ACCESS:    1092102  HIT:      51252  MISS:    1040850  HIT %:    4.69297  MISS %:     95.307   MPKI: 20.817
LLC WRITEBACK ACCESS:      21983  HIT:      21889  MISS:         94  HIT %:    99.5724  MISS %:   0.427603   MPKI: 0.00188
LLC LOAD TRANSLATION ACCESS:      63366  HIT:       2070  MISS:      61296  HIT %:    3.26674  MISS %:    96.7333   MPKI: 1.22592
LLC TRANSLATION FROM L1D PREFETCHER ACCESS:         72  HIT:          0  MISS:         72  HIT %:          0  MISS %:        100   MPKI: 0.00144
LLC PREFETCH  REQUESTED:          0  ISSUED:          0  USEFUL:       8489  USELESS:    1030884
LLC USEFUL LOAD PREFETCHES:       8489 PREFETCH ISSUED TO LOWER LEVEL:    1040851  ACCURACY: 0.815583
LLC TIMELY PREFETCHES:       8489 LATE PREFETCHES: 0 DROPPED PREFETCHES: 0
LLC PREFETCHES SAME FILL-ORIGIN LEVEL: 0 DIFFERENT FILL-ORIGIN LEVEL: 0
LLC AVERAGE MISS LATENCY: 272.715 cycles
LLC RQ	ACCESS:    1132367	FORWARD:          0	MERGED:          0	TO_CACHE:    1132367
LLC WQ	ACCESS:      21983	FORWARD:          0	MERGED:          0	TO_CACHE:      21983
LLC PQ	ACCESS:    1092103	FORWARD:          0	MERGED:          0	TO_CACHE:    1092103

LLC Dense regions hint to LLC: 0

RAW hits: 59597
Loads Generated: 14796291
Loads sent to L1D: 14736694
Stores Generated: 2303186
Stores sent to L1D: 2303184
Major fault: 0 Minor fault: 10925
Allocated PAGES: 10925

stream: 
stream:times selected: 2824560
stream:pref_filled: 887275
stream:pref_useful: 152005
stream:pref_late: 93602
stream:misses: 378137
stream:misses_by_poll: 0

CS: 
CS:times selected: 77231
CS:pref_filled: 68224
CS:pref_useful: 46026
CS:pref_late: 1097
CS:misses: 10804
CS:misses_by_poll: 72

CPLX: 
CPLX:times selected: 2721289
CPLX:pref_filled: 302169
CPLX:pref_useful: 24636
CPLX:pref_late: 2149
CPLX:misses: 1052446
CPLX:misses_by_poll: 711

NL_L1: 
NL:times selected: 24135
NL:pref_filled: 8627
NL:pref_useful: 1477
NL:pref_late: 1588
NL:misses: 12454
NL:misses_by_poll: 0

total selections: 5647215
total_filled: 1066207
total_useful: 178068
total_late: 99158
total_polluted: 783
total_misses_after_warmup: 1259891
conflicts: 483914
Degree Incremented Times: 1587
Degree Decremented Times: 144730

L1 IP Table Write Accesses: 8308289
L1 IP Table Read Accesses: 7824375
L1 RST Write Accesses: 2335124
L1 RST Read Accesses: 4670248
L1 CSPT Write Accesses: 2335124
L1 CSPT Read Accesses: 4586883
L1 RR Filter Tag Write Accesses: 1824049
L1 RR Filter Tag Read Accesses: 88925085
L1 IP Table Tag Write Accesses: 9091294
L1 IP Table Tag Read Accesses: 9091294
L1 RST Tag Write Accesses: 0
L1 RST Tag Read Accesses: 21355840
L1 RR Filter Write Accesses: 0
L1 RR Filter Read Accesses: 2960626
test: 1768455
L2 IP Table Read Accesses: 4501419
L2 IP Table Write Accesses: 3442607
L2 IP Table Tag Read Accesses: 2271276
L2 IP Table Tag Write Accesses: 2271276

DRAM Statistics
 CHANNEL 0
 RQ ROW_BUFFER_HIT:    1448978  ROW_BUFFER_MISS:     660919
 DBUS_CONGESTED:    1712209
 WQ ROW_BUFFER_HIT:       1154  ROW_BUFFER_MISS:      15637  FULL:          0

 AVG_CONGESTED_CYCLE: 72
 All warmup complete: 2
Channel 0 Bank busy for read cycles: 0
Channel 0 Bank busy for write cycles: 0
Channel 0
Rank 0
0banks busy for read cycles: 89431759
0banks busy for write cycles: 12401
1banks busy for read cycles: 45629225
1banks busy for write cycles: 2327941
2banks busy for read cycles: 41018015
2banks busy for write cycles: 510164
3banks busy for read cycles: 33254583
3banks busy for write cycles: 143611
4banks busy for read cycles: 26060426
4banks busy for write cycles: 53285
5banks busy for read cycles: 16285165
5banks busy for write cycles: 19918
6banks busy for read cycles: 6127114
6banks busy for write cycles: 8300
7banks busy for read cycles: 1397122
7banks busy for write cycles: 2644
8banks busy for read cycles: 405602
8banks busy for write cycles: 90

CPU 0 Branch Prediction Accuracy: 94.93% MPKI: 13.2206 Average ROB Occupancy at Mispredict: 37.0729
Branch types
NOT_BRANCH: 36961555 73.9231%
BRANCH_DIRECT_JUMP: 118676 0.237352%
BRANCH_INDIRECT: 21952 0.043904%
BRANCH_CONDITIONAL: 11727061 23.4541%
BRANCH_DIRECT_CALL: 319784 0.639568%
BRANCH_INDIRECT_CALL: 265434 0.530868%
BRANCH_RETURN: 585218 1.17044%
BRANCH_OTHER: 0 0%

@sumon_overall_L1D    178068     88296    887997   1066207   3648062   3648078
@Sumon_Early_by_class_L1D    120319     36174     20358      1461
@Sumon_Late_by_class_L1D     83222      1084      1931      1461

@Sumon_Early_by_cycle_L1D     15727     11876     23927     22862     21433     33129     16051      5148      3927     22277       903       808
@Sumon_Late_by_cycle_L1D     23717     35781     25152      3205       312       129         0         0         0         0         0         0
@Sumon_Early_stream_L1D     14682     10006     17391     19189     17791     23904     11005      3436      1164       959       389       403
@Sumon_Early_CS_L1D       197       498      1970      1278      1827      4568      1858       574      2317     20767       192       128
@Sumon_Early_CPLX_L1D       502      1127      4425      2362      1750      4519      3081      1096       440       505       279       272
@Sumon_Late_stream_L1D     21980     34232     23826      2944       217        23         0         0         0         0         0         0
@Sumon_Late_CS_L1D       230       252       253       152        92       105         0         0         0         0         0         0
@Sumon_Late_CPLX_L1D       461       674       705        87         3         1         0         0         0         0         0         0
@sumon_overall_L2C     11734       734   1078963   1091440     40240     40240
@Sumon_Early_by_class_L2C      4464       632      2372         0
@Sumon_Late_by_class_L2C         0         0         0         0

@Sumon_Early_by_cycle_L2C       462       348       223       228       152       200       201       200       506       487       460      8267
@Sumon_Late_by_cycle_L2C       422       216        71         1         3        21         0         0         0         0         0         0
@Sumon_Early_stream_L2C         0         0         9        13         2         0         0         0         4        13        88      4335
@Sumon_Early_CS_L2C         0         0         0         0         0         0         0         0         0        23        15       594
@Sumon_Early_CPLX_L2C         0         0         0         0         0         0         0         0         3        12        68      2289
@Sumon_Late_stream_L2C         0         0         0         0         0         0         0         0         0         0         0         0
@Sumon_Late_CS_L2C         0         0         0         0         0         0         0         0         0         0         0         0
@Sumon_Late_CPLX_L2C         0         0         0         0         0         0         0         0         0         0         0         0
DRAM PAGES: 1048576
Allocated PAGES: 10925
