
*** ChampSim Multicore Out-of-Order Simulator ***

Warmup Instructions: 2000000
Simulation Instructions: 5000000
Number of CPUs: 1
LLC sets: 2048
LLC ways: 16
Off-chip DRAM Size: 4096 MB Channels: 1 Width: 64-bit Data Rate: 6400 MT/s
CPU 0 runs dpc3_traces/607.cactuBSSN_s-2421B.champsimtrace.xz
.xz
CPU 0 Bimodal branch predictor
BTB has LRU replacement policy
ITLB has LRU replacement policy
DTLB has LRU replacement policy
STLB has LRU replacement policy
L1I has LRU replacement policy
IP Table Entries: 256
L1D has LRU replacement policy
IP_Table L2 entries: 256
L2C has LRU replacement policy
LLC has LRU replacement policy

Warmup complete CPU 0 instructions: 2000004 cycles: 718315 (Simulation time: 0 hr 2 min 22 sec) 

Finished CPU 0 instructions: 5000001 cycles: 5463404 cumulative IPC: 0.915181 (Simulation time: 0 hr 5 min 48 sec) 

ChampSim completed all CPUs

Region of Interest Statistics

CPU 0 cumulative IPC: 0.915181 instructions: 5000001 cycles: 5463404
ITLB TOTAL     ACCESS:     696201  HIT:     696201  MISS:          0  HIT %:        100  MISS %:          0   MPKI: 0
ITLB LOAD TRANSLATION ACCESS:     696201  HIT:     696201  MISS:          0  HIT %:        100  MISS %:          0   MPKI: 0
ITLB PREFETCH  REQUESTED:          0  ISSUED:          0  USEFUL:          0  USELESS:          0
ITLB USEFUL LOAD PREFETCHES:          0 PREFETCH ISSUED TO LOWER LEVEL:          0  ACCURACY: -nan
ITLB TIMELY PREFETCHES:          0 LATE PREFETCHES: 0 DROPPED PREFETCHES: 0
ITLB PREFETCHES SAME FILL-ORIGIN LEVEL: 0 DIFFERENT FILL-ORIGIN LEVEL: 0
ITLB AVERAGE MISS LATENCY: -nan cycles
ITLB RQ	ACCESS:     846579	FORWARD:          0	MERGED:     150379	TO_CACHE:     696200

ITLB_Dead_block_count 0
ITLB_inaccurate_prefetch_count 0
ITLB deadC_evicts_inaccP 0 deadC_evicts_P 0 C_evicts_inaccP 0 C_evicts_P 0 inaccP_evicts_deadC 0 inaccP_evicts_C 0 P_evicts_deadC 0 P_evicts_C 0
Interactions: positive negative neutral
ITLB_interactions 0 0 0
DTLB TOTAL     ACCESS:    1409832  HIT:    1217089  MISS:     192743  HIT %:    86.3287  MISS %:    13.6713   MPKI: 38.5486
DTLB LOAD TRANSLATION ACCESS:    1409832  HIT:    1217089  MISS:     192743  HIT %:    86.3287  MISS %:    13.6713   MPKI: 38.5486
DTLB PREFETCH  REQUESTED:          0  ISSUED:          0  USEFUL:          0  USELESS:          0
DTLB USEFUL LOAD PREFETCHES:          0 PREFETCH ISSUED TO LOWER LEVEL:          0  ACCURACY: -nan
DTLB TIMELY PREFETCHES:          0 LATE PREFETCHES: 0 DROPPED PREFETCHES: 0
DTLB PREFETCHES SAME FILL-ORIGIN LEVEL: 0 DIFFERENT FILL-ORIGIN LEVEL: 0
DTLB AVERAGE MISS LATENCY: 9.96175 cycles
DTLB RQ	ACCESS:    1982120	FORWARD:          0	MERGED:     552119	TO_CACHE:    1430001

DTLB_Dead_block_count 192739
DTLB_inaccurate_prefetch_count 0
DTLB deadC_evicts_inaccP 0 deadC_evicts_P 0 C_evicts_inaccP 0 C_evicts_P 0 inaccP_evicts_deadC 0 inaccP_evicts_C 0 P_evicts_deadC 0 P_evicts_C 0
Interactions: positive negative neutral
DTLB_interactions 0 0 0
STLB TOTAL     ACCESS:     192999  HIT:     192792  MISS:        207  HIT %:    99.8927  MISS %:   0.107254   MPKI: 0.0414
STLB LOAD TRANSLATION ACCESS:     192743  HIT:     192536  MISS:        207  HIT %:    99.8926  MISS %:   0.107397   MPKI: 0.0414
STLB TRANSLATION FROM L1D PREFETCHER ACCESS:        256  HIT:        256  MISS:          0  HIT %:        100  MISS %:          0   MPKI: 0
STLB PREFETCH  REQUESTED:          0  ISSUED:          0  USEFUL:          0  USELESS:          0
STLB USEFUL LOAD PREFETCHES:          0 PREFETCH ISSUED TO LOWER LEVEL:          0  ACCURACY: -nan
STLB TIMELY PREFETCHES:          0 LATE PREFETCHES: 0 DROPPED PREFETCHES: 0
STLB PREFETCHES SAME FILL-ORIGIN LEVEL: 0 DIFFERENT FILL-ORIGIN LEVEL: 0
STLB AVERAGE MISS LATENCY: 581.928 cycles
STLB RQ	ACCESS:     193138	FORWARD:          0	MERGED:        139	TO_CACHE:     192999

STLB_Dead_block_count 203
STLB_inaccurate_prefetch_count 0
STLB deadC_evicts_inaccP 0 deadC_evicts_P 0 C_evicts_inaccP 0 C_evicts_P 0 inaccP_evicts_deadC 0 inaccP_evicts_C 0 P_evicts_deadC 0 P_evicts_C 0
Interactions: positive negative neutral
STLB_interactions 0 0 0
STLB Hit, L1D data hit: 0
STLB Hit, L2C data hit: 0
STLB Hit, LLC data hit: 0
STLB Hit, LLC data miss: 0
STLB STLB hints to L2: 0
L1D TOTAL     ACCESS:    1971509  HIT:    1603565  MISS:     367944  HIT %:    81.3369  MISS %:    18.6631   MPKI: 73.5888
L1D LOAD      ACCESS:    1571005  HIT:    1233678  MISS:     337327  HIT %:    78.5279  MISS %:    21.4721   MPKI: 67.4654
L1D RFO       ACCESS:     400109  HIT:     369887  MISS:      30222  HIT %:    92.4466  MISS %:    7.55344   MPKI: 6.0444
L1D PREFETCH  ACCESS:        395  HIT:          0  MISS:        395  HIT %:          0  MISS %:        100   MPKI: 0.079
L1D PREFETCH  REQUESTED:        790  ISSUED:        790  USEFUL:        150  USELESS:        249
L1D USEFUL LOAD PREFETCHES:        150 PREFETCH ISSUED TO LOWER LEVEL:        415  ACCURACY: 36.1446
L1D TIMELY PREFETCHES:        150 LATE PREFETCHES: 0 DROPPED PREFETCHES: 0
L1D PREFETCHES SAME FILL-ORIGIN LEVEL: 415 DIFFERENT FILL-ORIGIN LEVEL: 0
L1D AVERAGE MISS LATENCY: 23.1084 cycles
L1D RQ	ACCESS:    1947322	FORWARD:          0	MERGED:     366978	TO_CACHE:    1579556
L1D WQ	ACCESS:     405289	FORWARD:        788	MERGED:       2725	TO_CACHE:     402564
L1D PQ	ACCESS:        395	FORWARD:          0	MERGED:          0	TO_CACHE:        395

L1D_Dead_block_count 67689
L1D_inaccurate_prefetch_count 191
L1D deadC_evicts_inaccP 11 deadC_evicts_P 15 C_evicts_inaccP 75 C_evicts_P 148 inaccP_evicts_deadC 25 inaccP_evicts_C 166 P_evicts_deadC 33 P_evicts_C 171
Interactions: positive negative neutral
L1D_interactions 108 181 355
L1D UNIQUE REGIONS ACCESSED: 0
L1D REGIONS CONFLICTS: 0
L1D Cross Page Prefetch Requests: 0
L1D Same Page Prefetch Requests: 906
L1D ROI Sum of L1D PQ occupancy: 5854
L1D PREFETCHES PUSHED FROM L2C: 0
L1I TOTAL     ACCESS:     780285  HIT:     650303  MISS:     129982  HIT %:    83.3417  MISS %:    16.6583   MPKI: 25.9964
L1I LOAD      ACCESS:     780285  HIT:     650303  MISS:     129982  HIT %:    83.3417  MISS %:    16.6583   MPKI: 25.9964
L1I PREFETCH  REQUESTED:          0  ISSUED:          0  USEFUL:          0  USELESS:          0
L1I USEFUL LOAD PREFETCHES:          0 PREFETCH ISSUED TO LOWER LEVEL:          0  ACCURACY: -nan
L1I TIMELY PREFETCHES:          0 LATE PREFETCHES: 0 DROPPED PREFETCHES: 0
L1I PREFETCHES SAME FILL-ORIGIN LEVEL: 0 DIFFERENT FILL-ORIGIN LEVEL: 0
L1I AVERAGE MISS LATENCY: 14.0745 cycles
L1I RQ	ACCESS:    1185590	FORWARD:          0	MERGED:     339011	TO_CACHE:     846579

L1I_Dead_block_count 129978
L1I_inaccurate_prefetch_count 0
L1I deadC_evicts_inaccP 0 deadC_evicts_P 0 C_evicts_inaccP 0 C_evicts_P 0 inaccP_evicts_deadC 0 inaccP_evicts_C 0 P_evicts_deadC 0 P_evicts_C 0
Interactions: positive negative neutral
L1I_interactions 0 0 0
BTB TOTAL     ACCESS:      28165  HIT:      26323  MISS:       1842  HIT %:      93.46  MISS %:    6.54003   MPKI: 0.3684
BTB BRANCH_DIRECT_JUMP	ACCESS:       5450  HIT:       5445  MISS:          5
BTB BRANCH_INDIRECT	ACCESS:        909  HIT:        908  MISS:          1
BTB BRANCH_CONDITIONAL	ACCESS:      10906  HIT:      10895  MISS:         11
BTB BRANCH_DIRECT_CALL	ACCESS:       5450  HIT:       5445  MISS:          5
BTB BRANCH_INDIRECT_CALL	ACCESS:          0  HIT:          0  MISS:          0
BTB BRANCH_RETURN	ACCESS:       5450  HIT:       3630  MISS:       1820
BTB BRANCH_OTHER ACCESS:          0  HIT:          0  MISS:          0

L2C TOTAL     ACCESS:     759697  HIT:     734567  MISS:      25130  HIT %:    96.6921  MISS %:     3.3079   MPKI: 5.026
L2C LOAD      ACCESS:     467254  HIT:     462069  MISS:       5185  HIT %:    98.8903  MISS %:    1.10967   MPKI: 1.037
L2C DATA LOAD MPKI: 1.0302
L2C INSTRUCTION LOAD MPKI: 0.0068
L2C RFO       ACCESS:      30203  HIT:      27253  MISS:       2950  HIT %:    90.2328  MISS %:    9.76724   MPKI: 0.59
L2C PREFETCH  ACCESS:     229491  HIT:     212803  MISS:      16688  HIT %:    92.7283  MISS %:    7.27174   MPKI: 3.3376
L2C DATA PREFETCH MPKI: 3.3376
L2C INSTRUCTION PREFETCH MPKI: 0
L2C WRITEBACK ACCESS:      32429  HIT:      32429  MISS:          0  HIT %:        100  MISS %:          0   MPKI: 0
L2C LOAD TRANSLATION ACCESS:        320  HIT:         13  MISS:        307  HIT %:     4.0625  MISS %:    95.9375   MPKI: 0.0614
L2C PREFETCH  REQUESTED:     232503  ISSUED:     229123  USEFUL:      16620  USELESS:         62
L2C USEFUL LOAD PREFETCHES:      16620 PREFETCH ISSUED TO LOWER LEVEL:      16689  ACCURACY: 99.5866
L2C TIMELY PREFETCHES:      16620 LATE PREFETCHES: 1 DROPPED PREFETCHES: 0
L2C PREFETCHES SAME FILL-ORIGIN LEVEL: 16556 DIFFERENT FILL-ORIGIN LEVEL: 0
L2C AVERAGE MISS LATENCY: 180.494 cycles
L2C RQ	ACCESS:     497851	FORWARD:          0	MERGED:          0	TO_CACHE:     497777
L2C WQ	ACCESS:      32429	FORWARD:         77	MERGED:          0	TO_CACHE:      32429
L2C PQ	ACCESS:     229518	FORWARD:          0	MERGED:         23	TO_CACHE:     229492

L2C_Dead_block_count 1101
L2C_inaccurate_prefetch_count 0
L2C deadC_evicts_inaccP 0 deadC_evicts_P 4 C_evicts_inaccP 0 C_evicts_P 19 inaccP_evicts_deadC 18 inaccP_evicts_C 75 P_evicts_deadC 3871 P_evicts_C 12685
Interactions: positive negative neutral
L2C_interactions 3871 79 12722
L2C Instructions Evicting Data 34
L2C Translations Evicting Data 302
L2C Data Evicting Data 24317
L2C Instructions Evicting Instructions 0
L2C Translations Evicting Instructions 1
L2C Data Evicting Instructions 79
L2C Instructions Evicting Translations 0
L2C Translations Evicting Translations 4
L2C Data Evicting Translations 284
L2C Dense regions hint from L2: 0
PSCL5 TOTAL     ACCESS:        207  HIT:        207  MISS:          0  HIT %:        100  MISS %:          0   MPKI: 0
PSCL5 LOAD TRANSLATION ACCESS:        207  HIT:        207  MISS:          0  HIT %:        100  MISS %:          0   MPKI: 0
PSCL5 PREFETCH  REQUESTED:          0  ISSUED:          0  USEFUL:          0  USELESS:          0
PSCL5 USEFUL LOAD PREFETCHES:          0 PREFETCH ISSUED TO LOWER LEVEL:          0  ACCURACY: -nan
PSCL5 TIMELY PREFETCHES:          0 LATE PREFETCHES: 0 DROPPED PREFETCHES: 0
PSCL5 PREFETCHES SAME FILL-ORIGIN LEVEL: 0 DIFFERENT FILL-ORIGIN LEVEL: 0

PSCL5_Dead_block_count 0
PSCL5_inaccurate_prefetch_count 0
PSCL5 deadC_evicts_inaccP 0 deadC_evicts_P 0 C_evicts_inaccP 0 C_evicts_P 0 inaccP_evicts_deadC 0 inaccP_evicts_C 0 P_evicts_deadC 0 P_evicts_C 0
Interactions: positive negative neutral
PSCL5_interactions 0 0 0
PSCL4 TOTAL     ACCESS:        207  HIT:        207  MISS:          0  HIT %:        100  MISS %:          0   MPKI: 0
PSCL4 LOAD TRANSLATION ACCESS:        207  HIT:        207  MISS:          0  HIT %:        100  MISS %:          0   MPKI: 0
PSCL4 PREFETCH  REQUESTED:          0  ISSUED:          0  USEFUL:          0  USELESS:          0
PSCL4 USEFUL LOAD PREFETCHES:          0 PREFETCH ISSUED TO LOWER LEVEL:          0  ACCURACY: -nan
PSCL4 TIMELY PREFETCHES:          0 LATE PREFETCHES: 0 DROPPED PREFETCHES: 0
PSCL4 PREFETCHES SAME FILL-ORIGIN LEVEL: 0 DIFFERENT FILL-ORIGIN LEVEL: 0

PSCL4_Dead_block_count 0
PSCL4_inaccurate_prefetch_count 0
PSCL4 deadC_evicts_inaccP 0 deadC_evicts_P 0 C_evicts_inaccP 0 C_evicts_P 0 inaccP_evicts_deadC 0 inaccP_evicts_C 0 P_evicts_deadC 0 P_evicts_C 0
Interactions: positive negative neutral
PSCL4_interactions 0 0 0
PSCL3 TOTAL     ACCESS:        207  HIT:        207  MISS:          0  HIT %:        100  MISS %:          0   MPKI: 0
PSCL3 LOAD TRANSLATION ACCESS:        207  HIT:        207  MISS:          0  HIT %:        100  MISS %:          0   MPKI: 0
PSCL3 PREFETCH  REQUESTED:          0  ISSUED:          0  USEFUL:          0  USELESS:          0
PSCL3 USEFUL LOAD PREFETCHES:          0 PREFETCH ISSUED TO LOWER LEVEL:          0  ACCURACY: -nan
PSCL3 TIMELY PREFETCHES:          0 LATE PREFETCHES: 0 DROPPED PREFETCHES: 0
PSCL3 PREFETCHES SAME FILL-ORIGIN LEVEL: 0 DIFFERENT FILL-ORIGIN LEVEL: 0

PSCL3_Dead_block_count 0
PSCL3_inaccurate_prefetch_count 0
PSCL3 deadC_evicts_inaccP 0 deadC_evicts_P 0 C_evicts_inaccP 0 C_evicts_P 0 inaccP_evicts_deadC 0 inaccP_evicts_C 0 P_evicts_deadC 0 P_evicts_C 0
Interactions: positive negative neutral
PSCL3_interactions 0 0 0
PSCL2 TOTAL     ACCESS:        207  HIT:         94  MISS:        113  HIT %:    45.4106  MISS %:    54.5894   MPKI: 0.0226
PSCL2 LOAD TRANSLATION ACCESS:        207  HIT:         94  MISS:        113  HIT %:    45.4106  MISS %:    54.5894   MPKI: 0.0226
PSCL2 PREFETCH  REQUESTED:          0  ISSUED:          0  USEFUL:          0  USELESS:          0
PSCL2 USEFUL LOAD PREFETCHES:          0 PREFETCH ISSUED TO LOWER LEVEL:          0  ACCURACY: -nan
PSCL2 TIMELY PREFETCHES:          0 LATE PREFETCHES: 0 DROPPED PREFETCHES: 0
PSCL2 PREFETCHES SAME FILL-ORIGIN LEVEL: 0 DIFFERENT FILL-ORIGIN LEVEL: 0

PSCL2_Dead_block_count 0
PSCL2_inaccurate_prefetch_count 0
PSCL2 deadC_evicts_inaccP 0 deadC_evicts_P 0 C_evicts_inaccP 0 C_evicts_P 0 inaccP_evicts_deadC 0 inaccP_evicts_C 0 P_evicts_deadC 0 P_evicts_C 0
Interactions: positive negative neutral
PSCL2_interactions 0 0 0
LLC TOTAL     ACCESS:      28046  HIT:      14893  MISS:      13153  HIT %:     53.102  MISS %:     46.898   MPKI: 2.6306
LLC LOAD      ACCESS:       5184  HIT:       2550  MISS:       2634  HIT %:    49.1898  MISS %:    50.8102   MPKI: 0.5268
LLC RFO       ACCESS:       2950  HIT:          0  MISS:       2950  HIT %:          0  MISS %:        100   MPKI: 0.59
LLC PREFETCH  ACCESS:      16689  HIT:       9149  MISS:       7540  HIT %:    54.8205  MISS %:    45.1795   MPKI: 1.508
LLC WRITEBACK ACCESS:       2916  HIT:       2916  MISS:          0  HIT %:        100  MISS %:          0   MPKI: 0
LLC LOAD TRANSLATION ACCESS:        307  HIT:        278  MISS:         29  HIT %:    90.5537  MISS %:    9.44625   MPKI: 0.0058
LLC PREFETCH  REQUESTED:          0  ISSUED:          0  USEFUL:       1451  USELESS:          1
LLC USEFUL LOAD PREFETCHES:       1451 PREFETCH ISSUED TO LOWER LEVEL:       7540  ACCURACY: 19.244
LLC TIMELY PREFETCHES:       1451 LATE PREFETCHES: 0 DROPPED PREFETCHES: 0
LLC PREFETCHES SAME FILL-ORIGIN LEVEL: 0 DIFFERENT FILL-ORIGIN LEVEL: 0
LLC AVERAGE MISS LATENCY: 285.654 cycles
LLC RQ	ACCESS:       8441	FORWARD:          0	MERGED:          0	TO_CACHE:       8441
LLC WQ	ACCESS:       2916	FORWARD:          0	MERGED:          0	TO_CACHE:       2916
LLC PQ	ACCESS:      16689	FORWARD:          0	MERGED:          0	TO_CACHE:      16689

LLC_Dead_block_count 3749
LLC_inaccurate_prefetch_count 0
LLC deadC_evicts_inaccP 0 deadC_evicts_P 1 C_evicts_inaccP 0 C_evicts_P 0 inaccP_evicts_deadC 0 inaccP_evicts_C 72 P_evicts_deadC 0 P_evicts_C 7468
Interactions: positive negative neutral
LLC_interactions 0 73 7468
LLC Dense regions hint to LLC: 0

RAW hits: 12117
Loads Generated: 1959441
Loads sent to L1D: 1947322
Stores Generated: 405306
Stores sent to L1D: 405306
Major fault: 0 Minor fault: 592
Allocated PAGES: 592

stream: 
stream:times selected: 710
stream:pref_filled: 346
stream:pref_useful: 68
stream:pref_late: 1
stream:misses: 27
stream:misses_by_poll: 0

CS: 
CS:times selected: 183
CS:pref_filled: 147
CS:pref_useful: 13
CS:pref_late: 0
CS:misses: 1344
CS:misses_by_poll: 0

CPLX: 
CPLX:times selected: 216
CPLX:pref_filled: 287
CPLX:pref_useful: 133
CPLX:pref_late: 0
CPLX:misses: 524
CPLX:misses_by_poll: 0

NL_L1: 
NL:times selected: 4
NL:pref_filled: 3
NL:pref_useful: 1
NL:pref_late: 0
NL:misses: 17
NL:misses_by_poll: 0

total selections: 1113
total_filled: 395
total_useful: 150
total_late: 1
total_polluted: 0
total_misses_after_warmup: 345875
conflicts: 778746
Degree Incremented Times: 0
Degree Decremented Times: 6096

L1 IP Table Write Accesses: 790675
L1 IP Table Read Accesses: 11929
L1 RST Write Accesses: 271
L1 RST Read Accesses: 542
L1 CSPT Write Accesses: 271
L1 CSPT Read Accesses: 644
L1 RR Filter Tag Write Accesses: 395
L1 RR Filter Tag Read Accesses: 29775
L1 IP Table Tag Write Accesses: 1579553
L1 IP Table Tag Read Accesses: 1579553
L1 RST Tag Write Accesses: 0
L1 RST Tag Read Accesses: 2449
L1 RR Filter Write Accesses: 0
L1 RR Filter Read Accesses: 1015
test: 243
L2 IP Table Read Accesses: 439737
L2 IP Table Write Accesses: 544271
L2 IP Table Tag Read Accesses: 337656
L2 IP Table Tag Write Accesses: 337656

DRAM Statistics
 CHANNEL 0
 RQ ROW_BUFFER_HIT:       8630  ROW_BUFFER_MISS:       4523
 DBUS_CONGESTED:          0
 WQ ROW_BUFFER_HIT:          0  ROW_BUFFER_MISS:          0  FULL:          0

 AVG_CONGESTED_CYCLE: -
 All warmup complete: 2
Channel 0 Bank busy for read cycles: 0
Channel 0 Bank busy for write cycles: 0
Channel 0
Rank 0
0banks busy for read cycles: 4774721
0banks busy for write cycles: 0
1banks busy for read cycles: 455025
1banks busy for write cycles: 0
2banks busy for read cycles: 131239
2banks busy for write cycles: 0
3banks busy for read cycles: 61062
3banks busy for write cycles: 0
4banks busy for read cycles: 19160
4banks busy for write cycles: 0
5banks busy for read cycles: 7284
5banks busy for write cycles: 0
6banks busy for read cycles: 8213
6banks busy for write cycles: 0
7banks busy for read cycles: 6652
7banks busy for write cycles: 0
8banks busy for read cycles: 49
8banks busy for write cycles: 0

CPU 0 Branch Prediction Accuracy: 99.9888% MPKI: 0.000999999 Average ROB Occupancy at Mispredict: 28
Branch types
NOT_BRANCH: 4955148 99.1029%
BRANCH_DIRECT_JUMP: 5450 0.109%
BRANCH_INDIRECT: 909 0.01818%
BRANCH_CONDITIONAL: 27262 0.54524%
BRANCH_DIRECT_CALL: 5450 0.109%
BRANCH_INDIRECT_CALL: 0 0%
BRANCH_RETURN: 5450 0.109%
BRANCH_OTHER: 0 0%

@sumon_overall_L1D       150         0       249       395       790       790
@Sumon_Early_by_class_L1D        24        12       111         0
@Sumon_Late_by_class_L1D         0         0         0         0

@Sumon_Early_by_cycle_L1D         0         1         1         0         0         0         0         0         0        25        44        79
@Sumon_Late_by_cycle_L1D         0         0         0         0         0         0         0         0         0         0         0         0
@Sumon_Early_stream_L1D         0         1         1         0         0         0         0         0         0        22         0         0
@Sumon_Early_CS_L1D         0         0         0         0         0         0         0         0         0         0         2        10
@Sumon_Early_CPLX_L1D         0         0         0         0         0         0         0         0         0         0        42        69
@Sumon_Late_stream_L1D         0         0         0         0         0         0         0         0         0         0         0         0
@Sumon_Late_CS_L1D         0         0         0         0         0         0         0         0         0         0         0         0
@Sumon_Late_CPLX_L1D         0         0         0         0         0         0         0         0         0         0         0         0
@sumon_overall_L2C     16620         1        62     16688    229123    232503
@Sumon_Early_by_class_L2C         7        13       110         0
@Sumon_Late_by_class_L2C         0         0         0         0

@Sumon_Early_by_cycle_L2C         0         0         0         0         0         0         0        34       675     15449       372        90
@Sumon_Late_by_cycle_L2C         1         0         0         0         0         0         0         0         0         0         0         0
@Sumon_Early_stream_L2C         0         0         0         0         0         0         0         0         0         4         2         1
@Sumon_Early_CS_L2C         0         0         0         0         0         0         0         0         0         1         1        11
@Sumon_Early_CPLX_L2C         0         0         0         0         0         0         0         0         0         1        37        72
@Sumon_Late_stream_L2C         0         0         0         0         0         0         0         0         0         0         0         0
@Sumon_Late_CS_L2C         0         0         0         0         0         0         0         0         0         0         0         0
@Sumon_Late_CPLX_L2C         0         0         0         0         0         0         0         0         0         0         0         0
DRAM PAGES: 1048576
Allocated PAGES: 592
