
*** ChampSim Multicore Out-of-Order Simulator ***

Warmup Instructions: 10000000
Simulation Instructions: 50000000
Number of CPUs: 1
LLC sets: 2048
LLC ways: 16
Off-chip DRAM Size: 4096 MB Channels: 1 Width: 64-bit Data Rate: 6400 MT/s
CPU 0 runs traces/clientserver/server_011.champsimtrace.xz
.xz
CPU 0 Bimodal branch predictor
BTB has LRU replacement policy
ITLB has LRU replacement policy
DTLB has LRU replacement policy
STLB has LRU replacement policy
L1I has LRU replacement policy
IP Table Entries: 256
L1D has LRU replacement policy
IP_Table L2 entries: 256
L2C has LRU replacement policy
Initialize SRRIP state
Heartbeat CPU 0 instructions: 10000002 cycles: 2774464 heartbeat IPC: 3.6043 cumulative IPC: 3.6043 (Simulation time: 0 hr 16 min 9 sec) 

Warmup complete CPU 0 instructions: 10000002 cycles: 2774464 (Simulation time: 0 hr 16 min 9 sec) 

Heartbeat CPU 0 instructions: 20000002 cycles: 24068863 heartbeat IPC: 0.469607 cumulative IPC: 0.469607 (Simulation time: 0 hr 32 min 26 sec) 
Heartbeat CPU 0 instructions: 30000001 cycles: 47007617 heartbeat IPC: 0.435943 cumulative IPC: 0.45215 (Simulation time: 0 hr 49 min 15 sec) 
Heartbeat CPU 0 instructions: 40000000 cycles: 68202024 heartbeat IPC: 0.471823 cumulative IPC: 0.458522 (Simulation time: 1 hr 5 min 16 sec) 
Heartbeat CPU 0 instructions: 50000000 cycles: 89179367 heartbeat IPC: 0.476705 cumulative IPC: 0.462937 (Simulation time: 1 hr 21 min 41 sec) 
Heartbeat CPU 0 instructions: 60000002 cycles: 110129726 heartbeat IPC: 0.477319 cumulative IPC: 0.465743 (Simulation time: 1 hr 37 min 40 sec) 
Finished CPU 0 instructions: 50000000 cycles: 107355262 cumulative IPC: 0.465743 (Simulation time: 1 hr 37 min 40 sec) 

ChampSim completed all CPUs

Region of Interest Statistics

CPU 0 cumulative IPC: 0.465743 instructions: 50000000 cycles: 107355262
ITLB TOTAL     ACCESS:    7963836  HIT:    7766189  MISS:     197647  HIT %:    97.5182  MISS %:    2.48181   MPKI: 3.95294
ITLB LOAD TRANSLATION ACCESS:    7963836  HIT:    7766189  MISS:     197647  HIT %:    97.5182  MISS %:    2.48181   MPKI: 3.95294
ITLB PREFETCH  REQUESTED:          0  ISSUED:          0  USEFUL:          0  USELESS:          0
ITLB USEFUL LOAD PREFETCHES:          0 PREFETCH ISSUED TO LOWER LEVEL:          0  ACCURACY: -nan
ITLB TIMELY PREFETCHES:          0 LATE PREFETCHES: 0 DROPPED PREFETCHES: 0
ITLB PREFETCHES SAME FILL-ORIGIN LEVEL: 0 DIFFERENT FILL-ORIGIN LEVEL: 0
ITLB AVERAGE MISS LATENCY: 18.1746 cycles
ITLB RQ	ACCESS:    9707004	FORWARD:          0	MERGED:    1691328	TO_CACHE:    8015676

DTLB TOTAL     ACCESS:   10112859  HIT:    9467005  MISS:     645854  HIT %:    93.6135  MISS %:    6.38646   MPKI: 12.9171
DTLB LOAD TRANSLATION ACCESS:   10112859  HIT:    9467005  MISS:     645854  HIT %:    93.6135  MISS %:    6.38646   MPKI: 12.9171
DTLB PREFETCH  REQUESTED:          0  ISSUED:          0  USEFUL:          0  USELESS:          0
DTLB USEFUL LOAD PREFETCHES:          0 PREFETCH ISSUED TO LOWER LEVEL:          0  ACCURACY: -nan
DTLB TIMELY PREFETCHES:          0 LATE PREFETCHES: 0 DROPPED PREFETCHES: 0
DTLB PREFETCHES SAME FILL-ORIGIN LEVEL: 0 DIFFERENT FILL-ORIGIN LEVEL: 0
DTLB AVERAGE MISS LATENCY: 15.6576 cycles
DTLB RQ	ACCESS:   12499414	FORWARD:          0	MERGED:    2349117	TO_CACHE:   10150297

STLB TOTAL     ACCESS:    1046135  HIT:     923639  MISS:     122496  HIT %:    88.2906  MISS %:    11.7094   MPKI: 2.44992
STLB LOAD TRANSLATION ACCESS:     843501  HIT:     721005  MISS:     122496  HIT %:    85.4777  MISS %:    14.5223   MPKI: 2.44992
STLB TRANSLATION FROM L1D PREFETCHER ACCESS:     202634  HIT:     202634  MISS:          0  HIT %:        100  MISS %:          0   MPKI: 0
STLB PREFETCH  REQUESTED:          0  ISSUED:          0  USEFUL:          0  USELESS:          0
STLB USEFUL LOAD PREFETCHES:          0 PREFETCH ISSUED TO LOWER LEVEL:          0  ACCURACY: -nan
STLB TIMELY PREFETCHES:          0 LATE PREFETCHES: 0 DROPPED PREFETCHES: 0
STLB PREFETCHES SAME FILL-ORIGIN LEVEL: 0 DIFFERENT FILL-ORIGIN LEVEL: 0
STLB AVERAGE MISS LATENCY: 49.7743 cycles
STLB RQ	ACCESS:    1099697	FORWARD:          0	MERGED:      53562	TO_CACHE:    1046135

STLB Hit, L1D data hit: 0
STLB Hit, L2C data hit: 0
STLB Hit, LLC data hit: 0
STLB Hit, LLC data miss: 0
STLB STLB hints to L2: 0
L1D TOTAL     ACCESS:   12608035  HIT:   11865390  MISS:     742645  HIT %:    94.1097  MISS %:    5.89025   MPKI: 14.8529
L1D LOAD      ACCESS:    7369424  HIT:    6821079  MISS:     548345  HIT %:    92.5592  MISS %:    7.44081   MPKI: 10.9669
L1D RFO       ACCESS:    4998141  HIT:    4907027  MISS:      91114  HIT %:     98.177  MISS %:    1.82296   MPKI: 1.82228
L1D PREFETCH  ACCESS:     240470  HIT:     137284  MISS:     103186  HIT %:    57.0899  MISS %:    42.9101   MPKI: 2.06372
L1D PREFETCH  REQUESTED:     512703  ISSUED:     512506  USEFUL:      31894  USELESS:      71238
L1D USEFUL LOAD PREFETCHES:      31894 PREFETCH ISSUED TO LOWER LEVEL:     110015  ACCURACY: 28.9906
L1D TIMELY PREFETCHES:      31894 LATE PREFETCHES: 6661 DROPPED PREFETCHES: 0
L1D PREFETCHES SAME FILL-ORIGIN LEVEL: 110015 DIFFERENT FILL-ORIGIN LEVEL: 0
L1D AVERAGE MISS LATENCY: 524695 cycles
L1D RQ	ACCESS:   10824295	FORWARD:          0	MERGED:    3347543	TO_CACHE:    7397099
L1D WQ	ACCESS:    5183119	FORWARD:      79767	MERGED:      80804	TO_CACHE:    5102315
L1D PQ	ACCESS:     256310	FORWARD:          0	MERGED:          0	TO_CACHE:     256196

L1D UNIQUE REGIONS ACCESSED: 0
L1D REGIONS CONFLICTS: 0
L1D Cross Page Prefetch Requests: 0
L1D Same Page Prefetch Requests: 302824
L1D ROI Sum of L1D PQ occupancy: 3423235
L1D PREFETCHES PUSHED FROM L2C: 0
L1I TOTAL     ACCESS:    9280362  HIT:    7952893  MISS:    1327469  HIT %:    85.6959  MISS %:    14.3041   MPKI: 26.5494
L1I LOAD      ACCESS:    9280362  HIT:    7952893  MISS:    1327469  HIT %:    85.6959  MISS %:    14.3041   MPKI: 26.5494
L1I PREFETCH  REQUESTED:          0  ISSUED:          0  USEFUL:          0  USELESS:          0
L1I USEFUL LOAD PREFETCHES:          0 PREFETCH ISSUED TO LOWER LEVEL:          0  ACCURACY: -nan
L1I TIMELY PREFETCHES:          0 LATE PREFETCHES: 0 DROPPED PREFETCHES: 0
L1I PREFETCHES SAME FILL-ORIGIN LEVEL: 0 DIFFERENT FILL-ORIGIN LEVEL: 0
L1I AVERAGE MISS LATENCY: 32.2882 cycles
L1I RQ	ACCESS:   13872444	FORWARD:          0	MERGED:    4165440	TO_CACHE:    9707004

BTB TOTAL     ACCESS:    4573598  HIT:    3741206  MISS:     832392  HIT %:    81.8001  MISS %:    18.1999   MPKI: 16.6478
BTB BRANCH_DIRECT_JUMP	ACCESS:     450875  HIT:     384691  MISS:      66184
BTB BRANCH_INDIRECT	ACCESS:     168438  HIT:     124272  MISS:      44166
BTB BRANCH_CONDITIONAL	ACCESS:    2260078  HIT:    1987849  MISS:     272229
BTB BRANCH_DIRECT_CALL	ACCESS:     657205  HIT:     533555  MISS:     123650
BTB BRANCH_INDIRECT_CALL	ACCESS:     172721  HIT:     157063  MISS:      15658
BTB BRANCH_RETURN	ACCESS:     864281  HIT:     553776  MISS:     310505
BTB BRANCH_OTHER ACCESS:          0  HIT:          0  MISS:          0

L2C TOTAL     ACCESS:    2928948  HIT:    1528455  MISS:    1400493  HIT %:    52.1844  MISS %:    47.8156   MPKI: 28.0099
L2C LOAD      ACCESS:    1869129  HIT:     904419  MISS:     964710  HIT %:    48.3872  MISS %:    51.6128   MPKI: 19.2942
L2C DATA LOAD MPKI: 5.32112
L2C INSTRUCTION LOAD MPKI: 13.9731
L2C RFO       ACCESS:      90941  HIT:      37914  MISS:      53027  HIT %:    41.6908  MISS %:    58.3092   MPKI: 1.06054
L2C PREFETCH  ACCESS:     547848  HIT:     240207  MISS:     307641  HIT %:    43.8456  MISS %:    56.1544   MPKI: 6.15282
L2C DATA PREFETCH MPKI: 6.15282
L2C INSTRUCTION PREFETCH MPKI: 0
L2C WRITEBACK ACCESS:     265849  HIT:     262860  MISS:       2989  HIT %:    98.8757  MISS %:    1.12432   MPKI: 0.05978
L2C LOAD TRANSLATION ACCESS:     155181  HIT:      83055  MISS:      72126  HIT %:    53.5214  MISS %:    46.4786   MPKI: 1.44252
L2C PREFETCH  REQUESTED:     468356  ISSUED:     468308  USEFUL:      77040  USELESS:     230612
L2C USEFUL LOAD PREFETCHES:      77040 PREFETCH ISSUED TO LOWER LEVEL:     313821  ACCURACY: 24.549
L2C TIMELY PREFETCHES:      77040 LATE PREFETCHES: 6179 DROPPED PREFETCHES: 0
L2C PREFETCHES SAME FILL-ORIGIN LEVEL: 237546 DIFFERENT FILL-ORIGIN LEVEL: 0
L2C AVERAGE MISS LATENCY: 42.0975 cycles
L2C RQ	ACCESS:    2115285	FORWARD:          0	MERGED:          0	TO_CACHE:    2115251
L2C WQ	ACCESS:     265849	FORWARD:         36	MERGED:          0	TO_CACHE:     265849
L2C PQ	ACCESS:     578319	FORWARD:          0	MERGED:       5840	TO_CACHE:     572477

L2C Instructions Evicting Data 314810
L2C Translations Evicting Data 33520
L2C Data Evicting Data 280242
L2C Instructions Evicting Instructions 348787
L2C Translations Evicting Instructions 34998
L2C Data Evicting Instructions 313175
L2C Instructions Evicting Translations 35057
L2C Translations Evicting Translations 3608
L2C Data Evicting Translations 33307
L2C Dense regions hint from L2: 0
PSCL5 TOTAL     ACCESS:     122496  HIT:     122496  MISS:          0  HIT %:        100  MISS %:          0   MPKI: 0
PSCL5 LOAD TRANSLATION ACCESS:     122496  HIT:     122496  MISS:          0  HIT %:        100  MISS %:          0   MPKI: 0
PSCL5 PREFETCH  REQUESTED:          0  ISSUED:          0  USEFUL:          0  USELESS:          0
PSCL5 USEFUL LOAD PREFETCHES:          0 PREFETCH ISSUED TO LOWER LEVEL:          0  ACCURACY: -nan
PSCL5 TIMELY PREFETCHES:          0 LATE PREFETCHES: 0 DROPPED PREFETCHES: 0
PSCL5 PREFETCHES SAME FILL-ORIGIN LEVEL: 0 DIFFERENT FILL-ORIGIN LEVEL: 0

PSCL4 TOTAL     ACCESS:     118364  HIT:     117973  MISS:        391  HIT %:    99.6697  MISS %:   0.330337   MPKI: 0.00782
PSCL4 LOAD TRANSLATION ACCESS:     118364  HIT:     117973  MISS:        391  HIT %:    99.6697  MISS %:   0.330337   MPKI: 0.00782
PSCL4 PREFETCH  REQUESTED:          0  ISSUED:          0  USEFUL:          0  USELESS:          0
PSCL4 USEFUL LOAD PREFETCHES:          0 PREFETCH ISSUED TO LOWER LEVEL:          0  ACCURACY: -nan
PSCL4 TIMELY PREFETCHES:          0 LATE PREFETCHES: 0 DROPPED PREFETCHES: 0
PSCL4 PREFETCHES SAME FILL-ORIGIN LEVEL: 0 DIFFERENT FILL-ORIGIN LEVEL: 0

PSCL3 TOTAL     ACCESS:     121645  HIT:     120665  MISS:        980  HIT %:    99.1944  MISS %:   0.805623   MPKI: 0.0196
PSCL3 LOAD TRANSLATION ACCESS:     121645  HIT:     120665  MISS:        980  HIT %:    99.1944  MISS %:   0.805623   MPKI: 0.0196
PSCL3 PREFETCH  REQUESTED:          0  ISSUED:          0  USEFUL:          0  USELESS:          0
PSCL3 USEFUL LOAD PREFETCHES:          0 PREFETCH ISSUED TO LOWER LEVEL:          0  ACCURACY: -nan
PSCL3 TIMELY PREFETCHES:          0 LATE PREFETCHES: 0 DROPPED PREFETCHES: 0
PSCL3 PREFETCHES SAME FILL-ORIGIN LEVEL: 0 DIFFERENT FILL-ORIGIN LEVEL: 0

PSCL2 TOTAL     ACCESS:     122496  HIT:      91076  MISS:      31420  HIT %:    74.3502  MISS %:    25.6498   MPKI: 0.6284
PSCL2 LOAD TRANSLATION ACCESS:     122496  HIT:      91076  MISS:      31420  HIT %:    74.3502  MISS %:    25.6498   MPKI: 0.6284
PSCL2 PREFETCH  REQUESTED:          0  ISSUED:          0  USEFUL:          0  USELESS:          0
PSCL2 USEFUL LOAD PREFETCHES:          0 PREFETCH ISSUED TO LOWER LEVEL:          0  ACCURACY: -nan
PSCL2 TIMELY PREFETCHES:          0 LATE PREFETCHES: 0 DROPPED PREFETCHES: 0
PSCL2 PREFETCHES SAME FILL-ORIGIN LEVEL: 0 DIFFERENT FILL-ORIGIN LEVEL: 0

LLC TOTAL     ACCESS:    1571342  HIT:    1456944  MISS:     114398  HIT %:    92.7197  MISS %:    7.28027   MPKI: 2.28796
LLC LOAD      ACCESS:     958710  HIT:     917749  MISS:      40961  HIT %:    95.7275  MISS %:    4.27251   MPKI: 0.81922
LLC RFO       ACCESS:      52847  HIT:      41744  MISS:      11103  HIT %:    78.9903  MISS %:    21.0097   MPKI: 0.22206
LLC PREFETCH  ACCESS:     313820  HIT:     255983  MISS:      57837  HIT %:      81.57  MISS %:      18.43   MPKI: 1.15674
LLC WRITEBACK ACCESS:     173839  HIT:     172183  MISS:       1656  HIT %:    99.0474  MISS %:   0.952606   MPKI: 0.03312
LLC LOAD TRANSLATION ACCESS:      72126  HIT:      69285  MISS:       2841  HIT %:    96.0611  MISS %:    3.93894   MPKI: 0.05682
LLC PREFETCH  REQUESTED:          0  ISSUED:          0  USEFUL:       3699  USELESS:      53691
LLC USEFUL LOAD PREFETCHES:       3699 PREFETCH ISSUED TO LOWER LEVEL:      57838  ACCURACY: 6.39545
LLC TIMELY PREFETCHES:       3699 LATE PREFETCHES: 0 DROPPED PREFETCHES: 0
LLC PREFETCHES SAME FILL-ORIGIN LEVEL: 0 DIFFERENT FILL-ORIGIN LEVEL: 0
LLC AVERAGE MISS LATENCY: 150.902 cycles
LLC RQ	ACCESS:    1083684	FORWARD:          0	MERGED:          0	TO_CACHE:    1083683
LLC WQ	ACCESS:     173839	FORWARD:          1	MERGED:          0	TO_CACHE:     173839
LLC PQ	ACCESS:     313821	FORWARD:          0	MERGED:          0	TO_CACHE:     313821

LLC Dense regions hint to LLC: 0

RAW hits: 782098
Loads Generated: 11606405
Loads sent to L1D: 10824295
Stores Generated: 5183116
Stores sent to L1D: 5183119
Major fault: 0 Minor fault: 6190
Allocated PAGES: 6190

stream: 
stream:times selected: 448704
stream:pref_filled: 72449
stream:pref_useful: 20836
stream:pref_late: 3085
stream:misses: 6281
stream:misses_by_poll: 0

CS: 
CS:times selected: 27261
CS:pref_filled: 15243
CS:pref_useful: 11069
CS:pref_late: 3122
CS:misses: 4800
CS:misses_by_poll: 19

CPLX: 
CPLX:times selected: 417666
CPLX:pref_filled: 29815
CPLX:pref_useful: 4342
CPLX:pref_late: 448
CPLX:misses: 32834
CPLX:misses_by_poll: 2

NL_L1: 
NL:times selected: 3426
NL:pref_filled: 1139
NL:pref_useful: 91
NL:pref_late: 14
NL:misses: 362
NL:misses_by_poll: 0

total selections: 897057
total_filled: 103186
total_useful: 31894
total_late: 7102
total_polluted: 21
total_misses_after_warmup: 576024
conflicts: 2502942
Degree Incremented Times: 5
Degree Decremented Times: 103898

L1 IP Table Write Accesses: 4401197
L1 IP Table Read Accesses: 1898255
L1 RST Write Accesses: 383034
L1 RST Read Accesses: 766068
L1 CSPT Write Accesses: 383034
L1 CSPT Read Accesses: 739526
L1 RR Filter Tag Write Accesses: 256507
L1 RR Filter Tag Read Accesses: 15821002
L1 IP Table Tag Write Accesses: 7397103
L1 IP Table Tag Read Accesses: 7397103
L1 RST Tag Write Accesses: 0
L1 RST Tag Read Accesses: 3734051
L1 RR Filter Write Accesses: 0
L1 RR Filter Read Accesses: 568677
test: 125328
L2 IP Table Read Accesses: 817586
L2 IP Table Write Accesses: 1149251
L2 IP Table Tag Read Accesses: 646029
L2 IP Table Tag Write Accesses: 646029

DRAM Statistics
 CHANNEL 0
 RQ ROW_BUFFER_HIT:      23975  ROW_BUFFER_MISS:      88767
 DBUS_CONGESTED:         67
 WQ ROW_BUFFER_HIT:       8829  ROW_BUFFER_MISS:      45729  FULL:          0

 AVG_CONGESTED_CYCLE: 4
 All warmup complete: 2
Channel 0 Bank busy for read cycles: 0
Channel 0 Bank busy for write cycles: 0
Channel 0
Rank 0
0banks busy for read cycles: 90607046
0banks busy for write cycles: 28797
1banks busy for read cycles: 7898463
1banks busy for write cycles: 4004904
2banks busy for read cycles: 2043261
2banks busy for write cycles: 1086239
3banks busy for read cycles: 481161
3banks busy for write cycles: 402809
4banks busy for read cycles: 153035
4banks busy for write cycles: 209183
5banks busy for read cycles: 40061
5banks busy for write cycles: 124024
6banks busy for read cycles: 17639
6banks busy for write cycles: 86043
7banks busy for read cycles: 8217
7banks busy for write cycles: 72880
8banks busy for read cycles: 14077
8banks busy for write cycles: 77424

CPU 0 Branch Prediction Accuracy: 92.8558% MPKI: 13.3034 Average ROB Occupancy at Mispredict: 21.241
Branch types
NOT_BRANCH: 40689139 81.3783%
BRANCH_DIRECT_JUMP: 450875 0.90175%
BRANCH_INDIRECT: 168438 0.336876%
BRANCH_CONDITIONAL: 6997104 13.9942%
BRANCH_DIRECT_CALL: 657205 1.31441%
BRANCH_INDIRECT_CALL: 172721 0.345442%
BRANCH_RETURN: 864281 1.72856%
BRANCH_OTHER: 0 0%

@sumon_overall_L1D     31894      6661     71238    103186    512506    512703
@Sumon_Early_by_class_L1D     17258      9106      3663        12
@Sumon_Late_by_class_L1D      2840      3007       406        12

@Sumon_Early_by_cycle_L1D      7077      3515      6426      2053      1437      3977      1624      1454      1359      2106       643       223
@Sumon_Late_by_cycle_L1D      5987       668         6         0         0         0         0         0         0         0         0         0
@Sumon_Early_stream_L1D      3387      1886      2362      1413       804      2299      1084      1000       938      1451       469       165
@Sumon_Early_CS_L1D      2796      1035      3519       198       224       837       233       146        66        30        16         6
@Sumon_Early_CPLX_L1D       438       379       363       260       214       604       260       256       299       438       114        38
@Sumon_Late_stream_L1D      2380       455         5         0         0         0         0         0         0         0         0         0
@Sumon_Late_CS_L1D      2865       142         0         0         0         0         0         0         0         0         0         0
@Sumon_Late_CPLX_L1D       365        40         1         0         0         0         0         0         0         0         0         0
@sumon_overall_L2C     77040      6179    230612    307641    468308    468356
@Sumon_Early_by_class_L2C      1356       468       585         0
@Sumon_Late_by_class_L2C         0         6         0         0

@Sumon_Early_by_cycle_L2C     13186      8685      9141      5567      4116     11050      5557      3802      2739      2785      2074      8338
@Sumon_Late_by_cycle_L2C      4650      1525         4         0         0         0         0         0         0         0         0         0
@Sumon_Early_stream_L2C         0         0         0         0         0         0         0         0         1        17       105      1233
@Sumon_Early_CS_L2C         7         1        30         3         2         4         3         3         1         4        36       374
@Sumon_Early_CPLX_L2C         0         0         0         0         0         0         0         0         0         7        37       541
@Sumon_Late_stream_L2C         0         0         0         0         0         0         0         0         0         0         0         0
@Sumon_Late_CS_L2C         6         0         0         0         0         0         0         0         0         0         0         0
@Sumon_Late_CPLX_L2C         0         0         0         0         0         0         0         0         0         0         0         0
DRAM PAGES: 1048576
Allocated PAGES: 6190
