
*** ChampSim Multicore Out-of-Order Simulator ***

Warmup Instructions: 10000000
Simulation Instructions: 50000000
Number of CPUs: 1
LLC sets: 2048
LLC ways: 16
Off-chip DRAM Size: 4096 MB Channels: 1 Width: 64-bit Data Rate: 6400 MT/s
CPU 0 runs traces/clientserver/server_027.champsimtrace.xz
.xz
CPU 0 Bimodal branch predictor
BTB has LRU replacement policy
ITLB has LRU replacement policy
DTLB has LRU replacement policy
STLB has LRU replacement policy
L1I has LRU replacement policy
IP Table Entries: 256
L1D has LRU replacement policy
IP_Table L2 entries: 256
L2C has LRU replacement policy
Initialize SRRIP state
Heartbeat CPU 0 instructions: 10000000 cycles: 2886850 heartbeat IPC: 3.46398 cumulative IPC: 3.46398 (Simulation time: 0 hr 18 min 26 sec) 

Warmup complete CPU 0 instructions: 10000004 cycles: 2886851 (Simulation time: 0 hr 18 min 26 sec) 

Heartbeat CPU 0 instructions: 20000001 cycles: 28086218 heartbeat IPC: 0.396835 cumulative IPC: 0.396835 (Simulation time: 0 hr 35 min 55 sec) 
Heartbeat CPU 0 instructions: 30000001 cycles: 53193609 heartbeat IPC: 0.398289 cumulative IPC: 0.397561 (Simulation time: 0 hr 53 min 10 sec) 
Heartbeat CPU 0 instructions: 40000001 cycles: 78297708 heartbeat IPC: 0.398341 cumulative IPC: 0.397821 (Simulation time: 1 hr 10 min 28 sec) 
Heartbeat CPU 0 instructions: 50000000 cycles: 103390516 heartbeat IPC: 0.398521 cumulative IPC: 0.397995 (Simulation time: 1 hr 27 min 47 sec) 
Heartbeat CPU 0 instructions: 60000002 cycles: 128593652 heartbeat IPC: 0.396776 cumulative IPC: 0.397751 (Simulation time: 1 hr 41 min 55 sec) 
Finished CPU 0 instructions: 50000001 cycles: 125706807 cumulative IPC: 0.397751 (Simulation time: 1 hr 41 min 55 sec) 

ChampSim completed all CPUs

Region of Interest Statistics

CPU 0 cumulative IPC: 0.397751 instructions: 50000001 cycles: 125706807
ITLB TOTAL     ACCESS:    8422586  HIT:    7931766  MISS:     490820  HIT %:    94.1726  MISS %:    5.82743   MPKI: 9.8164
ITLB LOAD TRANSLATION ACCESS:    8422586  HIT:    7931766  MISS:     490820  HIT %:    94.1726  MISS %:    5.82743   MPKI: 9.8164
ITLB PREFETCH  REQUESTED:          0  ISSUED:          0  USEFUL:          0  USELESS:          0
ITLB USEFUL LOAD PREFETCHES:          0 PREFETCH ISSUED TO LOWER LEVEL:          0  ACCURACY: -nan
ITLB TIMELY PREFETCHES:          0 LATE PREFETCHES: 0 DROPPED PREFETCHES: 0
ITLB PREFETCHES SAME FILL-ORIGIN LEVEL: 0 DIFFERENT FILL-ORIGIN LEVEL: 0
ITLB AVERAGE MISS LATENCY: 9.065 cycles
ITLB RQ	ACCESS:   10058613	FORWARD:          0	MERGED:    1512364	TO_CACHE:    8546249

DTLB TOTAL     ACCESS:   12632377  HIT:   12157113  MISS:     475264  HIT %:    96.2377  MISS %:    3.76227   MPKI: 9.50528
DTLB LOAD TRANSLATION ACCESS:   12632377  HIT:   12157113  MISS:     475264  HIT %:    96.2377  MISS %:    3.76227   MPKI: 9.50528
DTLB PREFETCH  REQUESTED:          0  ISSUED:          0  USEFUL:          0  USELESS:          0
DTLB USEFUL LOAD PREFETCHES:          0 PREFETCH ISSUED TO LOWER LEVEL:          0  ACCURACY: -nan
DTLB TIMELY PREFETCHES:          0 LATE PREFETCHES: 0 DROPPED PREFETCHES: 0
DTLB PREFETCHES SAME FILL-ORIGIN LEVEL: 0 DIFFERENT FILL-ORIGIN LEVEL: 0
DTLB AVERAGE MISS LATENCY: 9.39951 cycles
DTLB RQ	ACCESS:   15747783	FORWARD:          0	MERGED:    3095412	TO_CACHE:   12652371

STLB TOTAL     ACCESS:    1383563  HIT:    1381253  MISS:       2310  HIT %:     99.833  MISS %:    0.16696   MPKI: 0.0462
STLB LOAD TRANSLATION ACCESS:     966084  HIT:     963774  MISS:       2310  HIT %:    99.7609  MISS %:    0.23911   MPKI: 0.0462
STLB TRANSLATION FROM L1D PREFETCHER ACCESS:     417479  HIT:     417479  MISS:          0  HIT %:        100  MISS %:          0   MPKI: 0
STLB PREFETCH  REQUESTED:          0  ISSUED:          0  USEFUL:          0  USELESS:          0
STLB USEFUL LOAD PREFETCHES:          0 PREFETCH ISSUED TO LOWER LEVEL:          0  ACCURACY: -nan
STLB TIMELY PREFETCHES:          0 LATE PREFETCHES: 0 DROPPED PREFETCHES: 0
STLB PREFETCHES SAME FILL-ORIGIN LEVEL: 0 DIFFERENT FILL-ORIGIN LEVEL: 0
STLB AVERAGE MISS LATENCY: 92.1333 cycles
STLB RQ	ACCESS:    1499291	FORWARD:          0	MERGED:     115728	TO_CACHE:    1383563

STLB Hit, L1D data hit: 0
STLB Hit, L2C data hit: 0
STLB Hit, LLC data hit: 0
STLB Hit, LLC data miss: 0
STLB STLB hints to L2: 0
L1D TOTAL     ACCESS:   15762832  HIT:   14606626  MISS:    1156206  HIT %:     92.665  MISS %:    7.33501   MPKI: 23.1241
L1D LOAD      ACCESS:    8823748  HIT:    8111882  MISS:     711866  HIT %:    91.9324  MISS %:    8.06761   MPKI: 14.2373
L1D RFO       ACCESS:    6439462  HIT:    6144944  MISS:     294518  HIT %:    95.4264  MISS %:    4.57364   MPKI: 5.89036
L1D PREFETCH  ACCESS:     499622  HIT:     349800  MISS:     149822  HIT %:    70.0129  MISS %:    29.9871   MPKI: 2.99644
L1D PREFETCH  REQUESTED:    1066612  ISSUED:    1066612  USEFUL:      46233  USELESS:     103607
L1D USEFUL LOAD PREFETCHES:      46233 PREFETCH ISSUED TO LOWER LEVEL:     171397  ACCURACY: 26.9742
L1D TIMELY PREFETCHES:      46233 LATE PREFETCHES: 21038 DROPPED PREFETCHES: 0
L1D PREFETCHES SAME FILL-ORIGIN LEVEL: 171397 DIFFERENT FILL-ORIGIN LEVEL: 0
L1D AVERAGE MISS LATENCY: 1.20997e+06 cycles
L1D RQ	ACCESS:   12113213	FORWARD:          0	MERGED:    3143638	TO_CACHE:    8855556
L1D WQ	ACCESS:    6938884	FORWARD:     114217	MERGED:      46657	TO_CACHE:    6892227
L1D PQ	ACCESS:     533405	FORWARD:          0	MERGED:          0	TO_CACHE:     533207

L1D UNIQUE REGIONS ACCESSED: 0
L1D REGIONS CONFLICTS: 0
L1D Cross Page Prefetch Requests: 0
L1D Same Page Prefetch Requests: 637538
L1D ROI Sum of L1D PQ occupancy: 6840704
L1D PREFETCHES PUSHED FROM L2C: 0
L1I TOTAL     ACCESS:    9599192  HIT:    6850630  MISS:    2748562  HIT %:    71.3667  MISS %:    28.6333   MPKI: 54.9712
L1I LOAD      ACCESS:    9599192  HIT:    6850630  MISS:    2748562  HIT %:    71.3667  MISS %:    28.6333   MPKI: 54.9712
L1I PREFETCH  REQUESTED:          0  ISSUED:          0  USEFUL:          0  USELESS:          0
L1I USEFUL LOAD PREFETCHES:          0 PREFETCH ISSUED TO LOWER LEVEL:          0  ACCURACY: -nan
L1I TIMELY PREFETCHES:          0 LATE PREFETCHES: 0 DROPPED PREFETCHES: 0
L1I PREFETCHES SAME FILL-ORIGIN LEVEL: 0 DIFFERENT FILL-ORIGIN LEVEL: 0
L1I AVERAGE MISS LATENCY: 18.7595 cycles
L1I RQ	ACCESS:   13827152	FORWARD:          0	MERGED:    3768539	TO_CACHE:   10058613

BTB TOTAL     ACCESS:    5994310  HIT:    3988077  MISS:    2006233  HIT %:     66.531  MISS %:     33.469   MPKI: 40.1247
BTB BRANCH_DIRECT_JUMP	ACCESS:     527013  HIT:     350195  MISS:     176818
BTB BRANCH_INDIRECT	ACCESS:     206168  HIT:     168860  MISS:      37308
BTB BRANCH_CONDITIONAL	ACCESS:    3044122  HIT:    2482259  MISS:     561863
BTB BRANCH_DIRECT_CALL	ACCESS:     934907  HIT:     527457  MISS:     407450
BTB BRANCH_INDIRECT_CALL	ACCESS:     173595  HIT:      94867  MISS:      78728
BTB BRANCH_RETURN	ACCESS:    1108505  HIT:     364439  MISS:     744066
BTB BRANCH_OTHER ACCESS:          0  HIT:          0  MISS:          0

L2C TOTAL     ACCESS:    5019341  HIT:    4251409  MISS:     767932  HIT %:    84.7005  MISS %:    15.2995   MPKI: 15.3586
L2C LOAD      ACCESS:    3439387  HIT:    2907277  MISS:     532110  HIT %:    84.5289  MISS %:    15.4711   MPKI: 10.6422
L2C DATA LOAD MPKI: 2.21738
L2C INSTRUCTION LOAD MPKI: 8.42482
L2C RFO       ACCESS:     293980  HIT:     207849  MISS:      86131  HIT %:    70.7017  MISS %:    29.2983   MPKI: 1.72262
L2C PREFETCH  ACCESS:     758555  HIT:     617405  MISS:     141150  HIT %:    81.3923  MISS %:    18.6077   MPKI: 2.823
L2C DATA PREFETCH MPKI: 2.823
L2C INSTRUCTION PREFETCH MPKI: 0
L2C WRITEBACK ACCESS:     524935  HIT:     518234  MISS:       6701  HIT %:    98.7235  MISS %:    1.27654   MPKI: 0.13402
L2C LOAD TRANSLATION ACCESS:       2484  HIT:        644  MISS:       1840  HIT %:    25.9259  MISS %:    74.0741   MPKI: 0.0368
L2C PREFETCH  REQUESTED:     601383  ISSUED:     601383  USEFUL:      25765  USELESS:     115450
L2C USEFUL LOAD PREFETCHES:      25765 PREFETCH ISSUED TO LOWER LEVEL:     144577  ACCURACY: 17.821
L2C TIMELY PREFETCHES:      25765 LATE PREFETCHES: 3427 DROPPED PREFETCHES: 0
L2C PREFETCHES SAME FILL-ORIGIN LEVEL: 91901 DIFFERENT FILL-ORIGIN LEVEL: 0
L2C AVERAGE MISS LATENCY: 34.8629 cycles
L2C RQ	ACCESS:    3735856	FORWARD:          0	MERGED:          0	TO_CACHE:    3735852
L2C WQ	ACCESS:     524935	FORWARD:          9	MERGED:          0	TO_CACHE:     524935
L2C PQ	ACCESS:     772780	FORWARD:          0	MERGED:       5665	TO_CACHE:     767110

L2C Instructions Evicting Data 167704
L2C Translations Evicting Data 1272
L2C Data Evicting Data 173567
L2C Instructions Evicting Instructions 252898
L2C Translations Evicting Instructions 560
L2C Data Evicting Instructions 163401
L2C Instructions Evicting Translations 639
L2C Translations Evicting Translations 8
L2C Data Evicting Translations 1178
L2C Dense regions hint from L2: 0
PSCL5 TOTAL     ACCESS:       2310  HIT:       2310  MISS:          0  HIT %:        100  MISS %:          0   MPKI: 0
PSCL5 LOAD TRANSLATION ACCESS:       2310  HIT:       2310  MISS:          0  HIT %:        100  MISS %:          0   MPKI: 0
PSCL5 PREFETCH  REQUESTED:          0  ISSUED:          0  USEFUL:          0  USELESS:          0
PSCL5 USEFUL LOAD PREFETCHES:          0 PREFETCH ISSUED TO LOWER LEVEL:          0  ACCURACY: -nan
PSCL5 TIMELY PREFETCHES:          0 LATE PREFETCHES: 0 DROPPED PREFETCHES: 0
PSCL5 PREFETCHES SAME FILL-ORIGIN LEVEL: 0 DIFFERENT FILL-ORIGIN LEVEL: 0

PSCL4 TOTAL     ACCESS:       2074  HIT:       2051  MISS:         23  HIT %:     98.891  MISS %:    1.10897   MPKI: 0.00046
PSCL4 LOAD TRANSLATION ACCESS:       2074  HIT:       2051  MISS:         23  HIT %:     98.891  MISS %:    1.10897   MPKI: 0.00046
PSCL4 PREFETCH  REQUESTED:          0  ISSUED:          0  USEFUL:          0  USELESS:          0
PSCL4 USEFUL LOAD PREFETCHES:          0 PREFETCH ISSUED TO LOWER LEVEL:          0  ACCURACY: -nan
PSCL4 TIMELY PREFETCHES:          0 LATE PREFETCHES: 0 DROPPED PREFETCHES: 0
PSCL4 PREFETCHES SAME FILL-ORIGIN LEVEL: 0 DIFFERENT FILL-ORIGIN LEVEL: 0

PSCL3 TOTAL     ACCESS:       2130  HIT:       2106  MISS:         24  HIT %:    98.8732  MISS %:    1.12676   MPKI: 0.00048
PSCL3 LOAD TRANSLATION ACCESS:       2130  HIT:       2106  MISS:         24  HIT %:    98.8732  MISS %:    1.12676   MPKI: 0.00048
PSCL3 PREFETCH  REQUESTED:          0  ISSUED:          0  USEFUL:          0  USELESS:          0
PSCL3 USEFUL LOAD PREFETCHES:          0 PREFETCH ISSUED TO LOWER LEVEL:          0  ACCURACY: -nan
PSCL3 TIMELY PREFETCHES:          0 LATE PREFETCHES: 0 DROPPED PREFETCHES: 0
PSCL3 PREFETCHES SAME FILL-ORIGIN LEVEL: 0 DIFFERENT FILL-ORIGIN LEVEL: 0

PSCL2 TOTAL     ACCESS:       2310  HIT:       2175  MISS:        135  HIT %:    94.1558  MISS %:    5.84416   MPKI: 0.0027
PSCL2 LOAD TRANSLATION ACCESS:       2310  HIT:       2175  MISS:        135  HIT %:    94.1558  MISS %:    5.84416   MPKI: 0.0027
PSCL2 PREFETCH  REQUESTED:          0  ISSUED:          0  USEFUL:          0  USELESS:          0
PSCL2 USEFUL LOAD PREFETCHES:          0 PREFETCH ISSUED TO LOWER LEVEL:          0  ACCURACY: -nan
PSCL2 TIMELY PREFETCHES:          0 LATE PREFETCHES: 0 DROPPED PREFETCHES: 0
PSCL2 PREFETCHES SAME FILL-ORIGIN LEVEL: 0 DIFFERENT FILL-ORIGIN LEVEL: 0

LLC TOTAL     ACCESS:     899259  HIT:     867302  MISS:      31957  HIT %:    96.4463  MISS %:     3.5537   MPKI: 0.63914
LLC LOAD      ACCESS:     528877  HIT:     523953  MISS:       4924  HIT %:     99.069  MISS %:   0.931029   MPKI: 0.09848
LLC RFO       ACCESS:      85937  HIT:      70410  MISS:      15527  HIT %:    81.9321  MISS %:    18.0679   MPKI: 0.31054
LLC PREFETCH  ACCESS:     144577  HIT:     133411  MISS:      11166  HIT %:    92.2768  MISS %:    7.72322   MPKI: 0.22332
LLC WRITEBACK ACCESS:     138028  HIT:     137875  MISS:        153  HIT %:    99.8892  MISS %:   0.110847   MPKI: 0.00306
LLC LOAD TRANSLATION ACCESS:       1840  HIT:       1653  MISS:        187  HIT %:     89.837  MISS %:     10.163   MPKI: 0.00374
LLC PREFETCH  REQUESTED:          0  ISSUED:          0  USEFUL:        964  USELESS:       8220
LLC USEFUL LOAD PREFETCHES:        964 PREFETCH ISSUED TO LOWER LEVEL:      11166  ACCURACY: 8.63335
LLC TIMELY PREFETCHES:        964 LATE PREFETCHES: 0 DROPPED PREFETCHES: 0
LLC PREFETCHES SAME FILL-ORIGIN LEVEL: 0 DIFFERENT FILL-ORIGIN LEVEL: 0
LLC AVERAGE MISS LATENCY: 122.384 cycles
LLC RQ	ACCESS:     616654	FORWARD:          0	MERGED:          0	TO_CACHE:     616654
LLC WQ	ACCESS:     138028	FORWARD:          0	MERGED:          0	TO_CACHE:     138028
LLC PQ	ACCESS:     144577	FORWARD:          0	MERGED:          0	TO_CACHE:     144577

LLC Dense regions hint to LLC: 0

RAW hits: 527374
Loads Generated: 12640584
Loads sent to L1D: 12113213
Stores Generated: 6938885
Stores sent to L1D: 6938884
Major fault: 0 Minor fault: 2251
Allocated PAGES: 2251

stream: 
stream:times selected: 1023074
stream:pref_filled: 102283
stream:pref_useful: 18685
stream:pref_late: 15896
stream:misses: 5531
stream:misses_by_poll: 0

CS: 
CS:times selected: 132778
CS:pref_filled: 49857
CS:pref_useful: 31514
CS:pref_late: 3633
CS:misses: 7034
CS:misses_by_poll: 15

CPLX: 
CPLX:times selected: 888247
CPLX:pref_filled: 22679
CPLX:pref_useful: 4039
CPLX:pref_late: 1350
CPLX:misses: 63458
CPLX:misses_by_poll: 1

NL_L1: 
NL:times selected: 6026
NL:pref_filled: 587
NL:pref_useful: 73
NL:pref_late: 5
NL:misses: 100
NL:misses_by_poll: 0

total selections: 2050125
total_filled: 149822
total_useful: 46233
total_late: 22310
total_polluted: 16
total_misses_after_warmup: 743676
conflicts: 3256183
Degree Incremented Times: 0
Degree Decremented Times: 222585

L1 IP Table Write Accesses: 5301747
L1 IP Table Read Accesses: 2045564
L1 RST Write Accesses: 860618
L1 RST Read Accesses: 1721236
L1 CSPT Write Accesses: 860618
L1 CSPT Read Accesses: 1606672
L1 RR Filter Tag Write Accesses: 533405
L1 RR Filter Tag Read Accesses: 38371313
L1 IP Table Tag Write Accesses: 8855558
L1 IP Table Tag Read Accesses: 8855558
L1 RST Tag Write Accesses: 0
L1 RST Tag Read Accesses: 7577244
L1 RR Filter Write Accesses: 0
L1 RR Filter Read Accesses: 1413254
test: 148676
L2 IP Table Read Accesses: 1105792
L2 IP Table Write Accesses: 1542625
L2 IP Table Tag Read Accesses: 856938
L2 IP Table Tag Write Accesses: 856938

DRAM Statistics
 CHANNEL 0
 RQ ROW_BUFFER_HIT:      17666  ROW_BUFFER_MISS:      14138
 DBUS_CONGESTED:          2
 WQ ROW_BUFFER_HIT:        405  ROW_BUFFER_MISS:       3746  FULL:          0

 AVG_CONGESTED_CYCLE: 5
 All warmup complete: 2
Channel 0 Bank busy for read cycles: 0
Channel 0 Bank busy for write cycles: 0
Channel 0
Rank 0
0banks busy for read cycles: 123901145
0banks busy for write cycles: 1608
1banks busy for read cycles: 690284
1banks busy for write cycles: 214955
2banks busy for read cycles: 471033
2banks busy for write cycles: 57362
3banks busy for read cycles: 87333
3banks busy for write cycles: 24715
4banks busy for read cycles: 72323
4banks busy for write cycles: 14213
5banks busy for read cycles: 34600
5banks busy for write cycles: 12503
6banks busy for read cycles: 26974
6banks busy for write cycles: 7616
7banks busy for read cycles: 21835
7banks busy for write cycles: 10137
8banks busy for read cycles: 41836
8banks busy for write cycles: 16336

CPU 0 Branch Prediction Accuracy: 91.5131% MPKI: 15.508 Average ROB Occupancy at Mispredict: 17.2152
Branch types
NOT_BRANCH: 40863273 81.7265%
BRANCH_DIRECT_JUMP: 527013 1.05403%
BRANCH_INDIRECT: 206168 0.412336%
BRANCH_CONDITIONAL: 6186185 12.3724%
BRANCH_DIRECT_CALL: 934907 1.86981%
BRANCH_INDIRECT_CALL: 173595 0.34719%
BRANCH_RETURN: 1108505 2.21701%
BRANCH_OTHER: 0 0%

@sumon_overall_L1D     46233     21038    103607    149822   1066612   1066612
@Sumon_Early_by_class_L1D     15103     26844      3272         2
@Sumon_Late_by_class_L1D     15161      3385      1121         2

@Sumon_Early_by_cycle_L1D     31737      3435      1934       843       280      1344       921      1500      1131      2296       719        93
@Sumon_Late_by_cycle_L1D     20334       698         6         0         0         0         0         0         0         0         0         0
@Sumon_Early_stream_L1D      6122      1582      1206       675       159       962       576       971       781      1401       576        92
@Sumon_Early_CS_L1D     24267      1582       559        82         1        35         7       280         0        27         4         0
@Sumon_Early_CPLX_L1D      1202       185       146        70       118       336       238       220       199       420       137         1
@Sumon_Late_stream_L1D     14839       322         0         0         0         0         0         0         0         0         0         0
@Sumon_Late_CS_L1D      3011       368         6         0         0         0         0         0         0         0         0         0
@Sumon_Late_CPLX_L1D      1114         7         0         0         0         0         0         0         0         0         0         0
@sumon_overall_L2C     25765      3427    115450    141150    601383    601383
@Sumon_Early_by_class_L2C      1938       137       463         0
@Sumon_Late_by_class_L2C         0         0         0         0

@Sumon_Early_by_cycle_L2C      4834      2758      1975      1479       702      2320      2613      1396       912       411      1251      5114
@Sumon_Late_by_cycle_L2C      3127       300         0         0         0         0         0         0         0         0         0         0
@Sumon_Early_stream_L2C         0         0         0         0         0         0         0         0         0        17       156      1765
@Sumon_Early_CS_L2C         0         0         0         0         0         0         0         0         0         0         0       137
@Sumon_Early_CPLX_L2C         0         0         0         0         0         0         0         0         0         0        23       440
@Sumon_Late_stream_L2C         0         0         0         0         0         0         0         0         0         0         0         0
@Sumon_Late_CS_L2C         0         0         0         0         0         0         0         0         0         0         0         0
@Sumon_Late_CPLX_L2C         0         0         0         0         0         0         0         0         0         0         0         0
DRAM PAGES: 1048576
Allocated PAGES: 2251
