
*** ChampSim Multicore Out-of-Order Simulator ***

Warmup Instructions: 50000000
Simulation Instructions: 50000000
Number of CPUs: 1
LLC sets: 2048
LLC ways: 16
Off-chip DRAM Size: 4096 MB Channels: 1 Width: 64-bit Data Rate: 6400 MT/s
CPU 0 runs ../../biswa/SPEC2017Traces/607.cactuBSSN_s-4004B.champsimtrace.xz
.xz
CPU 0 Bimodal branch predictor
BTB has LRU replacement policy
ITLB has LRU replacement policy
DTLB has LRU replacement policy
STLB has LRU replacement policy
L1I has LRU replacement policy
L1D has LRU replacement policy
Bingo PHT WAYS: 16 and PHT_SIZE: 16384
Initialize DRRIP state for L2C
Initialize DRRIP state for LLC
epoch: 1000
next table: 30173
cur table: 68066
epoch: 1000
next table: 22719
cur table: 30173
epoch: 1000
next table: 24087
cur table: 22719
epoch: 1000
next table: 24814
cur table: 24087
epoch: 1000
next table: 25332
cur table: 24814
epoch: 1000
next table: 16850
cur table: 25332
epoch: 1000
next table: 22416
cur table: 16850
epoch: 1000
next table: 22580
cur table: 22416
epoch: 1000
next table: 23140
cur table: 22580
epoch: 1000
next table: 18332
cur table: 23140
epoch: 1000
next table: 23375
cur table: 18332
epoch: 1000
next table: 23792
cur table: 23375
epoch: 1000
next table: 27157
cur table: 23792
epoch: 1000
next table: 19460
cur table: 27157
epoch: 1000
next table: 22771
cur table: 19460
epoch: 1000
next table: 22989
cur table: 22771
epoch: 1000
next table: 20881
cur table: 22989
epoch: 1000
next table: 21027
cur table: 20881
epoch: 1000
next table: 20451
cur table: 21027
epoch: 1000
next table: 21586
cur table: 20451
epoch: 1000
next table: 22195
cur table: 21586
epoch: 1000
next table: 23466
cur table: 22195
epoch: 1000
next table: 14219
cur table: 23466
epoch: 1000
next table: 20009
cur table: 14219
epoch: 1000
next table: 22267
cur table: 20009
epoch: 1000
next table: 21411
cur table: 22267
epoch: 1000
next table: 20547
cur table: 21411
epoch: 1000
next table: 15694
cur table: 20547
epoch: 1000
next table: 22729
cur table: 15694
epoch: 1000
next table: 22353
cur table: 22729
epoch: 1000
next table: 20841
cur table: 22353
epoch: 1000
next table: 20748
cur table: 20841
epoch: 1000
next table: 19767
cur table: 20748
epoch: 1000
next table: 20419
cur table: 19767
epoch: 1000
next table: 20958
cur table: 20419
epoch: 1000
next table: 25804
cur table: 20958
epoch: 1000
next table: 21006
cur table: 25804
epoch: 1000
next table: 22997
cur table: 21006
epoch: 1000
next table: 27329
cur table: 22997
epoch: 1000
next table: 24700
cur table: 27329
epoch: 1000
next table: 22146
cur table: 24700
epoch: 1000
next table: 27165
cur table: 22146
epoch: 1000
next table: 27327
cur table: 27165
Heartbeat CPU 0 instructions: 10000001 cycles: 3597206 heartbeat IPC: 2.77994 cumulative IPC: 2.77994 (Simulation time: 0 hr 6 min 16 sec) 
epoch: 1000
next table: 4821
cur table: 38000
epoch: 1000
next table: 22994
cur table: 27327
epoch: 1000
next table: 23332
cur table: 22994
epoch: 1000
next table: 19546
cur table: 23332
epoch: 1000
next table: 26661
cur table: 19546
epoch: 1000
next table: 3444
cur table: 4821
epoch: 1000
next table: 24432
cur table: 26661
epoch: 1000
next table: 18404
cur table: 24432
epoch: 1000
next table: 2540
cur table: 3444
epoch: 1000
next table: 22414
cur table: 18404
epoch: 1000
next table: 22928
cur table: 22414
epoch: 1000
next table: 2427
cur table: 2540
epoch: 1000
next table: 22518
cur table: 22928
epoch: 1000
next table: 15382
cur table: 22518
epoch: 1000
next table: 2412
cur table: 2427
epoch: 1000
next table: 20976
cur table: 15382
epoch: 1000
next table: 22960
cur table: 20976
epoch: 1000
next table: 2315
cur table: 2412
epoch: 1000
next table: 20660
cur table: 22960
epoch: 1000
next table: 18556
cur table: 20660
epoch: 1000
next table: 2318
cur table: 2315
epoch: 1000
next table: 19612
cur table: 18556
epoch: 1000
next table: 18576
cur table: 19612
epoch: 1000
next table: 2397
cur table: 2318
epoch: 1000
next table: 18508
cur table: 18576
epoch: 1000
next table: 22599
cur table: 18508
epoch: 1000
next table: 2252
cur table: 2397
epoch: 1000
next table: 21698
cur table: 22599
epoch: 1000
next table: 16462
cur table: 21698
epoch: 1000
next table: 2228
cur table: 2252
epoch: 1000
next table: 18619
cur table: 16462
epoch: 1000
next table: 22515
cur table: 18619
epoch: 1000
next table: 2278
cur table: 2228
epoch: 1000
next table: 19494
cur table: 22515
epoch: 1000
next table: 19709
cur table: 19494
epoch: 1000
next table: 2350
cur table: 2278
epoch: 1000
next table: 17527
cur table: 19709
epoch: 1000
next table: 21906
cur table: 17527
epoch: 1000
next table: 2251
cur table: 2350
epoch: 1000
next table: 19605
cur table: 21906
epoch: 1000
next table: 19022
cur table: 19605
epoch: 1000
next table: 2267
cur table: 2251
epoch: 1000
next table: 21818
cur table: 19022
epoch: 1000
next table: 15801
cur table: 21818
epoch: 1000
next table: 17931
cur table: 15801
epoch: 1000
next table: 2330
cur table: 2267
epoch: 1000
next table: 18852
cur table: 17931
epoch: 1000
next table: 22787
cur table: 18852
epoch: 1000
next table: 2295
cur table: 2330
epoch: 1000
next table: 18789
cur table: 22787
epoch: 1000
next table: 15506
cur table: 18789
epoch: 1000
next table: 2236
cur table: 2295
epoch: 1000
next table: 20128
cur table: 15506
epoch: 1000
next table: 21211
cur table: 20128
epoch: 1000
next table: 2344
cur table: 2236
epoch: 1000
next table: 20488
cur table: 21211
epoch: 1000
next table: 18553
cur table: 20488
epoch: 1000
next table: 2320
cur table: 2344
epoch: 1000
next table: 17904
cur table: 18553
epoch: 1000
next table: 22289
cur table: 17904
epoch: 1000
next table: 2158
cur table: 2320
epoch: 1000
next table: 21131
cur table: 22289
epoch: 1000
next table: 19824
cur table: 21131
epoch: 1000
next table: 2260
cur table: 2158
epoch: 1000
next table: 17784
cur table: 19824
epoch: 1000
next table: 18535
cur table: 17784
epoch: 1000
next table: 2384
cur table: 2260
epoch: 1000
next table: 20579
cur table: 18535
epoch: 1000
next table: 19005
cur table: 20579
epoch: 1000
next table: 2257
cur table: 2384
epoch: 1000
next table: 22181
cur table: 19005
epoch: 1000
next table: 15950
cur table: 22181
epoch: 1000
next table: 2253
cur table: 2257
epoch: 1000
next table: 22233
cur table: 15950
epoch: 1000
next table: 20863
cur table: 22233
epoch: 1000
next table: 2313
cur table: 2253
epoch: 1000
next table: 20802
cur table: 20863
Heartbeat CPU 0 instructions: 20000001 cycles: 7194092 heartbeat IPC: 2.78018 cumulative IPC: 2.78006 (Simulation time: 0 hr 12 min 18 sec) 
epoch: 1000
next table: 18751
cur table: 20802
epoch: 1000
next table: 2215
cur table: 2313
epoch: 1000
next table: 19415
cur table: 18751
epoch: 1000
next table: 2223
cur table: 2215
epoch: 1000
next table: 20843
cur table: 19415
epoch: 1000
next table: 20835
cur table: 20843
epoch: 1000
next table: 2154
cur table: 2223
epoch: 1000
next table: 22638
cur table: 20835
epoch: 1000
next table: 21881
cur table: 22638
epoch: 1000
next table: 2324
cur table: 2154
epoch: 1000
next table: 15684
cur table: 21881
epoch: 1000
next table: 19367
cur table: 15684
epoch: 1000
next table: 2224
cur table: 2324
epoch: 1000
next table: 22827
cur table: 19367
epoch: 1000
next table: 22871
cur table: 22827
epoch: 1000
next table: 2169
cur table: 2224
epoch: 1000
next table: 19801
cur table: 22871
epoch: 1000
next table: 21783
cur table: 19801
epoch: 1000
next table: 2234
cur table: 2169
epoch: 1000
next table: 26961
cur table: 21783
epoch: 1000
next table: 19970
cur table: 26961
epoch: 1000
next table: 2143
cur table: 2234
epoch: 1000
next table: 22088
cur table: 19970
epoch: 1000
next table: 2203
cur table: 2143
epoch: 1000
next table: 22796
cur table: 22088
epoch: 1000
next table: 20767
cur table: 22796
epoch: 1000
next table: 2176
cur table: 2203
epoch: 1000
next table: 22814
cur table: 20767
epoch: 1000
next table: 25501
cur table: 22814
epoch: 1000
next table: 2286
cur table: 2176
epoch: 1000
next table: 17077
cur table: 25501
epoch: 1000
next table: 22822
cur table: 17077
epoch: 1000
next table: 2207
cur table: 2286
epoch: 1000
next table: 25701
cur table: 22822
epoch: 1000
next table: 2126
cur table: 2207
epoch: 1000
next table: 24207
cur table: 25701
epoch: 1000
next table: 19208
cur table: 24207
epoch: 1000
next table: 2136
cur table: 2126
epoch: 1000
next table: 25925
cur table: 19208
epoch: 1000
next table: 24872
cur table: 25925
epoch: 1000
next table: 2183
cur table: 2136
epoch: 1000
next table: 22787
cur table: 24872
epoch: 1000
next table: 2162
cur table: 2183
epoch: 1000
next table: 23814
cur table: 22787
epoch: 1000
next table: 23738
cur table: 23814
epoch: 1000
next table: 2074
cur table: 2162
epoch: 1000
next table: 25444
cur table: 23738
epoch: 1000
next table: 2049
cur table: 2074
epoch: 1000
next table: 24307
cur table: 25444
epoch: 1000
next table: 17291
cur table: 24307
epoch: 1000
next table: 2267
cur table: 2049
epoch: 1000
next table: 24827
cur table: 17291
epoch: 1000
next table: 21082
cur table: 24827
epoch: 1000
next table: 2310
cur table: 2267
epoch: 1000
next table: 20771
cur table: 21082
epoch: 1000
next table: 20233
cur table: 20771
epoch: 1000
next table: 2125
cur table: 2310
epoch: 1000
next table: 18327
cur table: 20233
epoch: 1000
next table: 22767
cur table: 18327
epoch: 1000
next table: 2297
cur table: 2125
epoch: 1000
next table: 23070
cur table: 22767
epoch: 1000
next table: 18711
cur table: 23070
epoch: 1000
next table: 2230
cur table: 2297
epoch: 1000
next table: 18939
cur table: 18711
epoch: 1000
next table: 22603
cur table: 18939
epoch: 1000
next table: 2252
cur table: 2230
epoch: 1000
next table: 18809
cur table: 22603
epoch: 1000
next table: 18670
cur table: 18809
epoch: 1000
next table: 2254
cur table: 2252
epoch: 1000
next table: 22965
cur table: 18670
epoch: 1000
next table: 15165
cur table: 22965
epoch: 1000
next table: 2371
cur table: 2254
epoch: 1000
next table: 18830
cur table: 15165
epoch: 1000
next table: 22470
cur table: 18830
epoch: 1000
next table: 2246
cur table: 2371
Heartbeat CPU 0 instructions: 30000003 cycles: 10790675 heartbeat IPC: 2.78042 cumulative IPC: 2.78018 (Simulation time: 0 hr 18 min 28 sec) 
epoch: 1000
next table: 21128
cur table: 22470
epoch: 1000
next table: 19519
cur table: 21128
epoch: 1000
next table: 2317
cur table: 2246
epoch: 1000
next table: 16270
cur table: 19519
epoch: 1000
next table: 22603
cur table: 16270
epoch: 1000
next table: 2222
cur table: 2317
epoch: 1000
next table: 19215
cur table: 22603
epoch: 1000
next table: 18252
cur table: 19215
epoch: 1000
next table: 2301
cur table: 2222
epoch: 1000
next table: 22623
cur table: 18252
epoch: 1000
next table: 19913
cur table: 22623
epoch: 1000
next table: 2155
cur table: 2301
epoch: 1000
next table: 18554
cur table: 19913
epoch: 1000
next table: 20665
cur table: 18554
epoch: 1000
next table: 2273
cur table: 2155
epoch: 1000
next table: 20888
cur table: 20665
epoch: 1000
next table: 18287
cur table: 20888
epoch: 1000
next table: 2404
cur table: 2273
epoch: 1000
next table: 17474
cur table: 18287
epoch: 1000
next table: 16765
cur table: 17474
epoch: 1000
next table: 2261
cur table: 2404
epoch: 1000
next table: 25136
cur table: 16765
epoch: 1000
next table: 20389
cur table: 25136
epoch: 1000
next table: 2252
cur table: 2261
epoch: 1000
next table: 15759
cur table: 20389
epoch: 1000
next table: 18047
cur table: 15759
epoch: 1000
next table: 2232
cur table: 2252
epoch: 1000
next table: 22923
cur table: 18047
epoch: 1000
next table: 21623
cur table: 22923
epoch: 1000
next table: 2237
cur table: 2232
epoch: 1000
next table: 17674
cur table: 21623
epoch: 1000
next table: 17515
cur table: 17674
epoch: 1000
next table: 2302
cur table: 2237
epoch: 1000
next table: 22757
cur table: 17515
epoch: 1000
next table: 19513
cur table: 22757
epoch: 1000
next table: 2159
cur table: 2302
epoch: 1000
next table: 19589
cur table: 19513
epoch: 1000
next table: 21024
cur table: 19589
epoch: 1000
next table: 2368
cur table: 2159
epoch: 1000
next table: 15251
cur table: 21024
epoch: 1000
next table: 18950
cur table: 15251
epoch: 1000
next table: 2329
cur table: 2368
epoch: 1000
next table: 22246
cur table: 18950
epoch: 1000
next table: 22483
cur table: 22246
epoch: 1000
next table: 2197
cur table: 2329
epoch: 1000
next table: 21996
cur table: 22483
epoch: 1000
next table: 16571
cur table: 21996
epoch: 1000
next table: 2256
cur table: 2197
epoch: 1000
next table: 22910
cur table: 16571
epoch: 1000
next table: 25898
cur table: 22910
epoch: 1000
next table: 2245
cur table: 2256
epoch: 1000
next table: 23361
cur table: 25898
epoch: 1000
next table: 2146
cur table: 2245
epoch: 1000
next table: 22508
cur table: 23361
epoch: 1000
next table: 25351
cur table: 22508
epoch: 1000
next table: 2125
cur table: 2146
epoch: 1000
next table: 23616
cur table: 25351
epoch: 1000
next table: 2102
cur table: 2125
epoch: 1000
next table: 26654
cur table: 23616
epoch: 1000
next table: 19563
cur table: 26654
epoch: 1000
next table: 2183
cur table: 2102
epoch: 1000
next table: 22847
cur table: 19563
epoch: 1000
next table: 27294
cur table: 22847
epoch: 1000
next table: 2210
cur table: 2183
epoch: 1000
next table: 26820
cur table: 27294
epoch: 1000
next table: 2108
cur table: 2210
epoch: 1000
next table: 19940
cur table: 26820
epoch: 1000
next table: 27489
cur table: 19940
epoch: 1000
next table: 2070
cur table: 2108
epoch: 1000
next table: 22963
cur table: 27489
epoch: 1000
next table: 26979
cur table: 22963
epoch: 1000
next table: 2160
cur table: 2070
epoch: 1000
next table: 23676
cur table: 26979
epoch: 1000
next table: 2200
cur table: 2160
epoch: 1000
next table: 23400
cur table: 23676
Heartbeat CPU 0 instructions: 40000000 cycles: 14387960 heartbeat IPC: 2.77987 cumulative IPC: 2.7801 (Simulation time: 0 hr 25 min 17 sec) 
epoch: 1000
next table: 22960
cur table: 23400
epoch: 1000
next table: 2133
cur table: 2200
epoch: 1000
next table: 26696
cur table: 22960
epoch: 1000
next table: 15874
cur table: 26696
epoch: 1000
next table: 2178
cur table: 2133
epoch: 1000
next table: 26853
cur table: 15874
epoch: 1000
next table: 2141
cur table: 2178
epoch: 1000
next table: 26816
cur table: 26853
epoch: 1000
next table: 23757
cur table: 26816
epoch: 1000
next table: 2069
cur table: 2141
epoch: 1000
next table: 23488
cur table: 23757
epoch: 1000
next table: 2098
cur table: 2069
epoch: 1000
next table: 23267
cur table: 23488
epoch: 1000
next table: 22824
cur table: 23267
epoch: 1000
next table: 2139
cur table: 2098
epoch: 1000
next table: 27071
cur table: 22824
epoch: 1000
next table: 22616
cur table: 27071
epoch: 1000
next table: 2132
cur table: 2139
epoch: 1000
next table: 21198
cur table: 22616
epoch: 1000
next table: 2134
cur table: 2132
epoch: 1000
next table: 26425
cur table: 21198
epoch: 1000
next table: 22659
cur table: 26425
epoch: 1000
next table: 2223
cur table: 2134
epoch: 1000
next table: 15526
cur table: 22659
epoch: 1000
next table: 26854
cur table: 15526
epoch: 1000
next table: 2140
cur table: 2223
epoch: 1000
next table: 25858
cur table: 26854
epoch: 1000
next table: 24316
cur table: 25858
epoch: 1000
next table: 2158
cur table: 2140
epoch: 1000
next table: 19515
cur table: 24316
epoch: 1000
next table: 2183
cur table: 2158
epoch: 1000
next table: 23182
cur table: 19515
epoch: 1000
next table: 22783
cur table: 23182
epoch: 1000
next table: 2077
cur table: 2183
epoch: 1000
next table: 27383
cur table: 22783
epoch: 1000
next table: 2072
cur table: 2077
epoch: 1000
next table: 23709
cur table: 27383
epoch: 1000
next table: 23653
cur table: 23709
epoch: 1000
next table: 2075
cur table: 2072
epoch: 1000
next table: 26607
cur table: 23653
epoch: 1000
next table: 22965
cur table: 26607
epoch: 1000
next table: 2273
cur table: 2075
epoch: 1000
next table: 18472
cur table: 22965
epoch: 1000
next table: 19807
cur table: 18472
epoch: 1000
next table: 2200
cur table: 2273
epoch: 1000
next table: 24754
cur table: 19807
epoch: 1000
next table: 21090
cur table: 24754
epoch: 1000
next table: 2256
cur table: 2200
epoch: 1000
next table: 19191
cur table: 21090
epoch: 1000
next table: 2219
cur table: 2256
epoch: 1000
next table: 22700
cur table: 19191
epoch: 1000
next table: 21797
cur table: 22700
epoch: 1000
next table: 2297
cur table: 2219
epoch: 1000
next table: 19812
cur table: 21797
epoch: 1000
next table: 18996
cur table: 19812
epoch: 1000
next table: 2256
cur table: 2297
epoch: 1000
next table: 19205
cur table: 18996
epoch: 1000
next table: 20911
cur table: 19205
epoch: 1000
next table: 2119
cur table: 2256
epoch: 1000
next table: 21010
cur table: 20911
epoch: 1000
next table: 22805
cur table: 21010
epoch: 1000
next table: 2276
cur table: 2119
epoch: 1000
next table: 20421
cur table: 22805
epoch: 1000
next table: 17495
cur table: 20421
epoch: 1000
next table: 2272
cur table: 2276
epoch: 1000
next table: 20814
cur table: 17495
epoch: 1000
next table: 20953
cur table: 20814
epoch: 1000
next table: 2217
cur table: 2272
epoch: 1000
next table: 22797
cur table: 20953
epoch: 1000
next table: 16844
cur table: 22797
epoch: 1000
next table: 2276
cur table: 2217
epoch: 1000
next table: 21504
cur table: 16844
epoch: 1000
next table: 22515
cur table: 21504
epoch: 1000
next table: 2266
cur table: 2276
Heartbeat CPU 0 instructions: 50000002 cycles: 17983773 heartbeat IPC: 2.78101 cumulative IPC: 2.78028 (Simulation time: 0 hr 32 min 19 sec) 

Warmup complete CPU 0 instructions: 50000002 cycles: 17983773 (Simulation time: 0 hr 32 min 19 sec) 

epoch: 1000
next table: 18029
cur table: 21198
epoch: 1000
next table: 20250
cur table: 18029
epoch: 1000
next table: 2248
cur table: 2275
epoch: 1000
next table: 22727
cur table: 20250
epoch: 1000
next table: 22900
cur table: 22727
epoch: 1000
next table: 2287
cur table: 2248
epoch: 1000
next table: 18626
cur table: 22900
epoch: 1000
next table: 17684
cur table: 18626
epoch: 1000
next table: 2372
cur table: 2287
epoch: 1000
next table: 20622
cur table: 17684
epoch: 1000
next table: 22348
cur table: 20622
epoch: 1000
next table: 2197
cur table: 2372
epoch: 1000
next table: 22851
cur table: 22348
epoch: 1000
next table: 18035
cur table: 22851
epoch: 1000
next table: 2321
cur table: 2197
epoch: 1000
next table: 20376
cur table: 18035
epoch: 1000
next table: 21622
cur table: 20376
epoch: 1000
next table: 2304
cur table: 2321
epoch: 1000
next table: 19825
cur table: 21622
epoch: 1000
next table: 18810
cur table: 19825
epoch: 1000
next table: 2211
cur table: 2304
epoch: 1000
next table: 19465
cur table: 18810
epoch: 1000
next table: 21954
cur table: 19465
epoch: 1000
next table: 2186
cur table: 2211
epoch: 1000
next table: 19337
cur table: 21954
epoch: 1000
next table: 22638
cur table: 19337
epoch: 1000
next table: 2374
cur table: 2186
epoch: 1000
next table: 18713
cur table: 22638
epoch: 1000
next table: 17366
cur table: 18713
epoch: 1000
next table: 2296
cur table: 2374
epoch: 1000
next table: 20411
cur table: 17366
epoch: 1000
next table: 21133
cur table: 20411
epoch: 1000
next table: 2198
cur table: 2296
epoch: 1000
next table: 20708
cur table: 21133
epoch: 1000
next table: 20399
cur table: 20708
epoch: 1000
next table: 2175
cur table: 2198
epoch: 1000
next table: 19472
cur table: 20399
epoch: 1000
next table: 20889
cur table: 19472
epoch: 1000
next table: 2287
cur table: 2175
epoch: 1000
next table: 18502
cur table: 20889
epoch: 1000
next table: 21283
cur table: 18502
epoch: 1000
next table: 2249
cur table: 2287
epoch: 1000
next table: 20094
cur table: 21283
epoch: 1000
next table: 19804
cur table: 20094
epoch: 1000
next table: 2282
cur table: 2249
epoch: 1000
next table: 18821
cur table: 19804
epoch: 1000
next table: 22787
cur table: 18821
epoch: 1000
next table: 2231
cur table: 2282
epoch: 1000
next table: 18498
cur table: 22787
epoch: 1000
next table: 15770
cur table: 18498
epoch: 1000
next table: 2381
cur table: 2231
epoch: 1000
next table: 20233
cur table: 15770
epoch: 1000
next table: 24444
cur table: 20233
epoch: 1000
next table: 2250
cur table: 2381
epoch: 1000
next table: 18882
cur table: 24444
epoch: 1000
next table: 18822
cur table: 18882
epoch: 1000
next table: 2126
cur table: 2250
epoch: 1000
next table: 20300
cur table: 18822
epoch: 1000
next table: 21949
cur table: 20300
epoch: 1000
next table: 2338
cur table: 2126
epoch: 1000
next table: 18715
cur table: 21949
epoch: 1000
next table: 22465
cur table: 18715
epoch: 1000
next table: 2210
cur table: 2338
epoch: 1000
next table: 23016
cur table: 22465
epoch: 1000
next table: 15048
cur table: 23016
epoch: 1000
next table: 2307
cur table: 2210
epoch: 1000
next table: 19376
cur table: 15048
epoch: 1000
next table: 2339
cur table: 2307
epoch: 1000
next table: 22485
cur table: 19376
epoch: 1000
next table: 22580
cur table: 22485
epoch: 1000
next table: 16533
cur table: 22580
epoch: 1000
next table: 2339
cur table: 2339
epoch: 1000
next table: 15545
cur table: 16533
epoch: 1000
next table: 2323
cur table: 2339
epoch: 1000
next table: 24696
cur table: 15545
Heartbeat CPU 0 instructions: 60000002 cycles: 29371584 heartbeat IPC: 0.878132 cumulative IPC: 0.878132 (Simulation time: 0 hr 39 min 49 sec) 
epoch: 1000
next table: 22953
cur table: 24696
epoch: 1000
next table: 2137
cur table: 2323
epoch: 1000
next table: 22733
cur table: 22953
epoch: 1000
next table: 21747
cur table: 22733
epoch: 1000
next table: 2153
cur table: 2137
epoch: 1000
next table: 25869
cur table: 21747
epoch: 1000
next table: 2143
cur table: 2153
epoch: 1000
next table: 22833
cur table: 25869
epoch: 1000
next table: 28710
cur table: 22833
epoch: 1000
next table: 2075
cur table: 2143
epoch: 1000
next table: 19829
cur table: 28710
epoch: 1000
next table: 25236
cur table: 19829
epoch: 1000
next table: 2041
cur table: 2075
epoch: 1000
next table: 27480
cur table: 25236
epoch: 1000
next table: 2277
cur table: 2041
epoch: 1000
next table: 22698
cur table: 27480
epoch: 1000
next table: 18450
cur table: 22698
epoch: 1000
next table: 2151
cur table: 2277
epoch: 1000
next table: 28462
cur table: 18450
epoch: 1000
next table: 23296
cur table: 28462
epoch: 1000
next table: 2124
cur table: 2151
epoch: 1000
next table: 22447
cur table: 23296
epoch: 1000
next table: 2113
cur table: 2124
epoch: 1000
next table: 23784
cur table: 22447
epoch: 1000
next table: 23315
cur table: 23784
epoch: 1000
next table: 2126
cur table: 2113
epoch: 1000
next table: 22958
cur table: 23315
epoch: 1000
next table: 2177
cur table: 2126
epoch: 1000
next table: 27326
cur table: 22958
epoch: 1000
next table: 19351
cur table: 27326
epoch: 1000
next table: 2105
cur table: 2177
epoch: 1000
next table: 23029
cur table: 19351
epoch: 1000
next table: 23503
cur table: 23029
epoch: 1000
next table: 2183
cur table: 2105
epoch: 1000
next table: 22381
cur table: 23503
epoch: 1000
next table: 19236
cur table: 22381
epoch: 1000
next table: 2297
cur table: 2183
epoch: 1000
next table: 23499
cur table: 19236
epoch: 1000
next table: 22409
cur table: 23499
epoch: 1000
next table: 2177
cur table: 2297
epoch: 1000
next table: 22328
cur table: 22409
epoch: 1000
next table: 2117
cur table: 2177
epoch: 1000
next table: 20791
cur table: 22328
epoch: 1000
next table: 22401
cur table: 20791
epoch: 1000
next table: 2233
cur table: 2117
epoch: 1000
next table: 18616
cur table: 22401
epoch: 1000
next table: 23069
cur table: 18616
epoch: 1000
next table: 2261
cur table: 2233
epoch: 1000
next table: 23451
cur table: 23069
epoch: 1000
next table: 16690
cur table: 23451
epoch: 1000
next table: 2271
cur table: 2261
epoch: 1000
next table: 23034
cur table: 16690
epoch: 1000
next table: 22923
cur table: 23034
epoch: 1000
next table: 2146
cur table: 2271
epoch: 1000
next table: 20626
cur table: 22923
epoch: 1000
next table: 19943
cur table: 20626
epoch: 1000
next table: 2258
cur table: 2146
epoch: 1000
next table: 14503
cur table: 19943
epoch: 1000
next table: 24311
cur table: 14503
epoch: 1000
next table: 2242
cur table: 2258
epoch: 1000
next table: 20933
cur table: 24311
epoch: 1000
next table: 22548
cur table: 20933
epoch: 1000
next table: 2167
cur table: 2242
epoch: 1000
next table: 17452
cur table: 22548
epoch: 1000
next table: 20821
cur table: 17452
epoch: 1000
next table: 2355
cur table: 2167
epoch: 1000
next table: 18868
cur table: 20821
epoch: 1000
next table: 22598
cur table: 18868
epoch: 1000
next table: 2236
cur table: 2355
epoch: 1000
next table: 23186
cur table: 22598
epoch: 1000
next table: 2207
cur table: 2236
epoch: 1000
next table: 19517
cur table: 23186
epoch: 1000
next table: 18924
cur table: 19517
epoch: 1000
next table: 2252
cur table: 2207
Heartbeat CPU 0 instructions: 70000003 cycles: 40752197 heartbeat IPC: 0.878687 cumulative IPC: 0.87841 (Simulation time: 0 hr 46 min 49 sec) 
epoch: 1000
next table: 23207
cur table: 18924
epoch: 1000
next table: 21916
cur table: 23207
epoch: 1000
next table: 2265
cur table: 2252
epoch: 1000
next table: 18198
cur table: 21916
epoch: 1000
next table: 20566
cur table: 18198
epoch: 1000
next table: 2214
cur table: 2265
epoch: 1000
next table: 26976
cur table: 20566
epoch: 1000
next table: 22868
cur table: 26976
epoch: 1000
next table: 2068
cur table: 2214
epoch: 1000
next table: 24326
cur table: 22868
epoch: 1000
next table: 2246
cur table: 2068
epoch: 1000
next table: 20322
cur table: 24326
epoch: 1000
next table: 25053
cur table: 20322
epoch: 1000
next table: 2090
cur table: 2246
epoch: 1000
next table: 23380
cur table: 25053
epoch: 1000
next table: 26058
cur table: 23380
epoch: 1000
next table: 2136
cur table: 2090
epoch: 1000
next table: 18322
cur table: 26058
epoch: 1000
next table: 2146
cur table: 2136
epoch: 1000
next table: 25170
cur table: 18322
epoch: 1000
next table: 22909
cur table: 25170
epoch: 1000
next table: 2224
cur table: 2146
epoch: 1000
next table: 19618
cur table: 22909
epoch: 1000
next table: 18483
cur table: 19618
epoch: 1000
next table: 2190
cur table: 2224
epoch: 1000
next table: 24850
cur table: 18483
epoch: 1000
next table: 21001
cur table: 24850
epoch: 1000
next table: 2252
cur table: 2190
epoch: 1000
next table: 22553
cur table: 21001
epoch: 1000
next table: 19022
cur table: 22553
epoch: 1000
next table: 2186
cur table: 2252
epoch: 1000
next table: 21396
cur table: 19022
epoch: 1000
next table: 20811
cur table: 21396
epoch: 1000
next table: 2220
cur table: 2186
epoch: 1000
next table: 21726
cur table: 20811
epoch: 1000
next table: 22865
cur table: 21726
epoch: 1000
next table: 2172
cur table: 2220
epoch: 1000
next table: 16582
cur table: 22865
epoch: 1000
next table: 18501
cur table: 16582
epoch: 1000
next table: 2227
cur table: 2172
epoch: 1000
next table: 21240
cur table: 18501
epoch: 1000
next table: 20007
cur table: 21240
epoch: 1000
next table: 2398
cur table: 2227
epoch: 1000
next table: 18976
cur table: 20007
epoch: 1000
next table: 17089
cur table: 18976
epoch: 1000
next table: 2298
cur table: 2398
epoch: 1000
next table: 23907
cur table: 17089
epoch: 1000
next table: 23002
cur table: 23907
epoch: 1000
next table: 2246
cur table: 2298
epoch: 1000
next table: 19735
cur table: 23002
epoch: 1000
next table: 2127
cur table: 2246
epoch: 1000
next table: 20384
cur table: 19735
epoch: 1000
next table: 25974
cur table: 20384
epoch: 1000
next table: 2192
cur table: 2127
epoch: 1000
next table: 22235
cur table: 25974
epoch: 1000
next table: 28105
cur table: 22235
epoch: 1000
next table: 2131
cur table: 2192
epoch: 1000
next table: 19502
cur table: 28105
epoch: 1000
next table: 2074
cur table: 2131
epoch: 1000
next table: 24411
cur table: 19502
epoch: 1000
next table: 30186
cur table: 24411
epoch: 1000
next table: 2107
cur table: 2074
epoch: 1000
next table: 20811
cur table: 30186
epoch: 1000
next table: 2124
cur table: 2107
epoch: 1000
next table: 17933
cur table: 20811
epoch: 1000
next table: 5116
cur table: 17933
epoch: 1000
next table: 1673
cur table: 2124
epoch: 1000
next table: 11903
cur table: 5116
epoch: 1000
next table: 1721
cur table: 1673
epoch: 1000
next table: 11893
cur table: 11903
epoch: 1000
next table: 1579
cur table: 1721
epoch: 1000
next table: 10425
cur table: 11893
epoch: 1000
next table: 1457
cur table: 1579
epoch: 1000
next table: 11362
cur table: 10425
epoch: 1000
next table: 1613
cur table: 1457
epoch: 1000
next table: 15275
cur table: 11362
epoch: 1000
next table: 1783
cur table: 1613
epoch: 1000
next table: 11278
cur table: 15275
epoch: 1000
next table: 1690
cur table: 1783
epoch: 1000
next table: 18047
cur table: 11278
epoch: 1000
next table: 1989
cur table: 1690
epoch: 1000
next table: 19935
cur table: 18047
epoch: 1000
next table: 23396
cur table: 19935
Heartbeat CPU 0 instructions: 80000002 cycles: 52294582 heartbeat IPC: 0.866372 cumulative IPC: 0.87436 (Simulation time: 0 hr 53 min 29 sec) 
epoch: 1000
next table: 2175
cur table: 1989
epoch: 1000
next table: 28928
cur table: 23396
epoch: 1000
next table: 25373
cur table: 28928
epoch: 1000
next table: 2066
cur table: 2175
epoch: 1000
next table: 21386
cur table: 25373
epoch: 1000
next table: 2094
cur table: 2066
epoch: 1000
next table: 29262
cur table: 21386
epoch: 1000
next table: 22960
cur table: 29262
epoch: 1000
next table: 2192
cur table: 2094
epoch: 1000
next table: 22735
cur table: 22960
epoch: 1000
next table: 2128
cur table: 2192
epoch: 1000
next table: 24615
cur table: 22735
epoch: 1000
next table: 27095
cur table: 24615
epoch: 1000
next table: 1883
cur table: 2128
epoch: 1000
next table: 27111
cur table: 27095
epoch: 1000
next table: 2160
cur table: 1883
epoch: 1000
next table: 23764
cur table: 27111
epoch: 1000
next table: 23374
cur table: 23764
epoch: 1000
next table: 2129
cur table: 2160
epoch: 1000
next table: 27036
cur table: 23374
epoch: 1000
next table: 2009
cur table: 2129
epoch: 1000
next table: 27330
cur table: 27036
epoch: 1000
next table: 20284
cur table: 27330
epoch: 1000
next table: 2031
cur table: 2009
epoch: 1000
next table: 27094
cur table: 20284
epoch: 1000
next table: 26509
cur table: 27094
epoch: 1000
next table: 2288
cur table: 2031
epoch: 1000
next table: 19007
cur table: 26509
epoch: 1000
next table: 2170
cur table: 2288
epoch: 1000
next table: 23528
cur table: 19007
epoch: 1000
next table: 22043
cur table: 23528
epoch: 1000
next table: 2085
cur table: 2170
epoch: 1000
next table: 19631
cur table: 22043
epoch: 1000
next table: 26916
cur table: 19631
epoch: 1000
next table: 2123
cur table: 2085
epoch: 1000
next table: 16052
cur table: 26916
epoch: 1000
next table: 18619
cur table: 16052
epoch: 1000
next table: 2322
cur table: 2123
epoch: 1000
next table: 24557
cur table: 18619
epoch: 1000
next table: 24660
cur table: 24557
epoch: 1000
next table: 2219
cur table: 2322
epoch: 1000
next table: 18905
cur table: 24660
epoch: 1000
next table: 17946
cur table: 18905
epoch: 1000
next table: 2125
cur table: 2219
epoch: 1000
next table: 21409
cur table: 17946
epoch: 1000
next table: 21801
cur table: 21409
epoch: 1000
next table: 2342
cur table: 2125
epoch: 1000
next table: 22556
cur table: 21801
epoch: 1000
next table: 18178
cur table: 22556
epoch: 1000
next table: 2333
cur table: 2342
epoch: 1000
next table: 18963
cur table: 18178
epoch: 1000
next table: 20000
cur table: 18963
epoch: 1000
next table: 2194
cur table: 2333
epoch: 1000
next table: 22498
cur table: 20000
epoch: 1000
next table: 2235
cur table: 2194
epoch: 1000
next table: 22118
cur table: 22498
epoch: 1000
next table: 16867
cur table: 22118
epoch: 1000
next table: 2342
cur table: 2235
epoch: 1000
next table: 22392
cur table: 16867
epoch: 1000
next table: 19388
cur table: 22392
epoch: 1000
next table: 2219
cur table: 2342
epoch: 1000
next table: 24025
cur table: 19388
epoch: 1000
next table: 20874
cur table: 24025
epoch: 1000
next table: 2148
cur table: 2219
epoch: 1000
next table: 15833
cur table: 20874
epoch: 1000
next table: 22848
cur table: 15833
epoch: 1000
next table: 2344
cur table: 2148
epoch: 1000
next table: 18218
cur table: 22848
epoch: 1000
next table: 18816
cur table: 18218
epoch: 1000
next table: 2215
cur table: 2344
epoch: 1000
next table: 22485
cur table: 18816
epoch: 1000
next table: 19282
cur table: 22485
epoch: 1000
next table: 2227
cur table: 2215
epoch: 1000
next table: 18792
cur table: 19282
Heartbeat CPU 0 instructions: 90000003 cycles: 63634974 heartbeat IPC: 0.881804 cumulative IPC: 0.876209 (Simulation time: 1 hr 0 min 25 sec) 
epoch: 1000
next table: 18354
cur table: 18792
epoch: 1000
next table: 2257
cur table: 2227
epoch: 1000
next table: 23143
cur table: 18354
epoch: 1000
next table: 18456
cur table: 23143
epoch: 1000
next table: 2276
cur table: 2257
epoch: 1000
next table: 17287
cur table: 18456
epoch: 1000
next table: 21274
cur table: 17287
epoch: 1000
next table: 2207
cur table: 2276
epoch: 1000
next table: 23149
cur table: 21274
epoch: 1000
next table: 17904
cur table: 23149
epoch: 1000
next table: 2233
cur table: 2207
epoch: 1000
next table: 16263
cur table: 17904
epoch: 1000
next table: 22307
cur table: 16263
epoch: 1000
next table: 2297
cur table: 2233
epoch: 1000
next table: 22132
cur table: 22307
epoch: 1000
next table: 15552
cur table: 22132
epoch: 1000
next table: 2291
cur table: 2297
epoch: 1000
next table: 17592
cur table: 15552
epoch: 1000
next table: 19718
cur table: 17592
epoch: 1000
next table: 2316
cur table: 2291
epoch: 1000
next table: 22469
cur table: 19718
epoch: 1000
next table: 18967
cur table: 22469
epoch: 1000
next table: 2215
cur table: 2316
epoch: 1000
next table: 18385
cur table: 18967
epoch: 1000
next table: 22608
cur table: 18385
epoch: 1000
next table: 2449
cur table: 2215
epoch: 1000
next table: 15668
cur table: 22608
epoch: 1000
next table: 18641
cur table: 15668
epoch: 1000
next table: 20845
cur table: 18641
epoch: 1000
next table: 2300
cur table: 2449
epoch: 1000
next table: 20871
cur table: 20845
epoch: 1000
next table: 21393
cur table: 20871
epoch: 1000
next table: 2292
cur table: 2300
epoch: 1000
next table: 15149
cur table: 21393
epoch: 1000
next table: 2244
cur table: 2292
epoch: 1000
next table: 19912
cur table: 15149
epoch: 1000
next table: 18880
cur table: 19912
epoch: 1000
next table: 20247
cur table: 18880
epoch: 1000
next table: 2382
cur table: 2244
epoch: 1000
next table: 20539
cur table: 20247
epoch: 1000
next table: 18968
cur table: 20539
epoch: 1000
next table: 2280
cur table: 2382
epoch: 1000
next table: 19469
cur table: 18968
epoch: 1000
next table: 2071
cur table: 2280
epoch: 1000
next table: 19397
cur table: 19469
epoch: 1000
next table: 21863
cur table: 19397
epoch: 1000
next table: 2335
cur table: 2071
epoch: 1000
next table: 22831
cur table: 21863
epoch: 1000
next table: 15371
cur table: 22831
epoch: 1000
next table: 19115
cur table: 15371
epoch: 1000
next table: 2289
cur table: 2335
epoch: 1000
next table: 24522
cur table: 19115
epoch: 1000
next table: 2235
cur table: 2289
epoch: 1000
next table: 20665
cur table: 24522
epoch: 1000
next table: 19182
cur table: 20665
epoch: 1000
next table: 2267
cur table: 2235
epoch: 1000
next table: 19636
cur table: 19182
epoch: 1000
next table: 22404
cur table: 19636
epoch: 1000
next table: 2352
cur table: 2267
epoch: 1000
next table: 18101
cur table: 22404
epoch: 1000
next table: 19448
cur table: 18101
epoch: 1000
next table: 2184
cur table: 2352
epoch: 1000
next table: 23604
cur table: 19448
epoch: 1000
next table: 23013
cur table: 23604
epoch: 1000
next table: 2167
cur table: 2184
epoch: 1000
next table: 20449
cur table: 23013
epoch: 1000
next table: 24984
cur table: 20449
epoch: 1000
next table: 2196
cur table: 2167
epoch: 1000
next table: 20688
cur table: 24984
epoch: 1000
next table: 2205
cur table: 2196
epoch: 1000
next table: 22495
cur table: 20688
epoch: 1000
next table: 27318
cur table: 22495
epoch: 1000
next table: 2070
cur table: 2205
epoch: 1000
next table: 25826
cur table: 27318
epoch: 1000
next table: 19730
cur table: 25826
epoch: 1000
next table: 2138
cur table: 2070
epoch: 1000
next table: 24154
cur table: 19730
Heartbeat CPU 0 instructions: 100000000 cycles: 75008861 heartbeat IPC: 0.879207 cumulative IPC: 0.876807 (Simulation time: 1 hr 7 min 27 sec) 
Finished CPU 0 instructions: 50000002 cycles: 57025091 cumulative IPC: 0.876807 (Simulation time: 1 hr 7 min 27 sec) 

ChampSim completed all CPUs

Region of Interest Statistics

CPU 0 cumulative IPC: 0.876807 instructions: 50000002 cycles: 57025091
ITLB TOTAL     ACCESS:    6982788  HIT:    6982788  MISS:          0  HIT %:        100  MISS %:          0   MPKI: 0
ITLB LOAD TRANSLATION ACCESS:    6982788  HIT:    6982788  MISS:          0  HIT %:        100  MISS %:          0   MPKI: 0
ITLB PREFETCH  REQUESTED:          0  ISSUED:          0  USEFUL:          0  USELESS:          0
ITLB USEFUL LOAD PREFETCHES:          0 PREFETCH ISSUED TO LOWER LEVEL:          0  ACCURACY: -nan
ITLB TIMELY PREFETCHES:          0 LATE PREFETCHES: 0 DROPPED PREFETCHES: 0
ITLB PREFETCHES SAME FILL-ORIGIN LEVEL: 0 DIFFERENT FILL-ORIGIN LEVEL: 0
ITLB AVERAGE MISS LATENCY: -nan cycles
ITLB RQ	ACCESS:    8483768	FORWARD:          0	MERGED:    1500980	TO_CACHE:    6982788

Revised Interactions: positive negative neutral
ITLB_interactions 0 0 0 -nan -nan -nan
DTLB TOTAL     ACCESS:   14193133  HIT:   12259075  MISS:    1934058  HIT %:    86.3733  MISS %:    13.6267   MPKI: 38.6812
DTLB LOAD TRANSLATION ACCESS:   14193133  HIT:   12259075  MISS:    1934058  HIT %:    86.3733  MISS %:    13.6267   MPKI: 38.6812
DTLB PREFETCH  REQUESTED:          0  ISSUED:          0  USEFUL:          0  USELESS:          0
DTLB USEFUL LOAD PREFETCHES:          0 PREFETCH ISSUED TO LOWER LEVEL:          0  ACCURACY: -nan
DTLB TIMELY PREFETCHES:          0 LATE PREFETCHES: 0 DROPPED PREFETCHES: 0
DTLB PREFETCHES SAME FILL-ORIGIN LEVEL: 0 DIFFERENT FILL-ORIGIN LEVEL: 0
DTLB AVERAGE MISS LATENCY: 10.0045 cycles
DTLB RQ	ACCESS:   19834827	FORWARD:          0	MERGED:    5427340	TO_CACHE:   14407487

Revised Interactions: positive negative neutral
DTLB_interactions 0 0 0 -nan -nan -nan
STLB TOTAL     ACCESS:    1934058  HIT:    1931864  MISS:       2194  HIT %:    99.8866  MISS %:    0.11344   MPKI: 0.04388
STLB LOAD TRANSLATION ACCESS:    1934058  HIT:    1931864  MISS:       2194  HIT %:    99.8866  MISS %:    0.11344   MPKI: 0.04388
STLB PREFETCH  REQUESTED:          0  ISSUED:          0  USEFUL:          0  USELESS:          0
STLB USEFUL LOAD PREFETCHES:          0 PREFETCH ISSUED TO LOWER LEVEL:          0  ACCURACY: -nan
STLB TIMELY PREFETCHES:          0 LATE PREFETCHES: 0 DROPPED PREFETCHES: 0
STLB PREFETCHES SAME FILL-ORIGIN LEVEL: 0 DIFFERENT FILL-ORIGIN LEVEL: 0
STLB AVERAGE MISS LATENCY: 604.44 cycles
STLB RQ	ACCESS:    1934058	FORWARD:          0	MERGED:          0	TO_CACHE:    1934058

Revised Interactions: positive negative neutral
STLB_interactions 0 0 0 -nan -nan -nan
STLB Hit, L1D data hit: 0
STLB Hit, L2C data hit: 0
STLB Hit, LLC data hit: 0
STLB Hit, LLC data miss: 0
STLB STLB hints to L2: 0
L1D TOTAL     ACCESS:   19731433  HIT:   16057459  MISS:    3673974  HIT %:    81.3801  MISS %:    18.6199   MPKI: 73.4795
L1D LOAD      ACCESS:   15724186  HIT:   12353487  MISS:    3370699  HIT %:    78.5636  MISS %:    21.4364   MPKI: 67.414
L1D RFO       ACCESS:    4007247  HIT:    3703972  MISS:     303275  HIT %:    92.4318  MISS %:    7.56816   MPKI: 6.0655
L1D PREFETCH  REQUESTED:          0  ISSUED:          0  USEFUL:          0  USELESS:          0
L1D USEFUL LOAD PREFETCHES:          0 PREFETCH ISSUED TO LOWER LEVEL:          0  ACCURACY: -nan
L1D TIMELY PREFETCHES:          0 LATE PREFETCHES: 0 DROPPED PREFETCHES: 0
L1D PREFETCHES SAME FILL-ORIGIN LEVEL: 0 DIFFERENT FILL-ORIGIN LEVEL: 0
L1D AVERAGE MISS LATENCY: 27.2484 cycles
L1D RQ	ACCESS:   19465808	FORWARD:          0	MERGED:    3645997	TO_CACHE:   15809166
L1D WQ	ACCESS:    4052924	FORWARD:      10645	MERGED:      27263	TO_CACHE:    4025661

Revised Interactions: positive negative neutral
L1D_interactions 0 0 0 -nan -nan -nan
L1D UNIQUE REGIONS ACCESSED: 0
L1D REGIONS CONFLICTS: 0
L1D Cross Page Prefetch Requests: 0
L1D Same Page Prefetch Requests: 0
L1D ROI Sum of L1D PQ occupancy: 0
L1D PREFETCHES PUSHED FROM L2C: 0
L1I TOTAL     ACCESS:    7819840  HIT:    6519837  MISS:    1300003  HIT %:    83.3756  MISS %:    16.6244   MPKI: 26.0001
L1I LOAD      ACCESS:    7819840  HIT:    6519837  MISS:    1300003  HIT %:    83.3756  MISS %:    16.6244   MPKI: 26.0001
L1I PREFETCH  REQUESTED:          0  ISSUED:          0  USEFUL:          0  USELESS:          0
L1I USEFUL LOAD PREFETCHES:          0 PREFETCH ISSUED TO LOWER LEVEL:          0  ACCURACY: -nan
L1I TIMELY PREFETCHES:          0 LATE PREFETCHES: 0 DROPPED PREFETCHES: 0
L1I PREFETCHES SAME FILL-ORIGIN LEVEL: 0 DIFFERENT FILL-ORIGIN LEVEL: 0
L1I AVERAGE MISS LATENCY: 14.076 cycles
L1I RQ	ACCESS:   11899362	FORWARD:          0	MERGED:    3415594	TO_CACHE:    8483768

Revised Interactions: positive negative neutral
L1I_interactions 0 0 0 -nan -nan -nan
BTB TOTAL     ACCESS:     281772  HIT:     263571  MISS:      18201  HIT %:    93.5405  MISS %:    6.45948   MPKI: 0.36402
BTB BRANCH_DIRECT_JUMP	ACCESS:      54526  HIT:      54521  MISS:          5
BTB BRANCH_INDIRECT	ACCESS:       9087  HIT:       9086  MISS:          1
BTB BRANCH_CONDITIONAL	ACCESS:     109107  HIT:     109095  MISS:         12
BTB BRANCH_DIRECT_CALL	ACCESS:      54526  HIT:      54521  MISS:          5
BTB BRANCH_INDIRECT_CALL	ACCESS:          0  HIT:          0  MISS:          0
BTB BRANCH_RETURN	ACCESS:      54526  HIT:      36348  MISS:      18178
BTB BRANCH_OTHER ACCESS:          0  HIT:          0  MISS:          0

L2C TOTAL     ACCESS:    5994897  HIT:    5745767  MISS:     249130  HIT %:    95.8443  MISS %:     4.1557   MPKI: 4.9826
L2C LOAD      ACCESS:    4670265  HIT:    4541965  MISS:     128300  HIT %:    97.2528  MISS %:    2.74717   MPKI: 2.566
L2C DATA LOAD MPKI: 2.55788
L2C INSTRUCTION LOAD MPKI: 0.00812
L2C RFO       ACCESS:     303185  HIT:     270361  MISS:      32824  HIT %:    89.1736  MISS %:    10.8264   MPKI: 0.65648
L2C PREFETCH  ACCESS:     693896  HIT:     609710  MISS:      84186  HIT %:    87.8676  MISS %:    12.1324   MPKI: 1.68372
L2C DATA PREFETCH MPKI: 1.68372
L2C INSTRUCTION PREFETCH MPKI: 0
L2C WRITEBACK ACCESS:     324284  HIT:     323569  MISS:        715  HIT %:    99.7795  MISS %:   0.220486   MPKI: 0.0143
L2C LOAD TRANSLATION ACCESS:       3267  HIT:        162  MISS:       3105  HIT %:    4.95868  MISS %:    95.0413   MPKI: 0.0621
L2C PREFETCH  REQUESTED:     695341  ISSUED:     695341  USEFUL:      76639  USELESS:       7626
L2C USEFUL LOAD PREFETCHES:      76639 PREFETCH ISSUED TO LOWER LEVEL:      84838  ACCURACY: 90.3357
L2C TIMELY PREFETCHES:      76639 LATE PREFETCHES: 652 DROPPED PREFETCHES: 0
L2C PREFETCHES SAME FILL-ORIGIN LEVEL: 84838 DIFFERENT FILL-ORIGIN LEVEL: 0
L2C AVERAGE MISS LATENCY: 203.423 cycles
L2C RQ	ACCESS:    4977243	FORWARD:          0	MERGED:          0	TO_CACHE:    4976717
L2C WQ	ACCESS:     324284	FORWARD:        536	MERGED:          0	TO_CACHE:     324284
L2C PQ	ACCESS:     695341	FORWARD:          0	MERGED:          3	TO_CACHE:     695328

Revised Interactions: positive negative neutral
L2C_interactions 65625 16202 5395 75.239 18.5756 6.18537
L2C Instructions Evicting Data 372
L2C Translations Evicting Data 3090
L2C Data Evicting Data 241434
L2C Instructions Evicting Instructions 31
L2C Translations Evicting Instructions 2
L2C Data Evicting Instructions 370
L2C Instructions Evicting Translations 3
L2C Translations Evicting Translations 13
L2C Data Evicting Translations 3100
L2C Dense regions hint from L2: 0
PSCL5 TOTAL     ACCESS:       2194  HIT:       2194  MISS:          0  HIT %:        100  MISS %:          0   MPKI: 0
PSCL5 LOAD TRANSLATION ACCESS:       2194  HIT:       2194  MISS:          0  HIT %:        100  MISS %:          0   MPKI: 0
PSCL5 PREFETCH  REQUESTED:          0  ISSUED:          0  USEFUL:          0  USELESS:          0
PSCL5 USEFUL LOAD PREFETCHES:          0 PREFETCH ISSUED TO LOWER LEVEL:          0  ACCURACY: -nan
PSCL5 TIMELY PREFETCHES:          0 LATE PREFETCHES: 0 DROPPED PREFETCHES: 0
PSCL5 PREFETCHES SAME FILL-ORIGIN LEVEL: 0 DIFFERENT FILL-ORIGIN LEVEL: 0

Revised Interactions: positive negative neutral
PSCL5_interactions 0 0 0 -nan -nan -nan
PSCL4 TOTAL     ACCESS:       2194  HIT:       2194  MISS:          0  HIT %:        100  MISS %:          0   MPKI: 0
PSCL4 LOAD TRANSLATION ACCESS:       2194  HIT:       2194  MISS:          0  HIT %:        100  MISS %:          0   MPKI: 0
PSCL4 PREFETCH  REQUESTED:          0  ISSUED:          0  USEFUL:          0  USELESS:          0
PSCL4 USEFUL LOAD PREFETCHES:          0 PREFETCH ISSUED TO LOWER LEVEL:          0  ACCURACY: -nan
PSCL4 TIMELY PREFETCHES:          0 LATE PREFETCHES: 0 DROPPED PREFETCHES: 0
PSCL4 PREFETCHES SAME FILL-ORIGIN LEVEL: 0 DIFFERENT FILL-ORIGIN LEVEL: 0

Revised Interactions: positive negative neutral
PSCL4_interactions 0 0 0 -nan -nan -nan
PSCL3 TOTAL     ACCESS:       2194  HIT:       2194  MISS:          0  HIT %:        100  MISS %:          0   MPKI: 0
PSCL3 LOAD TRANSLATION ACCESS:       2194  HIT:       2194  MISS:          0  HIT %:        100  MISS %:          0   MPKI: 0
PSCL3 PREFETCH  REQUESTED:          0  ISSUED:          0  USEFUL:          0  USELESS:          0
PSCL3 USEFUL LOAD PREFETCHES:          0 PREFETCH ISSUED TO LOWER LEVEL:          0  ACCURACY: -nan
PSCL3 TIMELY PREFETCHES:          0 LATE PREFETCHES: 0 DROPPED PREFETCHES: 0
PSCL3 PREFETCHES SAME FILL-ORIGIN LEVEL: 0 DIFFERENT FILL-ORIGIN LEVEL: 0

Revised Interactions: positive negative neutral
PSCL3_interactions 0 0 0 -nan -nan -nan
PSCL2 TOTAL     ACCESS:       2194  HIT:       1117  MISS:       1077  HIT %:    50.9116  MISS %:    49.0884   MPKI: 0.02154
PSCL2 LOAD TRANSLATION ACCESS:       2194  HIT:       1117  MISS:       1077  HIT %:    50.9116  MISS %:    49.0884   MPKI: 0.02154
PSCL2 PREFETCH  REQUESTED:          0  ISSUED:          0  USEFUL:          0  USELESS:          0
PSCL2 USEFUL LOAD PREFETCHES:          0 PREFETCH ISSUED TO LOWER LEVEL:          0  ACCURACY: -nan
PSCL2 TIMELY PREFETCHES:          0 LATE PREFETCHES: 0 DROPPED PREFETCHES: 0
PSCL2 PREFETCHES SAME FILL-ORIGIN LEVEL: 0 DIFFERENT FILL-ORIGIN LEVEL: 0

Revised Interactions: positive negative neutral
PSCL2_interactions 0 0 0 -nan -nan -nan
LLC TOTAL     ACCESS:     281399  HIT:     143217  MISS:     138182  HIT %:    50.8946  MISS %:    49.1054   MPKI: 2.76364
LLC LOAD      ACCESS:     127644  HIT:      48116  MISS:      79528  HIT %:    37.6955  MISS %:    62.3045   MPKI: 1.59056
LLC RFO       ACCESS:      32577  HIT:       3152  MISS:      29425  HIT %:    9.67554  MISS %:    90.3245   MPKI: 0.5885
LLC PREFETCH  ACCESS:      84838  HIT:      56299  MISS:      28539  HIT %:    66.3606  MISS %:    33.6394   MPKI: 0.57078
LLC WRITEBACK ACCESS:      33235  HIT:      32886  MISS:        349  HIT %:    98.9499  MISS %:     1.0501   MPKI: 0.00698
LLC LOAD TRANSLATION ACCESS:       3105  HIT:       2764  MISS:        341  HIT %:    89.0177  MISS %:    10.9823   MPKI: 0.00682
LLC PREFETCH  REQUESTED:          0  ISSUED:          0  USEFUL:      10367  USELESS:      18055
LLC USEFUL LOAD PREFETCHES:      10367 PREFETCH ISSUED TO LOWER LEVEL:      28539  ACCURACY: 36.3257
LLC TIMELY PREFETCHES:      10367 LATE PREFETCHES: 0 DROPPED PREFETCHES: 0
LLC PREFETCHES SAME FILL-ORIGIN LEVEL: 0 DIFFERENT FILL-ORIGIN LEVEL: 0
LLC AVERAGE MISS LATENCY: 311.714 cycles
LLC RQ	ACCESS:     163577	FORWARD:          0	MERGED:          0	TO_CACHE:     163326
LLC WQ	ACCESS:      33235	FORWARD:        251	MERGED:          0	TO_CACHE:      33235
LLC PQ	ACCESS:      84838	FORWARD:          0	MERGED:          0	TO_CACHE:      84838

Revised Interactions: positive negative neutral
LLC_interactions 1297 27585 11834 3.18548 67.7498 29.0647
LLC Dense regions hint to LLC: 0

RAW hits: 126928
Loads Generated: 19592737
Loads sent to L1D: 19465808
Stores Generated: 4053119
Stores sent to L1D: 4053121
Major fault: 0 Minor fault: 4534
Allocated PAGES: 4534
[Bingo] PHT Access: 1220033
[Bingo] PHT Hit PC+Addr: 65092
[Bingo] PHT Hit PC+Offs: 144473
[Bingo] PHT Miss: 1010468
[Bingo] Prefetch PC+Addr: 0
[Bingo] Prefetch PC+Offs: 0
[Bingo] Useful PC+Addr: 0
[Bingo] Useful PC+Offs: 0
[Bingo] Useless PC+Addr: 0
[Bingo] Useless PC+Offs: 0
[Bingo] L1 Prefetch per Region: 0
[Bingo] L2 Prefetch per Region: 4.48187
[Bingo] L3 Prefetch per Region: 0
[Bingo] No Prefetch per Region: 27.5181
[Bingo] Number of Voters Mean: 3.50328
[Bingo] Number of Voters SD: 4.68689
PHT read accesses: 18637521
PHT write accesses: 118671
AT read accesses: 2196942
AT write accesses: 2263860
FT read accesses: 398876
FT write accesses: 1220033
PS read accesses: 428684
PS write accesses: 209565
PHT tag read accesses: 22157066
PHT tag write accesses: 183763
AT tag read accesses: 63204035
AT tag write accesses: 2315618
FT tag read accesses: 65286958
FT tag write accesses: 1495187
PS tag read accesses: 60800028
PS tag write accesses: 633706

DRAM Statistics
 CHANNEL 0
 RQ ROW_BUFFER_HIT:      72995  ROW_BUFFER_MISS:      64838
 DBUS_CONGESTED:         75
 WQ ROW_BUFFER_HIT:       9226  ROW_BUFFER_MISS:      20528  FULL:          0

 AVG_CONGESTED_CYCLE: 5
 All warmup complete: 2
Channel 0 Bank busy for read cycles: 0
Channel 0 Bank busy for write cycles: 0
Channel 0
Rank 0
0banks busy for read cycles: 45798592
0banks busy for write cycles: 12402
1banks busy for read cycles: 5433469
1banks busy for write cycles: 1908883
2banks busy for read cycles: 1156184
2banks busy for write cycles: 616054
3banks busy for read cycles: 645166
3banks busy for write cycles: 383544
4banks busy for read cycles: 266758
4banks busy for write cycles: 161526
5banks busy for read cycles: 202794
5banks busy for write cycles: 98422
6banks busy for read cycles: 102306
6banks busy for write cycles: 58079
7banks busy for read cycles: 63648
7banks busy for write cycles: 30321
8banks busy for read cycles: 69437
8banks busy for write cycles: 17507

CPU 0 Branch Prediction Accuracy: 99.9872% MPKI: 0.00114 Average ROB Occupancy at Mispredict: 37.3509
Branch types
NOT_BRANCH: 49554269 99.1085%
BRANCH_DIRECT_JUMP: 54526 0.109052%
BRANCH_INDIRECT: 9087 0.018174%
BRANCH_CONDITIONAL: 272740 0.54548%
BRANCH_DIRECT_CALL: 54526 0.109052%
BRANCH_INDIRECT_CALL: 0 0%
BRANCH_RETURN: 54526 0.109052%
BRANCH_OTHER: 0 0%

@sumon_overall_L1D         0         0         0         0         0         0         0
@Sumon_Early_by_class_L1D         0         0         0         0
@Sumon_Late_by_class_L1D         0         0         0         0

@Sumon_Early_by_cycle_L1D         0         0         0         0         0         0         0         0         0         0         0         0
@Sumon_Late_by_cycle_L1D         0         0         0         0         0         0
@Sumon_Early_stream_L1D         0         0         0         0         0         0         0         0         0         0         0         0
@Sumon_Early_CS_L1D         0         0         0         0         0         0         0         0         0         0         0         0
@Sumon_Early_CPLX_L1D         0         0         0         0         0         0         0         0         0         0         0         0
@Sumon_Late_stream_L1D         0         0         0         0         0         0
@Sumon_Late_CS_L1D         0         0         0         0         0         0
@Sumon_Late_CPLX_L1D         0         0         0         0         0         0
@sumon_overall_L2C     76639       652         0      7626     84186    695341    695341
@Sumon_Early_by_class_L2C         0         0         0         0
@Sumon_Late_by_class_L2C         0         0         0         0

@Sumon_Early_by_cycle_L2C       730       301       100        19        21        41         8      1602      6473     17934     17852     31558
@Sumon_Late_by_cycle_L2C       130       235       113        47       127         0
@Sumon_Early_stream_L2C         0         0         0         0         0         0         0         0         0         0         0         0
@Sumon_Early_CS_L2C         0         0         0         0         0         0         0         0         0         0         0         0
@Sumon_Early_CPLX_L2C         0         0         0         0         0         0         0         0         0         0         0         0
@Sumon_Late_stream_L2C         0         0         0         0         0         0
@Sumon_Late_CS_L2C         0         0         0         0         0         0
@Sumon_Late_CPLX_L2C         0         0         0         0         0         0
DRAM PAGES: 1048576
Allocated PAGES: 4534
