
*** ChampSim Multicore Out-of-Order Simulator ***

Warmup Instructions: 50000000
Simulation Instructions: 50000000
Number of CPUs: 1
LLC sets: 2048
LLC ways: 16
Off-chip DRAM Size: 4096 MB Channels: 1 Width: 64-bit Data Rate: 6400 MT/s
CPU 0 runs ../../biswa/SPEC2017Traces/619.lbm_s-2677B.champsimtrace.xz
.xz
CPU 0 Bimodal branch predictor
BTB has LRU replacement policy
ITLB has LRU replacement policy
DTLB has LRU replacement policy
STLB has LRU replacement policy
L1I has LRU replacement policy
L1D has LRU replacement policy
Bingo PHT WAYS: 16 and PHT_SIZE: 16384
Initialize DRRIP state for L2C
Initialize DRRIP state for LLC
epoch: 1000
next table: 2873
cur table: 13452
epoch: 1000
next table: 2681
cur table: 2873
epoch: 1000
next table: 2659
cur table: 2681
epoch: 1000
next table: 2643
cur table: 2659
epoch: 1000
next table: 2651
cur table: 2643
epoch: 1000
next table: 2652
cur table: 2651
epoch: 1000
next table: 2570
cur table: 2652
epoch: 1000
next table: 2657
cur table: 2570
epoch: 1000
next table: 2610
cur table: 2657
epoch: 1000
next table: 2621
cur table: 2610
epoch: 1000
next table: 2682
cur table: 2621
epoch: 1000
next table: 2653
cur table: 2682
epoch: 1000
next table: 2611
cur table: 2653
epoch: 1000
next table: 2539
cur table: 2611
epoch: 1000
next table: 2475
cur table: 2539
epoch: 1000
next table: 2574
cur table: 2475
epoch: 1000
next table: 2509
cur table: 2574
epoch: 1000
next table: 2590
cur table: 2509
epoch: 1000
next table: 2587
cur table: 2590
epoch: 1000
next table: 2591
cur table: 2587
epoch: 1000
next table: 2626
cur table: 2591
epoch: 1000
next table: 2673
cur table: 2626
epoch: 1000
next table: 2638
cur table: 2673
epoch: 1000
next table: 2605
cur table: 2638
epoch: 1000
next table: 2522
cur table: 2605
epoch: 1000
next table: 2535
cur table: 27728
epoch: 1000
next table: 2587
cur table: 2522
epoch: 1000
next table: 2576
cur table: 2587
epoch: 1000
next table: 1914
cur table: 2535
epoch: 1000
next table: 2565
cur table: 2576
epoch: 1000
next table: 1980
cur table: 1914
epoch: 1000
next table: 2644
cur table: 2565
epoch: 1000
next table: 1828
cur table: 1980
epoch: 1000
next table: 2649
cur table: 2644
epoch: 1000
next table: 1803
cur table: 1828
epoch: 1000
next table: 2625
cur table: 2649
epoch: 1000
next table: 1784
cur table: 1803
epoch: 1000
next table: 2646
cur table: 2625
epoch: 1000
next table: 1782
cur table: 1784
epoch: 1000
next table: 2643
cur table: 2646
epoch: 1000
next table: 1790
cur table: 1782
epoch: 1000
next table: 2636
cur table: 2643
epoch: 1000
next table: 1792
cur table: 1790
epoch: 1000
next table: 2651
cur table: 2636
epoch: 1000
next table: 1796
cur table: 1792
epoch: 1000
next table: 2638
cur table: 2651
epoch: 1000
next table: 1786
cur table: 1796
epoch: 1000
next table: 2697
cur table: 2638
epoch: 1000
next table: 1767
cur table: 1786
epoch: 1000
next table: 2646
cur table: 2697
epoch: 1000
next table: 1765
cur table: 1767
epoch: 1000
next table: 2661
cur table: 2646
epoch: 1000
next table: 1804
cur table: 1765
epoch: 1000
next table: 2627
cur table: 2661
epoch: 1000
next table: 1802
cur table: 1804
epoch: 1000
next table: 2677
cur table: 2627
epoch: 1000
next table: 1791
cur table: 1802
epoch: 1000
next table: 2630
cur table: 2677
epoch: 1000
next table: 1791
cur table: 1791
epoch: 1000
next table: 2647
cur table: 2630
epoch: 1000
next table: 1763
cur table: 1791
epoch: 1000
next table: 2645
cur table: 2647
epoch: 1000
next table: 1781
cur table: 1763
epoch: 1000
next table: 2655
cur table: 2645
epoch: 1000
next table: 1802
cur table: 1781
epoch: 1000
next table: 2624
cur table: 2655
epoch: 1000
next table: 1769
cur table: 1802
epoch: 1000
next table: 2645
cur table: 2624
epoch: 1000
next table: 1807
cur table: 1769
epoch: 1000
next table: 2646
cur table: 2645
epoch: 1000
next table: 1812
cur table: 1807
epoch: 1000
next table: 2587
cur table: 2646
epoch: 1000
next table: 1811
cur table: 1812
epoch: 1000
next table: 2635
cur table: 2587
epoch: 1000
next table: 1768
cur table: 1811
epoch: 1000
next table: 2659
cur table: 2635
epoch: 1000
next table: 1789
cur table: 1768
epoch: 1000
next table: 2660
cur table: 2659
epoch: 1000
next table: 1779
cur table: 1789
epoch: 1000
next table: 2632
cur table: 2660
epoch: 1000
next table: 1804
cur table: 1779
epoch: 1000
next table: 2654
cur table: 2632
epoch: 1000
next table: 1798
cur table: 1804
epoch: 1000
next table: 2636
cur table: 2654
epoch: 1000
next table: 1817
cur table: 1798
epoch: 1000
next table: 2603
cur table: 2636
epoch: 1000
next table: 1839
cur table: 1817
epoch: 1000
next table: 2560
cur table: 2603
epoch: 1000
next table: 1816
cur table: 1839
epoch: 1000
next table: 2609
cur table: 2560
epoch: 1000
next table: 1817
cur table: 1816
epoch: 1000
next table: 2603
cur table: 2609
epoch: 1000
next table: 1784
cur table: 1817
epoch: 1000
next table: 2646
cur table: 2603
epoch: 1000
next table: 1791
cur table: 1784
epoch: 1000
next table: 2631
cur table: 2646
epoch: 1000
next table: 1816
cur table: 1791
epoch: 1000
next table: 2600
cur table: 2631
epoch: 1000
next table: 1801
cur table: 1816
epoch: 1000
next table: 2653
cur table: 2600
epoch: 1000
next table: 2499
cur table: 2653
epoch: 1000
next table: 1869
cur table: 1801
epoch: 1000
next table: 2633
cur table: 2499
epoch: 1000
next table: 1785
cur table: 1869
epoch: 1000
next table: 2582
cur table: 2633
epoch: 1000
next table: 1820
cur table: 1785
epoch: 1000
next table: 2671
cur table: 2582
epoch: 1000
next table: 1787
cur table: 1820
epoch: 1000
next table: 2666
cur table: 2671
epoch: 1000
next table: 1798
cur table: 1787
epoch: 1000
next table: 2656
cur table: 2666
epoch: 1000
next table: 1763
cur table: 1798
epoch: 1000
next table: 2618
cur table: 2656
epoch: 1000
next table: 1812
cur table: 1763
epoch: 1000
next table: 2646
cur table: 2618
epoch: 1000
next table: 1798
cur table: 1812
epoch: 1000
next table: 2570
cur table: 2646
epoch: 1000
next table: 1841
cur table: 1798
epoch: 1000
next table: 2598
cur table: 2570
epoch: 1000
next table: 1827
cur table: 1841
epoch: 1000
next table: 2626
cur table: 2598
epoch: 1000
next table: 1788
cur table: 1827
epoch: 1000
next table: 2666
cur table: 2626
epoch: 1000
next table: 1765
cur table: 1788
epoch: 1000
next table: 2645
cur table: 2666
epoch: 1000
next table: 1790
cur table: 1765
epoch: 1000
next table: 2689
cur table: 2645
epoch: 1000
next table: 1777
cur table: 1790
epoch: 1000
next table: 2630
cur table: 2689
epoch: 1000
next table: 1779
cur table: 1777
epoch: 1000
next table: 2664
cur table: 2630
epoch: 1000
next table: 1786
cur table: 1779
epoch: 1000
next table: 2628
cur table: 2664
epoch: 1000
next table: 1783
cur table: 1786
epoch: 1000
next table: 2678
cur table: 2628
epoch: 1000
next table: 1778
cur table: 1783
epoch: 1000
next table: 2659
cur table: 2678
epoch: 1000
next table: 1772
cur table: 1778
epoch: 1000
next table: 2653
cur table: 2659
epoch: 1000
next table: 1773
cur table: 1772
epoch: 1000
next table: 2638
cur table: 2653
epoch: 1000
next table: 1772
cur table: 1773
epoch: 1000
next table: 2687
cur table: 2638
epoch: 1000
next table: 1782
cur table: 1772
epoch: 1000
next table: 2683
cur table: 2687
epoch: 1000
next table: 1762
cur table: 1782
epoch: 1000
next table: 2655
cur table: 2683
epoch: 1000
next table: 1778
cur table: 1762
epoch: 1000
next table: 2641
cur table: 2655
epoch: 1000
next table: 1773
cur table: 1778
epoch: 1000
next table: 2677
cur table: 2641
epoch: 1000
next table: 1785
cur table: 1773
epoch: 1000
next table: 2651
cur table: 2677
epoch: 1000
next table: 1773
cur table: 1785
epoch: 1000
next table: 2686
cur table: 2651
epoch: 1000
next table: 1774
cur table: 1773
epoch: 1000
next table: 2649
cur table: 2686
epoch: 1000
next table: 1792
cur table: 1774
epoch: 1000
next table: 2669
cur table: 2649
epoch: 1000
next table: 1804
cur table: 1792
epoch: 1000
next table: 2643
cur table: 2669
epoch: 1000
next table: 1777
cur table: 1804
epoch: 1000
next table: 2680
cur table: 2643
epoch: 1000
next table: 1774
cur table: 1777
epoch: 1000
next table: 2652
cur table: 2680
epoch: 1000
next table: 1819
cur table: 1774
epoch: 1000
next table: 2654
cur table: 2652
epoch: 1000
next table: 1775
cur table: 1819
epoch: 1000
next table: 2652
cur table: 2654
epoch: 1000
next table: 1763
cur table: 1775
epoch: 1000
next table: 2671
cur table: 2652
epoch: 1000
next table: 1795
cur table: 1763
epoch: 1000
next table: 2665
cur table: 2671
epoch: 1000
next table: 1752
cur table: 1795
epoch: 1000
next table: 2672
cur table: 2665
epoch: 1000
next table: 1791
cur table: 1752
epoch: 1000
next table: 2643
cur table: 2672
epoch: 1000
next table: 1781
cur table: 1791
epoch: 1000
next table: 2649
cur table: 2643
epoch: 1000
next table: 1775
cur table: 1781
epoch: 1000
next table: 2694
cur table: 2649
epoch: 1000
next table: 1789
cur table: 1775
epoch: 1000
next table: 2651
cur table: 2694
epoch: 1000
next table: 1807
cur table: 1789
epoch: 1000
next table: 2673
cur table: 2651
epoch: 1000
next table: 1766
cur table: 1807
epoch: 1000
next table: 2645
cur table: 2673
epoch: 1000
next table: 1800
cur table: 1766
epoch: 1000
next table: 2658
cur table: 2645
epoch: 1000
next table: 1759
cur table: 1800
epoch: 1000
next table: 2661
cur table: 2658
epoch: 1000
next table: 1776
cur table: 1759
epoch: 1000
next table: 2688
cur table: 2661
epoch: 1000
next table: 1768
cur table: 1776
epoch: 1000
next table: 2642
cur table: 2688
epoch: 1000
next table: 1812
cur table: 1768
epoch: 1000
next table: 2612
cur table: 2642
epoch: 1000
next table: 1794
cur table: 1812
epoch: 1000
next table: 2655
cur table: 2612
epoch: 1000
next table: 1777
cur table: 1794
epoch: 1000
next table: 2651
cur table: 2655
epoch: 1000
next table: 1780
cur table: 1777
epoch: 1000
next table: 2634
cur table: 2651
epoch: 1000
next table: 1775
cur table: 1780
epoch: 1000
next table: 2639
cur table: 2634
epoch: 1000
next table: 1772
cur table: 1775
epoch: 1000
next table: 2674
cur table: 2639
epoch: 1000
next table: 1778
cur table: 1772
epoch: 1000
next table: 2677
cur table: 2674
epoch: 1000
next table: 1760
cur table: 1778
epoch: 1000
next table: 2646
cur table: 2677
epoch: 1000
next table: 1768
cur table: 1760
epoch: 1000
next table: 2645
cur table: 2646
epoch: 1000
next table: 1763
cur table: 1768
epoch: 1000
next table: 2652
cur table: 2645
epoch: 1000
next table: 1804
cur table: 1763
epoch: 1000
next table: 2612
cur table: 2652
epoch: 1000
next table: 1795
cur table: 1804
epoch: 1000
next table: 2577
cur table: 2612
epoch: 1000
next table: 1799
cur table: 1795
epoch: 1000
next table: 2583
cur table: 2577
epoch: 1000
next table: 1794
cur table: 1799
epoch: 1000
next table: 2613
cur table: 2583
epoch: 1000
next table: 1795
cur table: 1794
epoch: 1000
next table: 2664
cur table: 2613
epoch: 1000
next table: 1801
cur table: 1795
epoch: 1000
next table: 2648
cur table: 2664
epoch: 1000
next table: 1799
cur table: 1801
epoch: 1000
next table: 2676
cur table: 2648
epoch: 1000
next table: 1797
cur table: 1799
epoch: 1000
next table: 2648
cur table: 2676
epoch: 1000
next table: 1827
cur table: 1797
epoch: 1000
next table: 2654
cur table: 2648
epoch: 1000
next table: 1818
cur table: 1827
epoch: 1000
next table: 2584
cur table: 2654
epoch: 1000
next table: 1801
cur table: 1818
epoch: 1000
next table: 2645
cur table: 2584
epoch: 1000
next table: 1786
cur table: 1801
epoch: 1000
next table: 2610
cur table: 2645
epoch: 1000
next table: 1766
cur table: 1786
epoch: 1000
next table: 2639
cur table: 2610
epoch: 1000
next table: 1779
cur table: 1766
epoch: 1000
next table: 2670
cur table: 2639
epoch: 1000
next table: 1765
cur table: 1779
epoch: 1000
next table: 2669
cur table: 2670
epoch: 1000
next table: 1768
cur table: 1765
epoch: 1000
next table: 2649
cur table: 2669
epoch: 1000
next table: 1788
cur table: 1768
epoch: 1000
next table: 2620
cur table: 2649
epoch: 1000
next table: 1770
cur table: 1788
epoch: 1000
next table: 2667
cur table: 2620
epoch: 1000
next table: 1764
cur table: 1770
epoch: 1000
next table: 2679
cur table: 2667
epoch: 1000
next table: 1781
cur table: 1764
epoch: 1000
next table: 2647
cur table: 2679
epoch: 1000
next table: 1772
cur table: 1781
epoch: 1000
next table: 2650
cur table: 2647
epoch: 1000
next table: 1765
cur table: 1772
epoch: 1000
next table: 2675
cur table: 2650
epoch: 1000
next table: 1773
cur table: 1765
epoch: 1000
next table: 2666
cur table: 2675
epoch: 1000
next table: 1803
cur table: 1773
epoch: 1000
next table: 2579
cur table: 2666
epoch: 1000
next table: 1817
cur table: 1803
epoch: 1000
next table: 2614
cur table: 2579
epoch: 1000
next table: 1815
cur table: 1817
epoch: 1000
next table: 2600
cur table: 2614
epoch: 1000
next table: 1795
cur table: 1815
epoch: 1000
next table: 2661
cur table: 2600
epoch: 1000
next table: 1838
cur table: 1795
epoch: 1000
next table: 2547
cur table: 2661
epoch: 1000
next table: 1786
cur table: 1838
epoch: 1000
next table: 2613
cur table: 2547
epoch: 1000
next table: 1821
cur table: 1786
epoch: 1000
next table: 2629
cur table: 2613
epoch: 1000
next table: 1787
cur table: 1821
epoch: 1000
next table: 2616
cur table: 2629
epoch: 1000
next table: 1797
cur table: 1787
epoch: 1000
next table: 2650
cur table: 2616
epoch: 1000
next table: 1800
cur table: 1797
epoch: 1000
next table: 2665
cur table: 2650
epoch: 1000
next table: 1779
cur table: 1800
epoch: 1000
next table: 2629
cur table: 2665
epoch: 1000
next table: 1819
cur table: 1779
epoch: 1000
next table: 2612
cur table: 2629
epoch: 1000
next table: 2635
cur table: 2612
epoch: 1000
next table: 1823
cur table: 1819
epoch: 1000
next table: 2618
cur table: 2635
epoch: 1000
next table: 1793
cur table: 1823
epoch: 1000
next table: 2631
cur table: 2618
epoch: 1000
next table: 1779
cur table: 1793
epoch: 1000
next table: 2571
cur table: 2631
epoch: 1000
next table: 1845
cur table: 1779
epoch: 1000
next table: 2560
cur table: 2571
epoch: 1000
next table: 1863
cur table: 1845
epoch: 1000
next table: 2566
cur table: 2560
epoch: 1000
next table: 1855
cur table: 1863
epoch: 1000
next table: 2653
cur table: 2566
epoch: 1000
next table: 1775
cur table: 1855
epoch: 1000
next table: 2612
cur table: 2653
epoch: 1000
next table: 1823
cur table: 1775
epoch: 1000
next table: 2514
cur table: 2612
epoch: 1000
next table: 1841
cur table: 1823
epoch: 1000
next table: 2589
cur table: 2514
epoch: 1000
next table: 1848
cur table: 1841
epoch: 1000
next table: 2593
cur table: 2589
epoch: 1000
next table: 1790
cur table: 1848
epoch: 1000
next table: 2638
cur table: 2593
epoch: 1000
next table: 1797
cur table: 1790
epoch: 1000
next table: 2674
cur table: 2638
epoch: 1000
next table: 1769
cur table: 1797
epoch: 1000
next table: 2644
cur table: 2674
epoch: 1000
next table: 1779
cur table: 1769
epoch: 1000
next table: 2613
cur table: 2644
epoch: 1000
next table: 1796
cur table: 1779
epoch: 1000
next table: 2684
cur table: 2613
epoch: 1000
next table: 1774
cur table: 1796
epoch: 1000
next table: 2661
cur table: 2684
epoch: 1000
next table: 1791
cur table: 1774
epoch: 1000
next table: 2539
cur table: 2661
epoch: 1000
next table: 1856
cur table: 1791
epoch: 1000
next table: 2533
cur table: 2539
epoch: 1000
next table: 1841
cur table: 1856
epoch: 1000
next table: 2665
cur table: 2533
epoch: 1000
next table: 1776
cur table: 1841
epoch: 1000
next table: 2683
cur table: 2665
epoch: 1000
next table: 1812
cur table: 1776
epoch: 1000
next table: 2597
cur table: 2683
epoch: 1000
next table: 1779
cur table: 1812
epoch: 1000
next table: 2644
cur table: 2597
epoch: 1000
next table: 1809
cur table: 1779
epoch: 1000
next table: 2664
cur table: 2644
epoch: 1000
next table: 1838
cur table: 1809
epoch: 1000
next table: 2542
cur table: 2664
epoch: 1000
next table: 1878
cur table: 1838
epoch: 1000
next table: 2519
cur table: 2542
epoch: 1000
next table: 1844
cur table: 1878
epoch: 1000
next table: 2604
cur table: 2519
epoch: 1000
next table: 1799
cur table: 1844
epoch: 1000
next table: 2598
cur table: 2604
epoch: 1000
next table: 1805
cur table: 1799
epoch: 1000
next table: 2633
cur table: 2598
epoch: 1000
next table: 1797
cur table: 1805
epoch: 1000
next table: 2630
cur table: 2633
epoch: 1000
next table: 1816
cur table: 1797
epoch: 1000
next table: 2622
cur table: 2630
epoch: 1000
next table: 1822
cur table: 1816
epoch: 1000
next table: 2634
cur table: 2622
epoch: 1000
next table: 2621
cur table: 2634
epoch: 1000
next table: 1801
cur table: 1822
epoch: 1000
next table: 2565
cur table: 2621
epoch: 1000
next table: 1841
cur table: 1801
epoch: 1000
next table: 2574
cur table: 2565
epoch: 1000
next table: 1841
cur table: 1841
epoch: 1000
next table: 2633
cur table: 2574
epoch: 1000
next table: 1810
cur table: 1841
epoch: 1000
next table: 2612
cur table: 2633
epoch: 1000
next table: 1793
cur table: 1810
epoch: 1000
next table: 2627
cur table: 2612
epoch: 1000
next table: 1771
cur table: 1793
epoch: 1000
next table: 2637
cur table: 2627
epoch: 1000
next table: 1821
cur table: 1771
epoch: 1000
next table: 2550
cur table: 2637
epoch: 1000
next table: 1864
cur table: 1821
epoch: 1000
next table: 2508
cur table: 2550
epoch: 1000
next table: 1871
cur table: 1864
epoch: 1000
next table: 2550
cur table: 2508
epoch: 1000
next table: 1849
cur table: 1871
epoch: 1000
next table: 2616
cur table: 2550
epoch: 1000
next table: 1799
cur table: 1849
epoch: 1000
next table: 2608
cur table: 2616
epoch: 1000
next table: 1816
cur table: 1799
epoch: 1000
next table: 2617
cur table: 2608
epoch: 1000
next table: 1806
cur table: 1816
epoch: 1000
next table: 2681
cur table: 2617
epoch: 1000
next table: 1785
cur table: 1806
epoch: 1000
next table: 2632
cur table: 2681
epoch: 1000
next table: 1809
cur table: 1785
epoch: 1000
next table: 2626
cur table: 2632
epoch: 1000
next table: 1813
cur table: 1809
epoch: 1000
next table: 2671
cur table: 2626
epoch: 1000
next table: 1795
cur table: 1813
epoch: 1000
next table: 2602
cur table: 2671
epoch: 1000
next table: 1811
cur table: 1795
epoch: 1000
next table: 2629
cur table: 2602
epoch: 1000
next table: 1776
cur table: 1811
epoch: 1000
next table: 2649
cur table: 2629
epoch: 1000
next table: 1784
cur table: 1776
epoch: 1000
next table: 2652
cur table: 2649
epoch: 1000
next table: 1765
cur table: 1784
epoch: 1000
next table: 2647
cur table: 2652
epoch: 1000
next table: 1777
cur table: 1765
epoch: 1000
next table: 2640
cur table: 2647
epoch: 1000
next table: 1786
cur table: 1777
epoch: 1000
next table: 2675
cur table: 2640
epoch: 1000
next table: 1809
cur table: 1786
epoch: 1000
next table: 2624
cur table: 2675
epoch: 1000
next table: 1771
cur table: 1809
epoch: 1000
next table: 2670
cur table: 2624
epoch: 1000
next table: 1793
cur table: 1771
epoch: 1000
next table: 2621
cur table: 2670
epoch: 1000
next table: 1785
cur table: 1793
epoch: 1000
next table: 2643
cur table: 2621
epoch: 1000
next table: 1791
cur table: 1785
epoch: 1000
next table: 2648
cur table: 2643
epoch: 1000
next table: 1807
cur table: 1791
epoch: 1000
next table: 2618
cur table: 2648
epoch: 1000
next table: 1779
cur table: 1807
epoch: 1000
next table: 2681
cur table: 2618
epoch: 1000
next table: 1757
cur table: 1779
epoch: 1000
next table: 2657
cur table: 2681
epoch: 1000
next table: 1776
cur table: 1757
epoch: 1000
next table: 2659
cur table: 2657
epoch: 1000
next table: 1804
cur table: 1776
epoch: 1000
next table: 2637
cur table: 2659
epoch: 1000
next table: 1769
cur table: 1804
epoch: 1000
next table: 2699
cur table: 2637
epoch: 1000
next table: 1770
cur table: 1769
epoch: 1000
next table: 2659
cur table: 2699
epoch: 1000
next table: 1775
cur table: 1770
epoch: 1000
next table: 2652
cur table: 2659
epoch: 1000
next table: 1803
cur table: 1775
epoch: 1000
next table: 2651
cur table: 2652
epoch: 1000
next table: 1789
cur table: 1803
epoch: 1000
next table: 2682
cur table: 2651
epoch: 1000
next table: 1784
cur table: 1789
epoch: 1000
next table: 2641
cur table: 2682
epoch: 1000
next table: 1780
cur table: 1784
epoch: 1000
next table: 2677
cur table: 2641
epoch: 1000
next table: 1775
cur table: 1780
epoch: 1000
next table: 2662
cur table: 2677
epoch: 1000
next table: 1776
cur table: 1775
epoch: 1000
next table: 2654
cur table: 2662
epoch: 1000
next table: 1782
cur table: 1776
epoch: 1000
next table: 2642
cur table: 2654
epoch: 1000
next table: 1766
cur table: 1782
epoch: 1000
next table: 2678
cur table: 2642
epoch: 1000
next table: 1769
cur table: 1766
epoch: 1000
next table: 2687
cur table: 2678
epoch: 1000
next table: 1773
cur table: 1769
epoch: 1000
next table: 2652
cur table: 2687
epoch: 1000
next table: 1778
cur table: 1773
epoch: 1000
next table: 2645
cur table: 2652
epoch: 1000
next table: 1793
cur table: 1778
epoch: 1000
next table: 2652
cur table: 2645
epoch: 1000
next table: 1784
cur table: 1793
epoch: 1000
next table: 2674
cur table: 2652
epoch: 1000
next table: 1822
cur table: 1784
epoch: 1000
next table: 2604
cur table: 2674
epoch: 1000
next table: 1836
cur table: 1822
epoch: 1000
next table: 2572
cur table: 2604
epoch: 1000
next table: 1798
cur table: 1836
epoch: 1000
next table: 2598
cur table: 2572
epoch: 1000
next table: 1813
cur table: 1798
epoch: 1000
next table: 2639
cur table: 2598
epoch: 1000
next table: 1782
cur table: 1813
epoch: 1000
next table: 2675
cur table: 2639
epoch: 1000
next table: 1790
cur table: 1782
epoch: 1000
next table: 2650
cur table: 2675
epoch: 1000
next table: 1783
cur table: 1790
epoch: 1000
next table: 2622
cur table: 2650
epoch: 1000
next table: 1773
cur table: 1783
epoch: 1000
next table: 2657
cur table: 2622
epoch: 1000
next table: 1804
cur table: 1773
epoch: 1000
next table: 2685
cur table: 2657
epoch: 1000
next table: 1786
cur table: 1804
epoch: 1000
next table: 2651
cur table: 2685
epoch: 1000
next table: 1798
cur table: 1786
epoch: 1000
next table: 2611
cur table: 2651
epoch: 1000
next table: 1786
cur table: 1798
epoch: 1000
next table: 2672
cur table: 2611
epoch: 1000
next table: 1810
cur table: 1786
epoch: 1000
next table: 2668
cur table: 2672
epoch: 1000
next table: 1803
cur table: 1810
epoch: 1000
next table: 2632
cur table: 2668
epoch: 1000
next table: 1797
cur table: 1803
epoch: 1000
next table: 2634
cur table: 2632
epoch: 1000
next table: 1776
cur table: 1797
epoch: 1000
next table: 2693
cur table: 2634
epoch: 1000
next table: 1823
cur table: 1776
epoch: 1000
next table: 2645
cur table: 2693
epoch: 1000
next table: 1780
cur table: 1823
epoch: 1000
next table: 2609
cur table: 2645
epoch: 1000
next table: 1812
cur table: 1780
epoch: 1000
next table: 2628
cur table: 2609
epoch: 1000
next table: 1809
cur table: 1812
epoch: 1000
next table: 2651
cur table: 2628
epoch: 1000
next table: 2568
cur table: 2651
epoch: 1000
next table: 1820
cur table: 1809
epoch: 1000
next table: 2667
cur table: 2568
epoch: 1000
next table: 1768
cur table: 1820
epoch: 1000
next table: 2667
cur table: 2667
epoch: 1000
next table: 1791
cur table: 1768
epoch: 1000
next table: 2619
cur table: 2667
epoch: 1000
next table: 1776
cur table: 1791
epoch: 1000
next table: 2673
cur table: 2619
epoch: 1000
next table: 1772
cur table: 1776
epoch: 1000
next table: 2651
cur table: 2673
epoch: 1000
next table: 1762
cur table: 1772
epoch: 1000
next table: 2681
cur table: 2651
epoch: 1000
next table: 1780
cur table: 1762
epoch: 1000
next table: 2656
cur table: 2681
epoch: 1000
next table: 1762
cur table: 1780
epoch: 1000
next table: 2665
cur table: 2656
epoch: 1000
next table: 1806
cur table: 1762
epoch: 1000
next table: 2618
cur table: 2665
epoch: 1000
next table: 1797
cur table: 1806
epoch: 1000
next table: 2696
cur table: 2618
epoch: 1000
next table: 1774
cur table: 1797
epoch: 1000
next table: 2627
cur table: 2696
epoch: 1000
next table: 1805
cur table: 1774
epoch: 1000
next table: 2651
cur table: 2627
epoch: 1000
next table: 1779
cur table: 1805
epoch: 1000
next table: 2636
cur table: 2651
epoch: 1000
next table: 1797
cur table: 1779
epoch: 1000
next table: 2678
cur table: 2636
epoch: 1000
next table: 1806
cur table: 1797
epoch: 1000
next table: 2645
cur table: 2678
epoch: 1000
next table: 1792
cur table: 1806
epoch: 1000
next table: 2600
cur table: 2645
epoch: 1000
next table: 1802
cur table: 1792
epoch: 1000
next table: 2639
cur table: 2600
epoch: 1000
next table: 1853
cur table: 1802
epoch: 1000
next table: 2552
cur table: 2639
epoch: 1000
next table: 1827
cur table: 1853
epoch: 1000
next table: 2649
cur table: 2552
epoch: 1000
next table: 1831
cur table: 1827
epoch: 1000
next table: 2593
cur table: 2649
epoch: 1000
next table: 1804
cur table: 1831
epoch: 1000
next table: 2636
cur table: 2593
epoch: 1000
next table: 1817
cur table: 1804
epoch: 1000
next table: 2600
cur table: 2636
epoch: 1000
next table: 1792
cur table: 1817
epoch: 1000
next table: 2622
cur table: 2600
epoch: 1000
next table: 1799
cur table: 1792
epoch: 1000
next table: 2672
cur table: 2622
epoch: 1000
next table: 1785
cur table: 1799
epoch: 1000
next table: 2618
cur table: 2672
epoch: 1000
next table: 1796
cur table: 1785
epoch: 1000
next table: 2642
cur table: 2618
epoch: 1000
next table: 1785
cur table: 1796
epoch: 1000
next table: 2669
cur table: 2642
epoch: 1000
next table: 1826
cur table: 1785
epoch: 1000
next table: 2654
cur table: 2669
epoch: 1000
next table: 1787
cur table: 1826
epoch: 1000
next table: 2645
cur table: 2654
epoch: 1000
next table: 1796
cur table: 1787
epoch: 1000
next table: 2629
cur table: 2645
epoch: 1000
next table: 1806
cur table: 1796
epoch: 1000
next table: 2612
cur table: 2629
epoch: 1000
next table: 1818
cur table: 1806
epoch: 1000
next table: 2581
cur table: 2612
epoch: 1000
next table: 1811
cur table: 1818
epoch: 1000
next table: 2654
cur table: 2581
epoch: 1000
next table: 1800
cur table: 1811
epoch: 1000
next table: 2629
cur table: 2654
epoch: 1000
next table: 1786
cur table: 1800
epoch: 1000
next table: 2648
cur table: 2629
epoch: 1000
next table: 1774
cur table: 1786
epoch: 1000
next table: 2658
cur table: 2648
epoch: 1000
next table: 1798
cur table: 1774
epoch: 1000
next table: 2672
cur table: 2658
epoch: 1000
next table: 1778
cur table: 1798
epoch: 1000
next table: 2617
cur table: 2672
epoch: 1000
next table: 1790
cur table: 1778
epoch: 1000
next table: 2615
cur table: 2617
epoch: 1000
next table: 1785
cur table: 1790
epoch: 1000
next table: 2668
cur table: 2615
epoch: 1000
next table: 1804
cur table: 1785
epoch: 1000
next table: 2638
cur table: 2668
epoch: 1000
next table: 1779
cur table: 1804
epoch: 1000
next table: 2662
cur table: 2638
epoch: 1000
next table: 1799
cur table: 1779
epoch: 1000
next table: 2641
cur table: 2662
epoch: 1000
next table: 1803
cur table: 1799
epoch: 1000
next table: 2668
cur table: 2641
epoch: 1000
next table: 1764
cur table: 1803
epoch: 1000
next table: 2652
cur table: 2668
epoch: 1000
next table: 1764
cur table: 1764
epoch: 1000
next table: 2642
cur table: 2652
epoch: 1000
next table: 1772
cur table: 1764
epoch: 1000
next table: 2677
cur table: 2642
epoch: 1000
next table: 1787
cur table: 1772
epoch: 1000
next table: 2663
cur table: 2677
epoch: 1000
next table: 1766
cur table: 1787
epoch: 1000
next table: 2664
cur table: 2663
epoch: 1000
next table: 1780
cur table: 1766
epoch: 1000
next table: 2644
cur table: 2664
epoch: 1000
next table: 1801
cur table: 1780
epoch: 1000
next table: 2665
cur table: 2644
epoch: 1000
next table: 1816
cur table: 1801
epoch: 1000
next table: 2662
cur table: 2665
epoch: 1000
next table: 1792
cur table: 1816
epoch: 1000
next table: 2641
cur table: 2662
epoch: 1000
next table: 1800
cur table: 1792
epoch: 1000
next table: 2604
cur table: 2641
epoch: 1000
next table: 1801
cur table: 1800
epoch: 1000
next table: 2643
cur table: 2604
epoch: 1000
next table: 1857
cur table: 1801
epoch: 1000
next table: 2633
cur table: 2643
epoch: 1000
next table: 1775
cur table: 1857
epoch: 1000
next table: 2635
cur table: 2633
epoch: 1000
next table: 1814
cur table: 1775
epoch: 1000
next table: 2579
cur table: 2635
epoch: 1000
next table: 1893
cur table: 1814
epoch: 1000
next table: 2494
cur table: 2579
epoch: 1000
next table: 1867
cur table: 1893
epoch: 1000
next table: 2530
cur table: 2494
epoch: 1000
next table: 1786
cur table: 1867
epoch: 1000
next table: 2615
cur table: 2530
epoch: 1000
next table: 1819
cur table: 1786
epoch: 1000
next table: 2641
cur table: 2615
epoch: 1000
next table: 1787
cur table: 1819
epoch: 1000
next table: 2666
cur table: 2641
epoch: 1000
next table: 1792
cur table: 1787
epoch: 1000
next table: 2668
cur table: 2666
epoch: 1000
next table: 2616
cur table: 2668
epoch: 1000
next table: 1790
cur table: 1792
epoch: 1000
next table: 2660
cur table: 2616
epoch: 1000
next table: 1807
cur table: 1790
epoch: 1000
next table: 2582
cur table: 2660
epoch: 1000
next table: 1849
cur table: 1807
epoch: 1000
next table: 2634
cur table: 2582
epoch: 1000
next table: 1834
cur table: 1849
epoch: 1000
next table: 2636
cur table: 2634
epoch: 1000
next table: 1774
cur table: 1834
epoch: 1000
next table: 2653
cur table: 2636
epoch: 1000
next table: 1777
cur table: 1774
epoch: 1000
next table: 2637
cur table: 2653
epoch: 1000
next table: 1773
cur table: 1777
epoch: 1000
next table: 2650
cur table: 2637
epoch: 1000
next table: 1803
cur table: 1773
epoch: 1000
next table: 2672
cur table: 2650
epoch: 1000
next table: 1807
cur table: 1803
epoch: 1000
next table: 2656
cur table: 2672
epoch: 1000
next table: 1798
cur table: 1807
epoch: 1000
next table: 2638
cur table: 2656
epoch: 1000
next table: 1772
cur table: 1798
epoch: 1000
next table: 2669
cur table: 2638
epoch: 1000
next table: 1774
cur table: 1772
epoch: 1000
next table: 2649
cur table: 2669
epoch: 1000
next table: 1788
cur table: 1774
epoch: 1000
next table: 2646
cur table: 2649
epoch: 1000
next table: 1790
cur table: 1788
epoch: 1000
next table: 2660
cur table: 2646
epoch: 1000
next table: 1766
cur table: 1790
epoch: 1000
next table: 2637
cur table: 2660
epoch: 1000
next table: 1783
cur table: 1766
epoch: 1000
next table: 2697
cur table: 2637
epoch: 1000
next table: 1779
cur table: 1783
epoch: 1000
next table: 2664
cur table: 2697
epoch: 1000
next table: 1787
cur table: 1779
epoch: 1000
next table: 2634
cur table: 2664
epoch: 1000
next table: 1805
cur table: 1787
epoch: 1000
next table: 2615
cur table: 2634
epoch: 1000
next table: 1805
cur table: 1805
epoch: 1000
next table: 2686
cur table: 2615
epoch: 1000
next table: 1769
cur table: 1805
epoch: 1000
next table: 2638
cur table: 2686
epoch: 1000
next table: 1800
cur table: 1769
epoch: 1000
next table: 2657
cur table: 2638
epoch: 1000
next table: 1806
cur table: 1800
epoch: 1000
next table: 2618
cur table: 2657
epoch: 1000
next table: 1800
cur table: 1806
epoch: 1000
next table: 2698
cur table: 2618
epoch: 1000
next table: 1800
cur table: 1800
epoch: 1000
next table: 2659
cur table: 2698
epoch: 1000
next table: 1780
cur table: 1800
epoch: 1000
next table: 2639
cur table: 2659
epoch: 1000
next table: 1804
cur table: 1780
epoch: 1000
next table: 2620
cur table: 2639
epoch: 1000
next table: 1781
cur table: 1804
epoch: 1000
next table: 2703
cur table: 2620
epoch: 1000
next table: 1828
cur table: 1781
epoch: 1000
next table: 2597
cur table: 2703
epoch: 1000
next table: 1795
cur table: 1828
epoch: 1000
next table: 2595
cur table: 2597
epoch: 1000
next table: 1821
cur table: 1795
epoch: 1000
next table: 2672
cur table: 2595
epoch: 1000
next table: 1777
cur table: 1821
epoch: 1000
next table: 2639
cur table: 2672
epoch: 1000
next table: 1786
cur table: 1777
epoch: 1000
next table: 2648
cur table: 2639
epoch: 1000
next table: 1794
cur table: 1786
epoch: 1000
next table: 2653
cur table: 2648
epoch: 1000
next table: 1787
cur table: 1794
epoch: 1000
next table: 2644
cur table: 2653
epoch: 1000
next table: 1774
cur table: 1787
epoch: 1000
next table: 2660
cur table: 2644
epoch: 1000
next table: 1785
cur table: 1774
epoch: 1000
next table: 2648
cur table: 2660
epoch: 1000
next table: 1790
cur table: 1785
epoch: 1000
next table: 2643
cur table: 2648
epoch: 1000
next table: 1799
cur table: 1790
epoch: 1000
next table: 2631
cur table: 2643
epoch: 1000
next table: 1801
cur table: 1799
epoch: 1000
next table: 2655
cur table: 2631
epoch: 1000
next table: 1782
cur table: 1801
epoch: 1000
next table: 2651
cur table: 2655
epoch: 1000
next table: 1798
cur table: 1782
epoch: 1000
next table: 2654
cur table: 2651
epoch: 1000
next table: 1787
cur table: 1798
epoch: 1000
next table: 2658
cur table: 2654
epoch: 1000
next table: 1792
cur table: 1787
epoch: 1000
next table: 2649
cur table: 2658
epoch: 1000
next table: 1774
cur table: 1792
epoch: 1000
next table: 2640
cur table: 2649
epoch: 1000
next table: 1801
cur table: 1774
epoch: 1000
next table: 2647
cur table: 2640
epoch: 1000
next table: 1796
cur table: 1801
epoch: 1000
next table: 2604
cur table: 2647
epoch: 1000
next table: 1792
cur table: 1796
epoch: 1000
next table: 2664
cur table: 2604
epoch: 1000
next table: 1801
cur table: 1792
epoch: 1000
next table: 2661
cur table: 2664
epoch: 1000
next table: 1834
cur table: 1801
epoch: 1000
next table: 2571
cur table: 2661
epoch: 1000
next table: 1837
cur table: 1834
epoch: 1000
next table: 2623
cur table: 2571
epoch: 1000
next table: 1784
cur table: 1837
epoch: 1000
next table: 2658
cur table: 2623
epoch: 1000
next table: 1793
cur table: 1784
epoch: 1000
next table: 2640
cur table: 2658
epoch: 1000
next table: 1795
cur table: 1793
epoch: 1000
next table: 2629
cur table: 2640
epoch: 1000
next table: 1782
cur table: 1795
epoch: 1000
next table: 2647
cur table: 2629
epoch: 1000
next table: 1790
cur table: 1782
epoch: 1000
next table: 2654
cur table: 2647
epoch: 1000
next table: 1774
cur table: 1790
epoch: 1000
next table: 2638
cur table: 2654
epoch: 1000
next table: 1789
cur table: 1774
epoch: 1000
next table: 2677
cur table: 2638
epoch: 1000
next table: 1780
cur table: 1789
epoch: 1000
next table: 2634
cur table: 2677
epoch: 1000
next table: 1787
cur table: 1780
epoch: 1000
next table: 2608
cur table: 2634
epoch: 1000
next table: 1793
cur table: 1787
epoch: 1000
next table: 2644
cur table: 2608
epoch: 1000
next table: 1778
cur table: 1793
epoch: 1000
next table: 2690
cur table: 2644
epoch: 1000
next table: 1798
cur table: 1778
epoch: 1000
next table: 2643
cur table: 2690
epoch: 1000
next table: 1765
cur table: 1798
epoch: 1000
next table: 2651
cur table: 2643
epoch: 1000
next table: 1790
cur table: 1765
epoch: 1000
next table: 2635
cur table: 2651
epoch: 1000
next table: 1779
cur table: 1790
epoch: 1000
next table: 2671
cur table: 2635
epoch: 1000
next table: 1789
cur table: 1779
epoch: 1000
next table: 2646
cur table: 2671
epoch: 1000
next table: 1792
cur table: 1789
epoch: 1000
next table: 2607
cur table: 2646
epoch: 1000
next table: 1792
cur table: 1792
epoch: 1000
next table: 2671
cur table: 2607
epoch: 1000
next table: 1790
cur table: 1792
epoch: 1000
next table: 2638
cur table: 2671
epoch: 1000
next table: 1794
cur table: 1790
epoch: 1000
next table: 2652
cur table: 2638
epoch: 1000
next table: 1785
cur table: 1794
epoch: 1000
next table: 2625
cur table: 2652
epoch: 1000
next table: 1806
cur table: 1785
epoch: 1000
next table: 2652
cur table: 2625
epoch: 1000
next table: 1823
cur table: 1806
epoch: 1000
next table: 2535
cur table: 2652
epoch: 1000
next table: 1854
cur table: 1823
epoch: 1000
next table: 2508
cur table: 2535
epoch: 1000
next table: 2484
cur table: 2508
epoch: 1000
next table: 1876
cur table: 1854
epoch: 1000
next table: 2630
cur table: 2484
epoch: 1000
next table: 1836
cur table: 1876
epoch: 1000
next table: 2568
cur table: 2630
epoch: 1000
next table: 1841
cur table: 1836
epoch: 1000
next table: 2587
cur table: 2568
epoch: 1000
next table: 1808
cur table: 1841
epoch: 1000
next table: 2599
cur table: 2587
epoch: 1000
next table: 1832
cur table: 1808
epoch: 1000
next table: 2578
cur table: 2599
epoch: 1000
next table: 1831
cur table: 1832
epoch: 1000
next table: 2495
cur table: 2578
epoch: 1000
next table: 1934
cur table: 1831
epoch: 1000
next table: 2420
cur table: 2495
epoch: 1000
next table: 1889
cur table: 1934
epoch: 1000
next table: 2499
cur table: 2420
epoch: 1000
next table: 1828
cur table: 1889
epoch: 1000
next table: 2584
cur table: 2499
epoch: 1000
next table: 1883
cur table: 1828
epoch: 1000
next table: 2534
cur table: 2584
epoch: 1000
next table: 1880
cur table: 1883
epoch: 1000
next table: 2496
cur table: 2534
epoch: 1000
next table: 1855
cur table: 1880
epoch: 1000
next table: 2562
cur table: 2496
epoch: 1000
next table: 1850
cur table: 1855
epoch: 1000
next table: 2549
cur table: 2562
epoch: 1000
next table: 1811
cur table: 1850
epoch: 1000
next table: 2617
cur table: 2549
epoch: 1000
next table: 2556
cur table: 2617
epoch: 1000
next table: 1812
cur table: 1811
epoch: 1000
next table: 2599
cur table: 2556
epoch: 1000
next table: 1851
cur table: 1812
epoch: 1000
next table: 2548
cur table: 2599
epoch: 1000
next table: 1847
cur table: 1851
epoch: 1000
next table: 2476
cur table: 2548
epoch: 1000
next table: 1930
cur table: 1847
epoch: 1000
next table: 2532
cur table: 2476
epoch: 1000
next table: 1821
cur table: 1930
epoch: 1000
next table: 2563
cur table: 2532
epoch: 1000
next table: 1854
cur table: 1821
epoch: 1000
next table: 2489
cur table: 2563
epoch: 1000
next table: 1930
cur table: 1854
epoch: 1000
next table: 2524
cur table: 2489
epoch: 1000
next table: 1903
cur table: 1930
epoch: 1000
next table: 2470
cur table: 2524
epoch: 1000
next table: 1850
cur table: 1903
epoch: 1000
next table: 2546
cur table: 2470
epoch: 1000
next table: 1852
cur table: 1850
epoch: 1000
next table: 2544
cur table: 2546
epoch: 1000
next table: 1843
cur table: 1852
epoch: 1000
next table: 2542
cur table: 2544
epoch: 1000
next table: 2439
cur table: 2542
epoch: 1000
next table: 1939
cur table: 1843
epoch: 1000
next table: 2533
cur table: 2439
epoch: 1000
next table: 1864
cur table: 1939
epoch: 1000
next table: 2498
cur table: 2533
epoch: 1000
next table: 1891
cur table: 1864
epoch: 1000
next table: 2582
cur table: 2498
epoch: 1000
next table: 1840
cur table: 1891
epoch: 1000
next table: 2613
cur table: 2582
epoch: 1000
next table: 1814
cur table: 1840
epoch: 1000
next table: 2625
cur table: 2613
epoch: 1000
next table: 1804
cur table: 1814
epoch: 1000
next table: 2600
cur table: 2625
epoch: 1000
next table: 1807
cur table: 1804
epoch: 1000
next table: 2643
cur table: 2600
epoch: 1000
next table: 1798
cur table: 1807
epoch: 1000
next table: 2592
cur table: 2643
epoch: 1000
next table: 1794
cur table: 1798
epoch: 1000
next table: 2623
cur table: 2592
epoch: 1000
next table: 1799
cur table: 1794
epoch: 1000
next table: 2613
cur table: 2623
epoch: 1000
next table: 1825
cur table: 1799
epoch: 1000
next table: 2615
cur table: 2613
epoch: 1000
next table: 1807
cur table: 1825
epoch: 1000
next table: 2618
cur table: 2615
epoch: 1000
next table: 1854
cur table: 1807
epoch: 1000
next table: 2413
cur table: 2618
epoch: 1000
next table: 1947
cur table: 1854
epoch: 1000
next table: 2491
cur table: 2413
epoch: 1000
next table: 1849
cur table: 1947
epoch: 1000
next table: 2597
cur table: 2491
epoch: 1000
next table: 1814
cur table: 1849
epoch: 1000
next table: 2596
cur table: 2597
epoch: 1000
next table: 1802
cur table: 1814
epoch: 1000
next table: 2626
cur table: 2596
epoch: 1000
next table: 1808
cur table: 1802
epoch: 1000
next table: 2589
cur table: 2626
epoch: 1000
next table: 1827
cur table: 1808
epoch: 1000
next table: 2605
cur table: 2589
epoch: 1000
next table: 1797
cur table: 1827
epoch: 1000
next table: 2592
cur table: 2605
epoch: 1000
next table: 2544
cur table: 2592
epoch: 1000
next table: 1863
cur table: 1797
epoch: 1000
next table: 2563
cur table: 2544
epoch: 1000
next table: 1852
cur table: 1863
epoch: 1000
next table: 2534
cur table: 2563
epoch: 1000
next table: 1813
cur table: 1852
epoch: 1000
next table: 2640
cur table: 2534
epoch: 1000
next table: 1812
cur table: 1813
epoch: 1000
next table: 2638
cur table: 2640
epoch: 1000
next table: 1810
cur table: 1812
epoch: 1000
next table: 2584
cur table: 2638
epoch: 1000
next table: 1805
cur table: 1810
epoch: 1000
next table: 2560
cur table: 2584
epoch: 1000
next table: 1843
cur table: 1805
epoch: 1000
next table: 2548
cur table: 2560
epoch: 1000
next table: 1855
cur table: 1843
epoch: 1000
next table: 2539
cur table: 2548
epoch: 1000
next table: 1844
cur table: 1855
epoch: 1000
next table: 2528
cur table: 2539
epoch: 1000
next table: 1812
cur table: 1844
epoch: 1000
next table: 2588
cur table: 2528
epoch: 1000
next table: 1865
cur table: 1812
epoch: 1000
next table: 2598
cur table: 2588
epoch: 1000
next table: 1846
cur table: 1865
epoch: 1000
next table: 2519
cur table: 2598
epoch: 1000
next table: 1843
cur table: 1846
epoch: 1000
next table: 2524
cur table: 2519
epoch: 1000
next table: 1824
cur table: 1843
epoch: 1000
next table: 2634
cur table: 2524
epoch: 1000
next table: 1810
cur table: 1824
epoch: 1000
next table: 2580
cur table: 2634
epoch: 1000
next table: 1846
cur table: 1810
epoch: 1000
next table: 2615
cur table: 2580
epoch: 1000
next table: 1862
cur table: 1846
epoch: 1000
next table: 2539
cur table: 2615
epoch: 1000
next table: 2549
cur table: 2539
epoch: 1000
next table: 1841
cur table: 1862
epoch: 1000
next table: 2643
cur table: 2549
epoch: 1000
next table: 1800
cur table: 1841
epoch: 1000
next table: 2606
cur table: 2643
epoch: 1000
next table: 1819
cur table: 1800
epoch: 1000
next table: 2630
cur table: 2606
epoch: 1000
next table: 1815
cur table: 1819
epoch: 1000
next table: 2522
cur table: 2630
epoch: 1000
next table: 1854
cur table: 1815
epoch: 1000
next table: 2584
cur table: 2522
epoch: 1000
next table: 1819
cur table: 1854
epoch: 1000
next table: 2575
cur table: 2584
epoch: 1000
next table: 1836
cur table: 1819
epoch: 1000
next table: 2530
cur table: 2575
epoch: 1000
next table: 1863
cur table: 1836
epoch: 1000
next table: 2474
cur table: 2530
epoch: 1000
next table: 1868
cur table: 1863
epoch: 1000
next table: 2544
cur table: 2474
epoch: 1000
next table: 1945
cur table: 1868
epoch: 1000
next table: 2398
cur table: 2544
epoch: 1000
next table: 1909
cur table: 1945
epoch: 1000
next table: 2507
cur table: 2398
epoch: 1000
next table: 1869
cur table: 1909
epoch: 1000
next table: 2512
cur table: 2507
epoch: 1000
next table: 1864
cur table: 1869
epoch: 1000
next table: 2579
cur table: 2512
epoch: 1000
next table: 1858
cur table: 1864
epoch: 1000
next table: 2575
cur table: 2579
Heartbeat CPU 0 instructions: 10000001 cycles: 2917524 heartbeat IPC: 3.42756 cumulative IPC: 3.42756 (Simulation time: 0 hr 5 min 36 sec) 
epoch: 1000
next table: 2629
cur table: 2575
epoch: 1000
next table: 1814
cur table: 1858
epoch: 1000
next table: 2602
cur table: 2629
epoch: 1000
next table: 1817
cur table: 1814
epoch: 1000
next table: 2595
cur table: 2602
epoch: 1000
next table: 1813
cur table: 1817
epoch: 1000
next table: 2574
cur table: 2595
epoch: 1000
next table: 1861
cur table: 1813
epoch: 1000
next table: 2500
cur table: 2574
epoch: 1000
next table: 1927
cur table: 1861
epoch: 1000
next table: 2497
cur table: 2500
epoch: 1000
next table: 1851
cur table: 1927
epoch: 1000
next table: 2519
cur table: 2497
epoch: 1000
next table: 1846
cur table: 1851
epoch: 1000
next table: 2545
cur table: 2519
epoch: 1000
next table: 1825
cur table: 1846
epoch: 1000
next table: 2514
cur table: 2545
epoch: 1000
next table: 1927
cur table: 1825
epoch: 1000
next table: 2490
cur table: 2514
epoch: 1000
next table: 1897
cur table: 1927
epoch: 1000
next table: 2504
cur table: 2490
epoch: 1000
next table: 1854
cur table: 1897
epoch: 1000
next table: 2579
cur table: 2504
epoch: 1000
next table: 1812
cur table: 1854
epoch: 1000
next table: 2592
cur table: 2579
epoch: 1000
next table: 1798
cur table: 1812
epoch: 1000
next table: 2597
cur table: 2592
epoch: 1000
next table: 1807
cur table: 1798
epoch: 1000
next table: 2631
cur table: 2597
epoch: 1000
next table: 1803
cur table: 1807
epoch: 1000
next table: 2635
cur table: 2631
epoch: 1000
next table: 2533
cur table: 2635
epoch: 1000
next table: 1860
cur table: 1803
epoch: 1000
next table: 2618
cur table: 2533
epoch: 1000
next table: 1787
cur table: 1860
epoch: 1000
next table: 2513
cur table: 2618
epoch: 1000
next table: 1884
cur table: 1787
epoch: 1000
next table: 2545
cur table: 2513
epoch: 1000
next table: 1845
cur table: 1884
epoch: 1000
next table: 2617
cur table: 2545
epoch: 1000
next table: 1848
cur table: 1845
epoch: 1000
next table: 2524
cur table: 2617
epoch: 1000
next table: 1836
cur table: 1848
epoch: 1000
next table: 2575
cur table: 2524
epoch: 1000
next table: 1825
cur table: 1836
epoch: 1000
next table: 2567
cur table: 2575
epoch: 1000
next table: 1806
cur table: 1825
epoch: 1000
next table: 2599
cur table: 2567
epoch: 1000
next table: 1835
cur table: 1806
epoch: 1000
next table: 2577
cur table: 2599
epoch: 1000
next table: 1839
cur table: 1835
epoch: 1000
next table: 2589
cur table: 2577
epoch: 1000
next table: 1832
cur table: 1839
epoch: 1000
next table: 2523
cur table: 2589
epoch: 1000
next table: 1831
cur table: 1832
epoch: 1000
next table: 2635
cur table: 2523
epoch: 1000
next table: 1855
cur table: 1831
epoch: 1000
next table: 2525
cur table: 2635
epoch: 1000
next table: 1820
cur table: 1855
epoch: 1000
next table: 2581
cur table: 2525
epoch: 1000
next table: 1892
cur table: 1820
epoch: 1000
next table: 2533
cur table: 2581
epoch: 1000
next table: 1881
cur table: 1892
epoch: 1000
next table: 2543
cur table: 2533
epoch: 1000
next table: 2525
cur table: 2543
epoch: 1000
next table: 1888
cur table: 1881
epoch: 1000
next table: 2463
cur table: 2525
epoch: 1000
next table: 1899
cur table: 1888
epoch: 1000
next table: 2565
cur table: 2463
epoch: 1000
next table: 1881
cur table: 1899
epoch: 1000
next table: 2484
cur table: 2565
epoch: 1000
next table: 1899
cur table: 1881
epoch: 1000
next table: 2616
cur table: 2484
epoch: 1000
next table: 1837
cur table: 1899
epoch: 1000
next table: 2502
cur table: 2616
epoch: 1000
next table: 1890
cur table: 1837
epoch: 1000
next table: 2554
cur table: 2502
epoch: 1000
next table: 1828
cur table: 1890
epoch: 1000
next table: 2532
cur table: 2554
epoch: 1000
next table: 1849
cur table: 1828
epoch: 1000
next table: 2603
cur table: 2532
epoch: 1000
next table: 1823
cur table: 1849
epoch: 1000
next table: 2565
cur table: 2603
epoch: 1000
next table: 1877
cur table: 1823
epoch: 1000
next table: 2511
cur table: 2565
epoch: 1000
next table: 1838
cur table: 1877
epoch: 1000
next table: 2563
cur table: 2511
epoch: 1000
next table: 1856
cur table: 1838
epoch: 1000
next table: 2526
cur table: 2563
epoch: 1000
next table: 1884
cur table: 1856
epoch: 1000
next table: 2537
cur table: 2526
epoch: 1000
next table: 2561
cur table: 2537
epoch: 1000
next table: 1814
cur table: 1884
epoch: 1000
next table: 2655
cur table: 2561
epoch: 1000
next table: 1789
cur table: 1814
epoch: 1000
next table: 2622
cur table: 2655
epoch: 1000
next table: 1785
cur table: 1789
epoch: 1000
next table: 2586
cur table: 2622
epoch: 1000
next table: 1793
cur table: 1785
epoch: 1000
next table: 2604
cur table: 2586
epoch: 1000
next table: 1822
cur table: 1793
epoch: 1000
next table: 2610
cur table: 2604
epoch: 1000
next table: 1811
cur table: 1822
epoch: 1000
next table: 2571
cur table: 2610
epoch: 1000
next table: 1821
cur table: 1811
epoch: 1000
next table: 2579
cur table: 2571
epoch: 1000
next table: 1789
cur table: 1821
epoch: 1000
next table: 2542
cur table: 2579
epoch: 1000
next table: 1850
cur table: 1789
epoch: 1000
next table: 2586
cur table: 2542
epoch: 1000
next table: 1849
cur table: 1850
epoch: 1000
next table: 2498
cur table: 2586
epoch: 1000
next table: 1834
cur table: 1849
epoch: 1000
next table: 2566
cur table: 2498
epoch: 1000
next table: 1830
cur table: 1834
epoch: 1000
next table: 2578
cur table: 2566
epoch: 1000
next table: 1868
cur table: 1830
epoch: 1000
next table: 2545
cur table: 2578
epoch: 1000
next table: 1880
cur table: 1868
epoch: 1000
next table: 2564
cur table: 2545
epoch: 1000
next table: 1863
cur table: 1880
epoch: 1000
next table: 2562
cur table: 2564
epoch: 1000
next table: 1882
cur table: 1863
epoch: 1000
next table: 2563
cur table: 2562
epoch: 1000
next table: 1778
cur table: 1882
epoch: 1000
next table: 2629
cur table: 2563
epoch: 1000
next table: 1791
cur table: 1778
epoch: 1000
next table: 2645
cur table: 2629
epoch: 1000
next table: 1778
cur table: 1791
epoch: 1000
next table: 2615
cur table: 2645
epoch: 1000
next table: 1812
cur table: 1778
epoch: 1000
next table: 2610
cur table: 2615
epoch: 1000
next table: 2606
cur table: 2610
epoch: 1000
next table: 1796
cur table: 1812
epoch: 1000
next table: 2569
cur table: 2606
epoch: 1000
next table: 1810
cur table: 1796
epoch: 1000
next table: 2589
cur table: 2569
epoch: 1000
next table: 1802
cur table: 1810
epoch: 1000
next table: 2465
cur table: 2589
epoch: 1000
next table: 1917
cur table: 1802
epoch: 1000
next table: 2413
cur table: 2465
epoch: 1000
next table: 1950
cur table: 1917
epoch: 1000
next table: 2506
cur table: 2413
epoch: 1000
next table: 1854
cur table: 1950
epoch: 1000
next table: 2548
cur table: 2506
epoch: 1000
next table: 1806
cur table: 1854
epoch: 1000
next table: 2625
cur table: 2548
epoch: 1000
next table: 1811
cur table: 1806
epoch: 1000
next table: 2604
cur table: 2625
epoch: 1000
next table: 1783
cur table: 1811
epoch: 1000
next table: 2624
cur table: 2604
epoch: 1000
next table: 1834
cur table: 1783
epoch: 1000
next table: 2640
cur table: 2624
epoch: 1000
next table: 1791
cur table: 1834
epoch: 1000
next table: 2630
cur table: 2640
epoch: 1000
next table: 1787
cur table: 1791
epoch: 1000
next table: 2624
cur table: 2630
epoch: 1000
next table: 1822
cur table: 1787
epoch: 1000
next table: 2504
cur table: 2624
epoch: 1000
next table: 1889
cur table: 1822
epoch: 1000
next table: 2535
cur table: 2504
epoch: 1000
next table: 1912
cur table: 1889
epoch: 1000
next table: 2442
cur table: 2535
epoch: 1000
next table: 2519
cur table: 2442
epoch: 1000
next table: 1867
cur table: 1912
epoch: 1000
next table: 2524
cur table: 2519
epoch: 1000
next table: 1847
cur table: 1867
epoch: 1000
next table: 2524
cur table: 2524
epoch: 1000
next table: 1883
cur table: 1847
epoch: 1000
next table: 2591
cur table: 2524
epoch: 1000
next table: 1837
cur table: 1883
epoch: 1000
next table: 2517
cur table: 2591
epoch: 1000
next table: 1853
cur table: 1837
epoch: 1000
next table: 2608
cur table: 2517
epoch: 1000
next table: 1852
cur table: 1853
epoch: 1000
next table: 2563
cur table: 2608
epoch: 1000
next table: 1857
cur table: 1852
epoch: 1000
next table: 2463
cur table: 2563
epoch: 1000
next table: 1868
cur table: 1857
epoch: 1000
next table: 2547
cur table: 2463
epoch: 1000
next table: 1826
cur table: 1868
epoch: 1000
next table: 2579
cur table: 2547
epoch: 1000
next table: 1854
cur table: 1826
epoch: 1000
next table: 2606
cur table: 2579
epoch: 1000
next table: 1797
cur table: 1854
epoch: 1000
next table: 2609
cur table: 2606
epoch: 1000
next table: 1790
cur table: 1797
epoch: 1000
next table: 2633
cur table: 2609
epoch: 1000
next table: 1789
cur table: 1790
epoch: 1000
next table: 2609
cur table: 2633
epoch: 1000
next table: 1837
cur table: 1789
epoch: 1000
next table: 2558
cur table: 2609
epoch: 1000
next table: 1811
cur table: 1837
epoch: 1000
next table: 2597
cur table: 2558
epoch: 1000
next table: 1850
cur table: 1811
epoch: 1000
next table: 2586
cur table: 2597
epoch: 1000
next table: 2483
cur table: 2586
epoch: 1000
next table: 1899
cur table: 1850
epoch: 1000
next table: 2518
cur table: 2483
epoch: 1000
next table: 1864
cur table: 1899
epoch: 1000
next table: 2628
cur table: 2518
epoch: 1000
next table: 1819
cur table: 1864
epoch: 1000
next table: 2596
cur table: 2628
epoch: 1000
next table: 1801
cur table: 1819
epoch: 1000
next table: 2569
cur table: 2596
epoch: 1000
next table: 1848
cur table: 1801
epoch: 1000
next table: 2565
cur table: 2569
epoch: 1000
next table: 1819
cur table: 1848
epoch: 1000
next table: 2542
cur table: 2565
epoch: 1000
next table: 1842
cur table: 1819
epoch: 1000
next table: 2608
cur table: 2542
epoch: 1000
next table: 1851
cur table: 1842
epoch: 1000
next table: 2513
cur table: 2608
epoch: 1000
next table: 1854
cur table: 1851
epoch: 1000
next table: 2566
cur table: 2513
epoch: 1000
next table: 1800
cur table: 1854
epoch: 1000
next table: 2610
cur table: 2566
epoch: 1000
next table: 1821
cur table: 1800
epoch: 1000
next table: 2578
cur table: 2610
epoch: 1000
next table: 1872
cur table: 1821
epoch: 1000
next table: 2476
cur table: 2578
epoch: 1000
next table: 1886
cur table: 1872
epoch: 1000
next table: 2511
cur table: 2476
epoch: 1000
next table: 1839
cur table: 1886
epoch: 1000
next table: 2560
cur table: 2511
epoch: 1000
next table: 1819
cur table: 1839
epoch: 1000
next table: 2595
cur table: 2560
epoch: 1000
next table: 2577
cur table: 2595
epoch: 1000
next table: 1849
cur table: 1819
epoch: 1000
next table: 2574
cur table: 2577
epoch: 1000
next table: 1841
cur table: 1849
epoch: 1000
next table: 2523
cur table: 2574
epoch: 1000
next table: 1881
cur table: 1841
epoch: 1000
next table: 2534
cur table: 2523
epoch: 1000
next table: 1871
cur table: 1881
epoch: 1000
next table: 2532
cur table: 2534
epoch: 1000
next table: 1875
cur table: 1871
epoch: 1000
next table: 2521
cur table: 2532
epoch: 1000
next table: 1896
cur table: 1875
epoch: 1000
next table: 2470
cur table: 2521
epoch: 1000
next table: 1923
cur table: 1896
epoch: 1000
next table: 2450
cur table: 2470
epoch: 1000
next table: 1929
cur table: 1923
epoch: 1000
next table: 2523
cur table: 2450
epoch: 1000
next table: 1839
cur table: 1929
epoch: 1000
next table: 2597
cur table: 2523
epoch: 1000
next table: 1866
cur table: 1839
epoch: 1000
next table: 2512
cur table: 2597
epoch: 1000
next table: 1879
cur table: 1866
epoch: 1000
next table: 2504
cur table: 2512
epoch: 1000
next table: 2455
cur table: 2504
epoch: 1000
next table: 1913
cur table: 1879
epoch: 1000
next table: 2510
cur table: 2455
epoch: 1000
next table: 1895
cur table: 1913
epoch: 1000
next table: 2531
cur table: 2510
epoch: 1000
next table: 1858
cur table: 1895
epoch: 1000
next table: 2517
cur table: 2531
epoch: 1000
next table: 1850
cur table: 1858
epoch: 1000
next table: 2607
cur table: 2517
epoch: 1000
next table: 1844
cur table: 1850
epoch: 1000
next table: 2449
cur table: 2607
epoch: 1000
next table: 1901
cur table: 1844
epoch: 1000
next table: 2456
cur table: 2449
epoch: 1000
next table: 1933
cur table: 1901
epoch: 1000
next table: 2494
cur table: 2456
epoch: 1000
next table: 1893
cur table: 1933
epoch: 1000
next table: 2515
cur table: 2494
epoch: 1000
next table: 1841
cur table: 1893
epoch: 1000
next table: 2537
cur table: 2515
epoch: 1000
next table: 1834
cur table: 1841
epoch: 1000
next table: 2566
cur table: 2537
epoch: 1000
next table: 2533
cur table: 2566
epoch: 1000
next table: 1878
cur table: 1834
epoch: 1000
next table: 2531
cur table: 2533
epoch: 1000
next table: 1852
cur table: 1878
epoch: 1000
next table: 2557
cur table: 2531
epoch: 1000
next table: 1859
cur table: 1852
epoch: 1000
next table: 2593
cur table: 2557
epoch: 1000
next table: 1792
cur table: 1859
epoch: 1000
next table: 2642
cur table: 2593
epoch: 1000
next table: 1771
cur table: 1792
epoch: 1000
next table: 2608
cur table: 2642
epoch: 1000
next table: 1803
cur table: 1771
epoch: 1000
next table: 2665
cur table: 2608
epoch: 1000
next table: 1818
cur table: 1803
epoch: 1000
next table: 2631
cur table: 2665
epoch: 1000
next table: 1781
cur table: 1818
epoch: 1000
next table: 2640
cur table: 2631
epoch: 1000
next table: 1784
cur table: 1781
epoch: 1000
next table: 2648
cur table: 2640
epoch: 1000
next table: 1786
cur table: 1784
epoch: 1000
next table: 2627
cur table: 2648
epoch: 1000
next table: 1838
cur table: 1786
epoch: 1000
next table: 2597
cur table: 2627
epoch: 1000
next table: 1798
cur table: 1838
epoch: 1000
next table: 2550
cur table: 2597
epoch: 1000
next table: 1859
cur table: 1798
epoch: 1000
next table: 2559
cur table: 2550
epoch: 1000
next table: 1824
cur table: 1859
epoch: 1000
next table: 2569
cur table: 2559
epoch: 1000
next table: 1862
cur table: 1824
epoch: 1000
next table: 2535
cur table: 2569
epoch: 1000
next table: 1819
cur table: 1862
epoch: 1000
next table: 2599
cur table: 2535
epoch: 1000
next table: 1866
cur table: 1819
epoch: 1000
next table: 2528
cur table: 2599
epoch: 1000
next table: 1810
cur table: 1866
epoch: 1000
next table: 2590
cur table: 2528
epoch: 1000
next table: 1827
cur table: 1810
epoch: 1000
next table: 2582
cur table: 2590
epoch: 1000
next table: 1862
cur table: 1827
epoch: 1000
next table: 2508
cur table: 2582
epoch: 1000
next table: 1839
cur table: 1862
epoch: 1000
next table: 2549
cur table: 2508
epoch: 1000
next table: 2598
cur table: 2549
epoch: 1000
next table: 1840
cur table: 1839
epoch: 1000
next table: 2537
cur table: 2598
epoch: 1000
next table: 1856
cur table: 1840
epoch: 1000
next table: 2538
cur table: 2537
epoch: 1000
next table: 1811
cur table: 1856
epoch: 1000
next table: 2660
cur table: 2538
epoch: 1000
next table: 1804
cur table: 1811
epoch: 1000
next table: 2555
cur table: 2660
epoch: 1000
next table: 1856
cur table: 1804
epoch: 1000
next table: 2571
cur table: 2555
epoch: 1000
next table: 1830
cur table: 1856
epoch: 1000
next table: 2642
cur table: 2571
epoch: 1000
next table: 1837
cur table: 1830
epoch: 1000
next table: 2603
cur table: 2642
epoch: 1000
next table: 1793
cur table: 1837
epoch: 1000
next table: 2573
cur table: 2603
epoch: 1000
next table: 1845
cur table: 1793
epoch: 1000
next table: 2603
cur table: 2573
epoch: 1000
next table: 1827
cur table: 1845
epoch: 1000
next table: 2613
cur table: 2603
epoch: 1000
next table: 1814
cur table: 1827
epoch: 1000
next table: 2542
cur table: 2613
epoch: 1000
next table: 1877
cur table: 1814
epoch: 1000
next table: 2524
cur table: 2542
epoch: 1000
next table: 1861
cur table: 1877
epoch: 1000
next table: 2579
cur table: 2524
epoch: 1000
next table: 1836
cur table: 1861
epoch: 1000
next table: 2550
cur table: 2579
epoch: 1000
next table: 1866
cur table: 1836
epoch: 1000
next table: 2531
cur table: 2550
epoch: 1000
next table: 1826
cur table: 1866
epoch: 1000
next table: 2591
cur table: 2531
epoch: 1000
next table: 1868
cur table: 1826
epoch: 1000
next table: 2507
cur table: 2591
epoch: 1000
next table: 2553
cur table: 2507
epoch: 1000
next table: 1825
cur table: 1868
epoch: 1000
next table: 2620
cur table: 2553
epoch: 1000
next table: 1842
cur table: 1825
epoch: 1000
next table: 2575
cur table: 2620
epoch: 1000
next table: 1817
cur table: 1842
epoch: 1000
next table: 2640
cur table: 2575
epoch: 1000
next table: 1817
cur table: 1817
epoch: 1000
next table: 2507
cur table: 2640
epoch: 1000
next table: 1856
cur table: 1817
epoch: 1000
next table: 2590
cur table: 2507
epoch: 1000
next table: 1821
cur table: 1856
epoch: 1000
next table: 2590
cur table: 2590
epoch: 1000
next table: 1860
cur table: 1821
epoch: 1000
next table: 2516
cur table: 2590
epoch: 1000
next table: 1850
cur table: 1860
epoch: 1000
next table: 2549
cur table: 2516
epoch: 1000
next table: 1883
cur table: 1850
epoch: 1000
next table: 2545
cur table: 2549
epoch: 1000
next table: 1827
cur table: 1883
epoch: 1000
next table: 2602
cur table: 2545
epoch: 1000
next table: 1828
cur table: 1827
epoch: 1000
next table: 2550
cur table: 2602
epoch: 1000
next table: 1822
cur table: 1828
epoch: 1000
next table: 2606
cur table: 2550
epoch: 1000
next table: 1851
cur table: 1822
epoch: 1000
next table: 2501
cur table: 2606
epoch: 1000
next table: 1898
cur table: 1851
epoch: 1000
next table: 2531
cur table: 2501
epoch: 1000
next table: 1847
cur table: 1898
epoch: 1000
next table: 2536
cur table: 2531
epoch: 1000
next table: 1864
cur table: 1847
epoch: 1000
next table: 2496
cur table: 2536
epoch: 1000
next table: 2546
cur table: 2496
epoch: 1000
next table: 1875
cur table: 1864
epoch: 1000
next table: 2590
cur table: 2546
epoch: 1000
next table: 1820
cur table: 1875
epoch: 1000
next table: 2579
cur table: 2590
epoch: 1000
next table: 1839
cur table: 1820
epoch: 1000
next table: 2528
cur table: 2579
epoch: 1000
next table: 1878
cur table: 1839
epoch: 1000
next table: 2587
cur table: 2528
epoch: 1000
next table: 1795
cur table: 1878
epoch: 1000
next table: 2603
cur table: 2587
epoch: 1000
next table: 1817
cur table: 1795
epoch: 1000
next table: 2603
cur table: 2603
epoch: 1000
next table: 1793
cur table: 1817
epoch: 1000
next table: 2624
cur table: 2603
epoch: 1000
next table: 1826
cur table: 1793
epoch: 1000
next table: 2557
cur table: 2624
epoch: 1000
next table: 1830
cur table: 1826
epoch: 1000
next table: 2644
cur table: 2557
epoch: 1000
next table: 1850
cur table: 1830
epoch: 1000
next table: 2551
cur table: 2644
epoch: 1000
next table: 1796
cur table: 1850
epoch: 1000
next table: 2605
cur table: 2551
epoch: 1000
next table: 1844
cur table: 1796
epoch: 1000
next table: 2539
cur table: 2605
epoch: 1000
next table: 1872
cur table: 1844
epoch: 1000
next table: 2564
cur table: 2539
epoch: 1000
next table: 1840
cur table: 1872
epoch: 1000
next table: 2537
cur table: 2564
epoch: 1000
next table: 1838
cur table: 1840
epoch: 1000
next table: 2546
cur table: 2537
epoch: 1000
next table: 1846
cur table: 1838
epoch: 1000
next table: 2572
cur table: 2546
epoch: 1000
next table: 1837
cur table: 1846
epoch: 1000
next table: 2561
cur table: 2572
epoch: 1000
next table: 2554
cur table: 2561
epoch: 1000
next table: 1830
cur table: 1837
epoch: 1000
next table: 2604
cur table: 2554
epoch: 1000
next table: 1816
cur table: 1830
epoch: 1000
next table: 2599
cur table: 2604
epoch: 1000
next table: 1827
cur table: 1816
epoch: 1000
next table: 2579
cur table: 2599
epoch: 1000
next table: 1835
cur table: 1827
epoch: 1000
next table: 2622
cur table: 2579
epoch: 1000
next table: 1843
cur table: 1835
epoch: 1000
next table: 2619
cur table: 2622
epoch: 1000
next table: 1819
cur table: 1843
epoch: 1000
next table: 2428
cur table: 2619
epoch: 1000
next table: 1950
cur table: 1819
epoch: 1000
next table: 2512
cur table: 2428
epoch: 1000
next table: 1889
cur table: 1950
epoch: 1000
next table: 2504
cur table: 2512
epoch: 1000
next table: 1861
cur table: 1889
epoch: 1000
next table: 2487
cur table: 2504
epoch: 1000
next table: 1925
cur table: 1861
epoch: 1000
next table: 2484
cur table: 2487
epoch: 1000
next table: 1853
cur table: 1925
epoch: 1000
next table: 2598
cur table: 2484
epoch: 1000
next table: 1827
cur table: 1853
epoch: 1000
next table: 2615
cur table: 2598
epoch: 1000
next table: 1775
cur table: 1827
epoch: 1000
next table: 2616
cur table: 2615
epoch: 1000
next table: 1866
cur table: 1775
epoch: 1000
next table: 2566
cur table: 2616
epoch: 1000
next table: 1862
cur table: 1866
epoch: 1000
next table: 2512
cur table: 2566
epoch: 1000
next table: 2480
cur table: 2512
epoch: 1000
next table: 1950
cur table: 1862
epoch: 1000
next table: 2531
cur table: 2480
epoch: 1000
next table: 1854
cur table: 1950
epoch: 1000
next table: 2472
cur table: 2531
epoch: 1000
next table: 1879
cur table: 1854
epoch: 1000
next table: 2572
cur table: 2472
epoch: 1000
next table: 1861
cur table: 1879
epoch: 1000
next table: 2583
cur table: 2572
epoch: 1000
next table: 1820
cur table: 1861
epoch: 1000
next table: 2583
cur table: 2583
epoch: 1000
next table: 1799
cur table: 1820
epoch: 1000
next table: 2595
cur table: 2583
epoch: 1000
next table: 1853
cur table: 1799
epoch: 1000
next table: 2539
cur table: 2595
epoch: 1000
next table: 1814
cur table: 1853
epoch: 1000
next table: 2560
cur table: 2539
epoch: 1000
next table: 1837
cur table: 1814
epoch: 1000
next table: 2590
cur table: 2560
epoch: 1000
next table: 1849
cur table: 1837
epoch: 1000
next table: 2542
cur table: 2590
epoch: 1000
next table: 1826
cur table: 1849
epoch: 1000
next table: 2602
cur table: 2542
epoch: 1000
next table: 1858
cur table: 1826
epoch: 1000
next table: 2491
cur table: 2602
epoch: 1000
next table: 1889
cur table: 1858
epoch: 1000
next table: 2567
cur table: 2491
epoch: 1000
next table: 1823
cur table: 1889
epoch: 1000
next table: 2587
cur table: 2567
epoch: 1000
next table: 2553
cur table: 2587
epoch: 1000
next table: 1851
cur table: 1823
epoch: 1000
next table: 2577
cur table: 2553
epoch: 1000
next table: 1838
cur table: 1851
epoch: 1000
next table: 2518
cur table: 2577
epoch: 1000
next table: 1849
cur table: 1838
epoch: 1000
next table: 2536
cur table: 2518
epoch: 1000
next table: 1879
cur table: 1849
epoch: 1000
next table: 2537
cur table: 2536
epoch: 1000
next table: 1848
cur table: 1879
epoch: 1000
next table: 2626
cur table: 2537
epoch: 1000
next table: 1804
cur table: 1848
epoch: 1000
next table: 2629
cur table: 2626
epoch: 1000
next table: 1825
cur table: 1804
epoch: 1000
next table: 2566
cur table: 2629
epoch: 1000
next table: 1808
cur table: 1825
epoch: 1000
next table: 2610
cur table: 2566
epoch: 1000
next table: 1823
cur table: 1808
epoch: 1000
next table: 2548
cur table: 2610
epoch: 1000
next table: 1845
cur table: 1823
epoch: 1000
next table: 2549
cur table: 2548
epoch: 1000
next table: 1899
cur table: 1845
epoch: 1000
next table: 2526
cur table: 2549
epoch: 1000
next table: 1841
cur table: 1899
epoch: 1000
next table: 2581
cur table: 2526
epoch: 1000
next table: 1806
cur table: 1841
epoch: 1000
next table: 2587
cur table: 2581
epoch: 1000
next table: 1829
cur table: 1806
epoch: 1000
next table: 2650
cur table: 2587
epoch: 1000
next table: 1847
cur table: 1829
epoch: 1000
next table: 2549
cur table: 2650
epoch: 1000
next table: 1848
cur table: 1847
epoch: 1000
next table: 2604
cur table: 2549
epoch: 1000
next table: 1800
cur table: 1848
epoch: 1000
next table: 2634
cur table: 2604
epoch: 1000
next table: 1841
cur table: 1800
epoch: 1000
next table: 2551
cur table: 2634
epoch: 1000
next table: 1826
cur table: 1841
epoch: 1000
next table: 2592
cur table: 2551
epoch: 1000
next table: 2598
cur table: 2592
epoch: 1000
next table: 1853
cur table: 1826
epoch: 1000
next table: 2597
cur table: 2598
epoch: 1000
next table: 1800
cur table: 1853
epoch: 1000
next table: 2626
cur table: 2597
epoch: 1000
next table: 1805
cur table: 1800
epoch: 1000
next table: 2627
cur table: 2626
epoch: 1000
next table: 1789
cur table: 1805
epoch: 1000
next table: 2637
cur table: 2627
epoch: 1000
next table: 1826
cur table: 1789
epoch: 1000
next table: 2611
cur table: 2637
epoch: 1000
next table: 1819
cur table: 1826
epoch: 1000
next table: 2566
cur table: 2611
epoch: 1000
next table: 1834
cur table: 1819
epoch: 1000
next table: 2607
cur table: 2566
epoch: 1000
next table: 1827
cur table: 1834
epoch: 1000
next table: 2600
cur table: 2607
epoch: 1000
next table: 1858
cur table: 1827
epoch: 1000
next table: 2564
cur table: 2600
epoch: 1000
next table: 1864
cur table: 1858
epoch: 1000
next table: 2538
cur table: 2564
epoch: 1000
next table: 1867
cur table: 1864
epoch: 1000
next table: 2545
cur table: 2538
epoch: 1000
next table: 1836
cur table: 1867
epoch: 1000
next table: 2572
cur table: 2545
epoch: 1000
next table: 1792
cur table: 1836
epoch: 1000
next table: 2625
cur table: 2572
epoch: 1000
next table: 1812
cur table: 1792
epoch: 1000
next table: 2628
cur table: 2625
epoch: 1000
next table: 1812
cur table: 1812
epoch: 1000
next table: 2595
cur table: 2628
epoch: 1000
next table: 1838
cur table: 1812
epoch: 1000
next table: 2530
cur table: 2595
epoch: 1000
next table: 1910
cur table: 1838
epoch: 1000
next table: 2501
cur table: 2530
epoch: 1000
next table: 1838
cur table: 1910
epoch: 1000
next table: 2536
cur table: 2501
epoch: 1000
next table: 2451
cur table: 2536
epoch: 1000
next table: 1939
cur table: 1838
epoch: 1000
next table: 2512
cur table: 2451
epoch: 1000
next table: 1858
cur table: 1939
epoch: 1000
next table: 2529
cur table: 2512
epoch: 1000
next table: 1883
cur table: 1858
epoch: 1000
next table: 2555
cur table: 2529
epoch: 1000
next table: 1850
cur table: 1883
epoch: 1000
next table: 2617
cur table: 2555
epoch: 1000
next table: 1817
cur table: 1850
epoch: 1000
next table: 2597
cur table: 2617
epoch: 1000
next table: 1810
cur table: 1817
epoch: 1000
next table: 2610
cur table: 2597
epoch: 1000
next table: 1834
cur table: 1810
epoch: 1000
next table: 2618
cur table: 2610
epoch: 1000
next table: 1806
cur table: 1834
epoch: 1000
next table: 2548
cur table: 2618
epoch: 1000
next table: 1880
cur table: 1806
epoch: 1000
next table: 2508
cur table: 2548
epoch: 1000
next table: 1887
cur table: 1880
epoch: 1000
next table: 2531
cur table: 2508
epoch: 1000
next table: 1848
cur table: 1887
epoch: 1000
next table: 2590
cur table: 2531
epoch: 1000
next table: 1817
cur table: 1848
epoch: 1000
next table: 2574
cur table: 2590
epoch: 1000
next table: 1848
cur table: 1817
epoch: 1000
next table: 2615
cur table: 2574
epoch: 1000
next table: 1783
cur table: 1848
epoch: 1000
next table: 2621
cur table: 2615
epoch: 1000
next table: 1776
cur table: 1783
epoch: 1000
next table: 2628
cur table: 2621
epoch: 1000
next table: 1801
cur table: 1776
epoch: 1000
next table: 2633
cur table: 2628
epoch: 1000
next table: 1795
cur table: 1801
epoch: 1000
next table: 2630
cur table: 2633
epoch: 1000
next table: 1793
cur table: 1795
epoch: 1000
next table: 2627
cur table: 2630
epoch: 1000
next table: 1796
cur table: 1793
epoch: 1000
next table: 2606
cur table: 2627
epoch: 1000
next table: 1820
cur table: 1796
epoch: 1000
next table: 2606
cur table: 2606
epoch: 1000
next table: 1805
cur table: 1820
epoch: 1000
next table: 2630
cur table: 2606
epoch: 1000
next table: 1876
cur table: 1805
epoch: 1000
next table: 2554
cur table: 2630
epoch: 1000
next table: 2581
cur table: 2554
epoch: 1000
next table: 1817
cur table: 1876
epoch: 1000
next table: 2608
cur table: 2581
epoch: 1000
next table: 1823
cur table: 1817
epoch: 1000
next table: 2597
cur table: 2608
epoch: 1000
next table: 1808
cur table: 1823
epoch: 1000
next table: 2622
cur table: 2597
epoch: 1000
next table: 1827
cur table: 1808
epoch: 1000
next table: 2621
cur table: 2622
epoch: 1000
next table: 1807
cur table: 1827
epoch: 1000
next table: 2590
cur table: 2621
epoch: 1000
next table: 1823
cur table: 1807
epoch: 1000
next table: 2576
cur table: 2590
epoch: 1000
next table: 1832
cur table: 1823
epoch: 1000
next table: 2527
cur table: 2576
epoch: 1000
next table: 1881
cur table: 1832
epoch: 1000
next table: 2579
cur table: 2527
epoch: 1000
next table: 1813
cur table: 1881
epoch: 1000
next table: 2606
cur table: 2579
epoch: 1000
next table: 1856
cur table: 1813
epoch: 1000
next table: 2588
cur table: 2606
epoch: 1000
next table: 1817
cur table: 1856
epoch: 1000
next table: 2598
cur table: 2588
epoch: 1000
next table: 1835
cur table: 1817
epoch: 1000
next table: 2592
cur table: 2598
epoch: 1000
next table: 1784
cur table: 1835
epoch: 1000
next table: 2638
cur table: 2592
epoch: 1000
next table: 1849
cur table: 1784
epoch: 1000
next table: 2573
cur table: 2638
epoch: 1000
next table: 1849
cur table: 1849
epoch: 1000
next table: 2572
cur table: 2573
epoch: 1000
next table: 1805
cur table: 1849
epoch: 1000
next table: 2587
cur table: 2572
epoch: 1000
next table: 1823
cur table: 1805
epoch: 1000
next table: 2526
cur table: 2587
epoch: 1000
next table: 1813
cur table: 1823
epoch: 1000
next table: 2706
cur table: 2526
epoch: 1000
next table: 1827
cur table: 1813
epoch: 1000
next table: 2579
cur table: 2706
epoch: 1000
next table: 1796
cur table: 1827
epoch: 1000
next table: 2658
cur table: 2579
epoch: 1000
next table: 1803
cur table: 1796
epoch: 1000
next table: 2606
cur table: 2658
epoch: 1000
next table: 1788
cur table: 1803
epoch: 1000
next table: 2626
cur table: 2606
epoch: 1000
next table: 1782
cur table: 1788
epoch: 1000
next table: 2621
cur table: 2626
epoch: 1000
next table: 1852
cur table: 1782
epoch: 1000
next table: 2587
cur table: 2621
epoch: 1000
next table: 2562
cur table: 2587
epoch: 1000
next table: 1871
cur table: 1852
epoch: 1000
next table: 2566
cur table: 2562
epoch: 1000
next table: 1819
cur table: 1871
epoch: 1000
next table: 2540
cur table: 2566
epoch: 1000
next table: 1855
cur table: 1819
epoch: 1000
next table: 2453
cur table: 2540
epoch: 1000
next table: 1941
cur table: 1855
epoch: 1000
next table: 2504
cur table: 2453
epoch: 1000
next table: 1846
cur table: 1941
epoch: 1000
next table: 2644
cur table: 2504
epoch: 1000
next table: 1779
cur table: 1846
epoch: 1000
next table: 2550
cur table: 2644
epoch: 1000
next table: 1839
cur table: 1779
epoch: 1000
next table: 2633
cur table: 2550
epoch: 1000
next table: 1825
cur table: 1839
epoch: 1000
next table: 2522
cur table: 2633
epoch: 1000
next table: 1845
cur table: 1825
epoch: 1000
next table: 2532
cur table: 2522
epoch: 1000
next table: 1879
cur table: 1845
epoch: 1000
next table: 2529
cur table: 2532
epoch: 1000
next table: 1844
cur table: 1879
epoch: 1000
next table: 2568
cur table: 2529
epoch: 1000
next table: 1817
cur table: 1844
epoch: 1000
next table: 2646
cur table: 2568
epoch: 1000
next table: 1809
cur table: 1817
epoch: 1000
next table: 2606
cur table: 2646
epoch: 1000
next table: 1812
cur table: 1809
epoch: 1000
next table: 2575
cur table: 2606
epoch: 1000
next table: 1875
cur table: 1812
epoch: 1000
next table: 2538
cur table: 2575
epoch: 1000
next table: 2550
cur table: 2538
epoch: 1000
next table: 1861
cur table: 1875
epoch: 1000
next table: 2499
cur table: 2550
epoch: 1000
next table: 1897
cur table: 1861
epoch: 1000
next table: 2526
cur table: 2499
epoch: 1000
next table: 1853
cur table: 1897
epoch: 1000
next table: 2513
cur table: 2526
epoch: 1000
next table: 1870
cur table: 1853
epoch: 1000
next table: 2649
cur table: 2513
epoch: 1000
next table: 1795
cur table: 1870
epoch: 1000
next table: 2598
cur table: 2649
epoch: 1000
next table: 1863
cur table: 1795
epoch: 1000
next table: 2514
cur table: 2598
epoch: 1000
next table: 1887
cur table: 1863
epoch: 1000
next table: 2563
cur table: 2514
epoch: 1000
next table: 1803
cur table: 1887
epoch: 1000
next table: 2574
cur table: 2563
epoch: 1000
next table: 1838
cur table: 1803
epoch: 1000
next table: 2567
cur table: 2574
epoch: 1000
next table: 1851
cur table: 1838
epoch: 1000
next table: 2598
cur table: 2567
epoch: 1000
next table: 1809
cur table: 1851
epoch: 1000
next table: 2562
cur table: 2598
epoch: 1000
next table: 1835
cur table: 1809
epoch: 1000
next table: 2582
cur table: 2562
epoch: 1000
next table: 1845
cur table: 1835
epoch: 1000
next table: 2546
cur table: 2582
epoch: 1000
next table: 1892
cur table: 1845
epoch: 1000
next table: 2489
cur table: 2546
epoch: 1000
next table: 1860
cur table: 1892
epoch: 1000
next table: 2549
cur table: 2489
epoch: 1000
next table: 2478
cur table: 2549
epoch: 1000
next table: 1930
cur table: 1860
epoch: 1000
next table: 2500
cur table: 2478
epoch: 1000
next table: 1838
cur table: 1930
epoch: 1000
next table: 2577
cur table: 2500
epoch: 1000
next table: 1844
cur table: 1838
epoch: 1000
next table: 2583
cur table: 2577
epoch: 1000
next table: 1868
cur table: 1844
epoch: 1000
next table: 2610
cur table: 2583
epoch: 1000
next table: 1796
cur table: 1868
epoch: 1000
next table: 2590
cur table: 2610
epoch: 1000
next table: 1827
cur table: 1796
epoch: 1000
next table: 2553
cur table: 2590
epoch: 1000
next table: 1846
cur table: 1827
epoch: 1000
next table: 2630
cur table: 2553
epoch: 1000
next table: 1852
cur table: 1846
epoch: 1000
next table: 2518
cur table: 2630
epoch: 1000
next table: 1814
cur table: 1852
epoch: 1000
next table: 2659
cur table: 2518
epoch: 1000
next table: 1820
cur table: 1814
epoch: 1000
next table: 2581
cur table: 2659
epoch: 1000
next table: 1832
cur table: 1820
epoch: 1000
next table: 2554
cur table: 2581
epoch: 1000
next table: 1864
cur table: 1832
epoch: 1000
next table: 2558
cur table: 2554
epoch: 1000
next table: 1785
cur table: 1864
epoch: 1000
next table: 2613
cur table: 2558
epoch: 1000
next table: 1850
cur table: 1785
epoch: 1000
next table: 2547
cur table: 2613
epoch: 1000
next table: 1868
cur table: 1850
epoch: 1000
next table: 2544
cur table: 2547
epoch: 1000
next table: 1858
cur table: 1868
epoch: 1000
next table: 2516
cur table: 2544
epoch: 1000
next table: 2497
cur table: 2516
epoch: 1000
next table: 1900
cur table: 1858
epoch: 1000
next table: 2625
cur table: 2497
epoch: 1000
next table: 1795
cur table: 1900
epoch: 1000
next table: 2620
cur table: 2625
epoch: 1000
next table: 1782
cur table: 1795
epoch: 1000
next table: 2641
cur table: 2620
epoch: 1000
next table: 1838
cur table: 1782
epoch: 1000
next table: 2532
cur table: 2641
epoch: 1000
next table: 1854
cur table: 1838
epoch: 1000
next table: 2626
cur table: 2532
epoch: 1000
next table: 1808
cur table: 1854
epoch: 1000
next table: 2575
cur table: 2626
epoch: 1000
next table: 1811
cur table: 1808
epoch: 1000
next table: 2590
cur table: 2575
epoch: 1000
next table: 1835
cur table: 1811
epoch: 1000
next table: 2602
cur table: 2590
epoch: 1000
next table: 1846
cur table: 1835
epoch: 1000
next table: 2493
cur table: 2602
epoch: 1000
next table: 1865
cur table: 1846
epoch: 1000
next table: 2571
cur table: 2493
epoch: 1000
next table: 1802
cur table: 1865
epoch: 1000
next table: 2596
cur table: 2571
epoch: 1000
next table: 1822
cur table: 1802
epoch: 1000
next table: 2629
cur table: 2596
epoch: 1000
next table: 1794
cur table: 1822
epoch: 1000
next table: 2578
cur table: 2629
epoch: 1000
next table: 1818
cur table: 1794
epoch: 1000
next table: 2667
cur table: 2578
epoch: 1000
next table: 1810
cur table: 1818
epoch: 1000
next table: 2534
cur table: 2667
epoch: 1000
next table: 1824
cur table: 1810
epoch: 1000
next table: 2593
cur table: 2534
epoch: 1000
next table: 1848
cur table: 1824
epoch: 1000
next table: 2511
cur table: 2593
epoch: 1000
next table: 1833
cur table: 1848
epoch: 1000
next table: 2571
cur table: 2511
epoch: 1000
next table: 1842
cur table: 1833
epoch: 1000
next table: 2548
cur table: 2571
epoch: 1000
next table: 2550
cur table: 2548
epoch: 1000
next table: 1838
cur table: 1842
epoch: 1000
next table: 2586
cur table: 2550
epoch: 1000
next table: 1836
cur table: 1838
epoch: 1000
next table: 2511
cur table: 2586
epoch: 1000
next table: 1859
cur table: 1836
epoch: 1000
next table: 2500
cur table: 2511
epoch: 1000
next table: 1879
cur table: 1859
epoch: 1000
next table: 2474
cur table: 2500
epoch: 1000
next table: 1952
cur table: 1879
epoch: 1000
next table: 2471
cur table: 2474
epoch: 1000
next table: 1867
cur table: 1952
epoch: 1000
next table: 2556
cur table: 2471
epoch: 1000
next table: 1845
cur table: 1867
epoch: 1000
next table: 2570
cur table: 2556
epoch: 1000
next table: 1820
cur table: 1845
epoch: 1000
next table: 2554
cur table: 2570
epoch: 1000
next table: 1870
cur table: 1820
epoch: 1000
next table: 2509
cur table: 2554
epoch: 1000
next table: 1874
cur table: 1870
epoch: 1000
next table: 2526
cur table: 2509
epoch: 1000
next table: 1950
cur table: 1874
epoch: 1000
next table: 2423
cur table: 2526
epoch: 1000
next table: 2479
cur table: 2423
epoch: 1000
next table: 1918
cur table: 1950
epoch: 1000
next table: 2464
cur table: 2479
epoch: 1000
next table: 1939
cur table: 1918
epoch: 1000
next table: 2433
cur table: 2464
epoch: 1000
next table: 1910
cur table: 1939
epoch: 1000
next table: 2546
cur table: 2433
epoch: 1000
next table: 1890
cur table: 1910
epoch: 1000
next table: 2471
cur table: 2546
epoch: 1000
next table: 1874
cur table: 1890
epoch: 1000
next table: 2610
cur table: 2471
epoch: 1000
next table: 1857
cur table: 1874
epoch: 1000
next table: 2550
cur table: 2610
epoch: 1000
next table: 1894
cur table: 1857
epoch: 1000
next table: 2518
cur table: 2550
epoch: 1000
next table: 1853
cur table: 1894
epoch: 1000
next table: 2560
cur table: 2518
epoch: 1000
next table: 1830
cur table: 1853
epoch: 1000
next table: 2586
cur table: 2560
epoch: 1000
next table: 1819
cur table: 1830
epoch: 1000
next table: 2532
cur table: 2586
epoch: 1000
next table: 1833
cur table: 1819
epoch: 1000
next table: 2572
cur table: 2532
epoch: 1000
next table: 2555
cur table: 2572
epoch: 1000
next table: 1876
cur table: 1833
epoch: 1000
next table: 2515
cur table: 2555
epoch: 1000
next table: 1900
cur table: 1876
epoch: 1000
next table: 2526
cur table: 2515
epoch: 1000
next table: 1836
cur table: 1900
epoch: 1000
next table: 2580
cur table: 2526
epoch: 1000
next table: 1855
cur table: 1836
epoch: 1000
next table: 2495
cur table: 2580
epoch: 1000
[...]
next table: 3460
cur table: 3369
epoch: 1000
next table: 2987
cur table: 3460
epoch: 1000
next table: 1887
cur table: 1934
epoch: 1000
next table: 3258
cur table: 2987
epoch: 1000
next table: 1901
cur table: 1887
epoch: 1000
next table: 2810
cur table: 3258
epoch: 1000
next table: 1918
cur table: 1901
epoch: 1000
next table: 2903
cur table: 2810
epoch: 1000
next table: 1867
cur table: 1918
epoch: 1000
next table: 2954
cur table: 2903
epoch: 1000
next table: 1887
cur table: 1867
epoch: 1000
next table: 3086
cur table: 2954
epoch: 1000
next table: 1863
cur table: 1887
epoch: 1000
next table: 2945
cur table: 3086
epoch: 1000
next table: 1834
cur table: 1863
epoch: 1000
next table: 2878
cur table: 2945
epoch: 1000
next table: 1859
cur table: 1834
epoch: 1000
next table: 2967
cur table: 2878
epoch: 1000
next table: 1868
cur table: 1859
epoch: 1000
next table: 2733
cur table: 2967
epoch: 1000
next table: 2916
cur table: 2733
epoch: 1000
next table: 1871
cur table: 1868
epoch: 1000
next table: 2451
cur table: 2916
epoch: 1000
next table: 1925
cur table: 1871
epoch: 1000
next table: 2960
cur table: 2451
epoch: 1000
next table: 1813
cur table: 1925
epoch: 1000
next table: 2574
cur table: 2960
epoch: 1000
next table: 1814
cur table: 1813
epoch: 1000
next table: 2645
cur table: 2574
epoch: 1000
next table: 1806
cur table: 1814
epoch: 1000
next table: 3034
cur table: 2645
epoch: 1000
next table: 1809
cur table: 1806
epoch: 1000
next table: 2986
cur table: 3034
epoch: 1000
next table: 1771
cur table: 1809
epoch: 1000
next table: 3100
cur table: 2986
epoch: 1000
next table: 1773
cur table: 1771
epoch: 1000
next table: 3559
cur table: 3100
epoch: 1000
next table: 1758
cur table: 1773
epoch: 1000
next table: 3936
cur table: 3559
epoch: 1000
next table: 1784
cur table: 1758
epoch: 1000
next table: 2666
cur table: 3936
epoch: 1000
next table: 1772
cur table: 1784
epoch: 1000
next table: 3002
cur table: 2666
epoch: 1000
next table: 1774
cur table: 1772
epoch: 1000
next table: 3308
cur table: 3002
epoch: 1000
next table: 1757
cur table: 1774
epoch: 1000
next table: 2969
cur table: 3308
epoch: 1000
next table: 1773
cur table: 1757
epoch: 1000
next table: 2796
cur table: 2969
epoch: 1000
next table: 1772
cur table: 1773
epoch: 1000
next table: 3400
cur table: 2796
epoch: 1000
next table: 1763
cur table: 1772
epoch: 1000
next table: 3739
cur table: 3400
epoch: 1000
next table: 1769
cur table: 1763
epoch: 1000
next table: 4081
cur table: 3739
epoch: 1000
next table: 1756
cur table: 1769
epoch: 1000
next table: 3089
cur table: 4081
epoch: 1000
next table: 1803
cur table: 1756
epoch: 1000
next table: 3250
cur table: 3089
epoch: 1000
next table: 1788
cur table: 1803
epoch: 1000
next table: 3051
cur table: 3250
epoch: 1000
next table: 1846
cur table: 1788
epoch: 1000
next table: 3413
cur table: 3051
epoch: 1000
next table: 1805
cur table: 1846
epoch: 1000
next table: 3281
cur table: 3413
epoch: 1000
next table: 1794
cur table: 1805
epoch: 1000
next table: 2629
cur table: 3281
epoch: 1000
next table: 1799
cur table: 1794
epoch: 1000
next table: 2821
cur table: 2629
epoch: 1000
next table: 1846
cur table: 1799
epoch: 1000
next table: 2960
cur table: 2821
epoch: 1000
next table: 1810
cur table: 1846
epoch: 1000
next table: 3417
cur table: 2960
epoch: 1000
next table: 1775
cur table: 1810
epoch: 1000
next table: 2965
cur table: 3417
Heartbeat CPU 0 instructions: 100000000 cycles: 116856808 heartbeat IPC: 0.486737 cumulative IPC: 0.488824 (Simulation time: 1 hr 30 min 28 sec) 
Finished CPU 0 instructions: 50000001 cycles: 102286358 cumulative IPC: 0.488824 (Simulation time: 1 hr 30 min 28 sec) 

ChampSim completed all CPUs

Region of Interest Statistics

CPU 0 cumulative IPC: 0.488824 instructions: 50000001 cycles: 102286358
ITLB TOTAL     ACCESS:    6711374  HIT:    6711374  MISS:          0  HIT %:        100  MISS %:          0   MPKI: 0
ITLB LOAD TRANSLATION ACCESS:    6711374  HIT:    6711374  MISS:          0  HIT %:        100  MISS %:          0   MPKI: 0
ITLB PREFETCH  REQUESTED:          0  ISSUED:          0  USEFUL:          0  USELESS:          0
ITLB USEFUL LOAD PREFETCHES:          0 PREFETCH ISSUED TO LOWER LEVEL:          0  ACCURACY: -nan
ITLB TIMELY PREFETCHES:          0 LATE PREFETCHES: 0 DROPPED PREFETCHES: 0
ITLB PREFETCHES SAME FILL-ORIGIN LEVEL: 0 DIFFERENT FILL-ORIGIN LEVEL: 0
ITLB AVERAGE MISS LATENCY: -nan cycles
ITLB RQ	ACCESS:    8675632	FORWARD:          0	MERGED:    1964258	TO_CACHE:    6711374

Revised Interactions: positive negative neutral
ITLB_interactions 0 0 0 -nan -nan -nan
DTLB TOTAL     ACCESS:    9594111  HIT:    9525454  MISS:      68657  HIT %:    99.2844  MISS %:   0.715616   MPKI: 1.37314
DTLB LOAD TRANSLATION ACCESS:    9594111  HIT:    9525454  MISS:      68657  HIT %:    99.2844  MISS %:   0.715616   MPKI: 1.37314
DTLB PREFETCH  REQUESTED:          0  ISSUED:          0  USEFUL:          0  USELESS:          0
DTLB USEFUL LOAD PREFETCHES:          0 PREFETCH ISSUED TO LOWER LEVEL:          0  ACCURACY: -nan
DTLB TIMELY PREFETCHES:          0 LATE PREFETCHES: 0 DROPPED PREFETCHES: 0
DTLB PREFETCHES SAME FILL-ORIGIN LEVEL: 0 DIFFERENT FILL-ORIGIN LEVEL: 0
DTLB AVERAGE MISS LATENCY: 109.536 cycles
DTLB RQ	ACCESS:   13976505	FORWARD:          0	MERGED:    4352526	TO_CACHE:    9623979

Revised Interactions: positive negative neutral
DTLB_interactions 0 0 0 -nan -nan -nan
STLB TOTAL     ACCESS:      68657  HIT:      31401  MISS:      37256  HIT %:    45.7361  MISS %:    54.2639   MPKI: 0.74512
STLB LOAD TRANSLATION ACCESS:      68657  HIT:      31401  MISS:      37256  HIT %:    45.7361  MISS %:    54.2639   MPKI: 0.74512
STLB PREFETCH  REQUESTED:          0  ISSUED:          0  USEFUL:          0  USELESS:          0
STLB USEFUL LOAD PREFETCHES:          0 PREFETCH ISSUED TO LOWER LEVEL:          0  ACCURACY: -nan
STLB TIMELY PREFETCHES:          0 LATE PREFETCHES: 0 DROPPED PREFETCHES: 0
STLB PREFETCHES SAME FILL-ORIGIN LEVEL: 0 DIFFERENT FILL-ORIGIN LEVEL: 0
STLB AVERAGE MISS LATENCY: 184.522 cycles
STLB RQ	ACCESS:      68657	FORWARD:          0	MERGED:          0	TO_CACHE:      68657

Revised Interactions: positive negative neutral
STLB_interactions 0 0 0 -nan -nan -nan
STLB Hit, L1D data hit: 0
STLB Hit, L2C data hit: 0
STLB Hit, LLC data hit: 0
STLB Hit, LLC data miss: 0
STLB STLB hints to L2: 0
L1D TOTAL     ACCESS:   13850963  HIT:    9917879  MISS:    3933084  HIT %:    71.6043  MISS %:    28.3957   MPKI: 78.6617
L1D LOAD      ACCESS:    4918172  HIT:    4322208  MISS:     595964  HIT %:    87.8824  MISS %:    12.1176   MPKI: 11.9193
L1D RFO       ACCESS:    8932791  HIT:    5595671  MISS:    3337120  HIT %:    62.6419  MISS %:    37.3581   MPKI: 66.7424
L1D PREFETCH  REQUESTED:          0  ISSUED:          0  USEFUL:          0  USELESS:          0
L1D USEFUL LOAD PREFETCHES:          0 PREFETCH ISSUED TO LOWER LEVEL:          0  ACCURACY: -nan
L1D TIMELY PREFETCHES:          0 LATE PREFETCHES: 0 DROPPED PREFETCHES: 0
L1D PREFETCHES SAME FILL-ORIGIN LEVEL: 0 DIFFERENT FILL-ORIGIN LEVEL: 0
L1D AVERAGE MISS LATENCY: 340.737 cycles
L1D RQ	ACCESS:   12395526	FORWARD:          0	MERGED:    6537595	TO_CACHE:    4987103
L1D WQ	ACCESS:    9219579	FORWARD:     870828	MERGED:     230177	TO_CACHE:    8989402

Revised Interactions: positive negative neutral
L1D_interactions 0 0 0 -nan -nan -nan
L1D UNIQUE REGIONS ACCESSED: 0
L1D REGIONS CONFLICTS: 0
L1D Cross Page Prefetch Requests: 0
L1D Same Page Prefetch Requests: 0
L1D ROI Sum of L1D PQ occupancy: 0
L1D PREFETCHES PUSHED FROM L2C: 0
L1I TOTAL     ACCESS:    8675630  HIT:    8675630  MISS:          0  HIT %:        100  MISS %:          0   MPKI: 0
L1I LOAD      ACCESS:    8675630  HIT:    8675630  MISS:          0  HIT %:        100  MISS %:          0   MPKI: 0
L1I PREFETCH  REQUESTED:          0  ISSUED:          0  USEFUL:          0  USELESS:          0
L1I USEFUL LOAD PREFETCHES:          0 PREFETCH ISSUED TO LOWER LEVEL:          0  ACCURACY: -nan
L1I TIMELY PREFETCHES:          0 LATE PREFETCHES: 0 DROPPED PREFETCHES: 0
L1I PREFETCHES SAME FILL-ORIGIN LEVEL: 0 DIFFERENT FILL-ORIGIN LEVEL: 0
L1I AVERAGE MISS LATENCY: -nan cycles
L1I RQ	ACCESS:   12453125	FORWARD:          0	MERGED:    3777493	TO_CACHE:    8675632

Revised Interactions: positive negative neutral
L1I_interactions 0 0 0 -nan -nan -nan
BTB TOTAL     ACCESS:     899011  HIT:     899005  MISS:          6  HIT %:    99.9993  MISS %:  0.0006674   MPKI: 0.00012
BTB BRANCH_DIRECT_JUMP	ACCESS:     146381  HIT:     146380  MISS:          1
BTB BRANCH_INDIRECT	ACCESS:          0  HIT:          0  MISS:          0
BTB BRANCH_CONDITIONAL	ACCESS:     752630  HIT:     752625  MISS:          5
BTB BRANCH_DIRECT_CALL	ACCESS:          0  HIT:          0  MISS:          0
BTB BRANCH_INDIRECT_CALL	ACCESS:          0  HIT:          0  MISS:          0
BTB BRANCH_RETURN	ACCESS:          0  HIT:          0  MISS:          0
BTB BRANCH_OTHER ACCESS:          0  HIT:          0  MISS:          0

L2C TOTAL     ACCESS:    7852214  HIT:    5286704  MISS:    2565510  HIT %:    67.3276  MISS %:    32.6724   MPKI: 51.3102
L2C LOAD      ACCESS:     595964  HIT:     529371  MISS:      66593  HIT %:     88.826  MISS %:     11.174   MPKI: 1.33186
L2C DATA LOAD MPKI: 1.33186
L2C INSTRUCTION LOAD MPKI: 0
L2C RFO       ACCESS:    3337118  HIT:    1419311  MISS:    1917807  HIT %:     42.531  MISS %:     57.469   MPKI: 38.3561
L2C PREFETCH  ACCESS:     544751  HIT:      14482  MISS:     530269  HIT %:    2.65846  MISS %:    97.3415   MPKI: 10.6054
L2C DATA PREFETCH MPKI: 10.6054
L2C INSTRUCTION PREFETCH MPKI: 0
L2C WRITEBACK ACCESS:    3337123  HIT:    3291073  MISS:      46050  HIT %:    98.6201  MISS %:    1.37993   MPKI: 0.921
L2C LOAD TRANSLATION ACCESS:      37258  HIT:      32467  MISS:       4791  HIT %:     87.141  MISS %:     12.859   MPKI: 0.09582
L2C PREFETCH  REQUESTED:     592671  ISSUED:     592671  USEFUL:     529365  USELESS:        895
L2C USEFUL LOAD PREFETCHES:     529365 PREFETCH ISSUED TO LOWER LEVEL:     565786  ACCURACY: 93.5628
L2C TIMELY PREFETCHES:     529365 LATE PREFETCHES: 35517 DROPPED PREFETCHES: 0
L2C PREFETCHES SAME FILL-ORIGIN LEVEL: 565786 DIFFERENT FILL-ORIGIN LEVEL: 0
L2C AVERAGE MISS LATENCY: 649.925 cycles
L2C RQ	ACCESS:    3970351	FORWARD:          0	MERGED:          0	TO_CACHE:    3970350
L2C WQ	ACCESS:    3337123	FORWARD:          1	MERGED:          0	TO_CACHE:    3337123
L2C PQ	ACCESS:     592671	FORWARD:          0	MERGED:          0	TO_CACHE:     592671

Revised Interactions: positive negative neutral
L2C_interactions 505193 861 24595 95.2029 0.162254 4.63489
L2C Instructions Evicting Data 0
L2C Translations Evicting Data 4785
L2C Data Evicting Data 2509991
L2C Instructions Evicting Instructions 0
L2C Translations Evicting Instructions 0
L2C Data Evicting Instructions 0
L2C Instructions Evicting Translations 0
L2C Translations Evicting Translations 6
L2C Data Evicting Translations 4678
L2C Dense regions hint from L2: 0
PSCL5 TOTAL     ACCESS:      37256  HIT:      37256  MISS:          0  HIT %:        100  MISS %:          0   MPKI: 0
PSCL5 LOAD TRANSLATION ACCESS:      37256  HIT:      37256  MISS:          0  HIT %:        100  MISS %:          0   MPKI: 0
PSCL5 PREFETCH  REQUESTED:          0  ISSUED:          0  USEFUL:          0  USELESS:          0
PSCL5 USEFUL LOAD PREFETCHES:          0 PREFETCH ISSUED TO LOWER LEVEL:          0  ACCURACY: -nan
PSCL5 TIMELY PREFETCHES:          0 LATE PREFETCHES: 0 DROPPED PREFETCHES: 0
PSCL5 PREFETCHES SAME FILL-ORIGIN LEVEL: 0 DIFFERENT FILL-ORIGIN LEVEL: 0

Revised Interactions: positive negative neutral
PSCL5_interactions 0 0 0 -nan -nan -nan
PSCL4 TOTAL     ACCESS:      37256  HIT:      37256  MISS:          0  HIT %:        100  MISS %:          0   MPKI: 0
PSCL4 LOAD TRANSLATION ACCESS:      37256  HIT:      37256  MISS:          0  HIT %:        100  MISS %:          0   MPKI: 0
PSCL4 PREFETCH  REQUESTED:          0  ISSUED:          0  USEFUL:          0  USELESS:          0
PSCL4 USEFUL LOAD PREFETCHES:          0 PREFETCH ISSUED TO LOWER LEVEL:          0  ACCURACY: -nan
PSCL4 TIMELY PREFETCHES:          0 LATE PREFETCHES: 0 DROPPED PREFETCHES: 0
PSCL4 PREFETCHES SAME FILL-ORIGIN LEVEL: 0 DIFFERENT FILL-ORIGIN LEVEL: 0

Revised Interactions: positive negative neutral
PSCL4_interactions 0 0 0 -nan -nan -nan
PSCL3 TOTAL     ACCESS:      37256  HIT:      37256  MISS:          0  HIT %:        100  MISS %:          0   MPKI: 0
PSCL3 LOAD TRANSLATION ACCESS:      37256  HIT:      37256  MISS:          0  HIT %:        100  MISS %:          0   MPKI: 0
PSCL3 PREFETCH  REQUESTED:          0  ISSUED:          0  USEFUL:          0  USELESS:          0
PSCL3 USEFUL LOAD PREFETCHES:          0 PREFETCH ISSUED TO LOWER LEVEL:          0  ACCURACY: -nan
PSCL3 TIMELY PREFETCHES:          0 LATE PREFETCHES: 0 DROPPED PREFETCHES: 0
PSCL3 PREFETCHES SAME FILL-ORIGIN LEVEL: 0 DIFFERENT FILL-ORIGIN LEVEL: 0

Revised Interactions: positive negative neutral
PSCL3_interactions 0 0 0 -nan -nan -nan
PSCL2 TOTAL     ACCESS:      37256  HIT:      37217  MISS:         39  HIT %:    99.8953  MISS %:   0.104681   MPKI: 0.00078
PSCL2 LOAD TRANSLATION ACCESS:      37256  HIT:      37217  MISS:         39  HIT %:    99.8953  MISS %:   0.104681   MPKI: 0.00078
PSCL2 PREFETCH  REQUESTED:          0  ISSUED:          0  USEFUL:          0  USELESS:          0
PSCL2 USEFUL LOAD PREFETCHES:          0 PREFETCH ISSUED TO LOWER LEVEL:          0  ACCURACY: -nan
PSCL2 TIMELY PREFETCHES:          0 LATE PREFETCHES: 0 DROPPED PREFETCHES: 0
PSCL2 PREFETCHES SAME FILL-ORIGIN LEVEL: 0 DIFFERENT FILL-ORIGIN LEVEL: 0

Revised Interactions: positive negative neutral
PSCL2_interactions 0 0 0 -nan -nan -nan
LLC TOTAL     ACCESS:    4437505  HIT:    2021609  MISS:    2415896  HIT %:    45.5573  MISS %:    54.4427   MPKI: 48.3179
LLC LOAD      ACCESS:      31076  HIT:         71  MISS:      31005  HIT %:   0.228472  MISS %:    99.7715   MPKI: 0.6201
LLC RFO       ACCESS:    1917769  HIT:     130095  MISS:    1787674  HIT %:    6.78366  MISS %:    93.2163   MPKI: 35.7535
LLC PREFETCH  ACCESS:     565786  HIT:        681  MISS:     565105  HIT %:   0.120364  MISS %:    99.8796   MPKI: 11.3021
LLC WRITEBACK ACCESS:    1918083  HIT:    1890694  MISS:      27389  HIT %:    98.5721  MISS %:    1.42794   MPKI: 0.54778
LLC LOAD TRANSLATION ACCESS:       4791  HIT:         68  MISS:       4723  HIT %:    1.41933  MISS %:    98.5807   MPKI: 0.09446
LLC PREFETCH  REQUESTED:          0  ISSUED:          0  USEFUL:         65  USELESS:     564704
LLC USEFUL LOAD PREFETCHES:         65 PREFETCH ISSUED TO LOWER LEVEL:     565105  ACCURACY: 0.0115023
LLC TIMELY PREFETCHES:         65 LATE PREFETCHES: 0 DROPPED PREFETCHES: 0
LLC PREFETCHES SAME FILL-ORIGIN LEVEL: 0 DIFFERENT FILL-ORIGIN LEVEL: 0
LLC AVERAGE MISS LATENCY: 664.356 cycles
LLC RQ	ACCESS:    1953684	FORWARD:          0	MERGED:          0	TO_CACHE:    1953646
LLC WQ	ACCESS:    1918083	FORWARD:         38	MERGED:          0	TO_CACHE:    1918083
LLC PQ	ACCESS:     565786	FORWARD:          0	MERGED:          0	TO_CACHE:     565786

Revised Interactions: positive negative neutral
LLC_interactions 198 564666 420940 0.0200851 57.2797 42.7002
LLC Dense regions hint to LLC: 0

RAW hits: 649475
Loads Generated: 13045002
Loads sent to L1D: 12395526
Stores Generated: 9219571
Stores sent to L1D: 9219579
Major fault: 0 Minor fault: 40295
Allocated PAGES: 40295
[Bingo] PHT Access: 19682
[Bingo] PHT Hit PC+Addr: 165
[Bingo] PHT Hit PC+Offs: 19444
[Bingo] PHT Miss: 73
[Bingo] Prefetch PC+Addr: 0
[Bingo] Prefetch PC+Offs: 0
[Bingo] Useful PC+Addr: 0
[Bingo] Useful PC+Offs: 0
[Bingo] Useless PC+Addr: 0
[Bingo] Useless PC+Offs: 0
[Bingo] L1 Prefetch per Region: 0
[Bingo] L2 Prefetch per Region: 31.2596
[Bingo] L3 Prefetch per Region: 0
[Bingo] No Prefetch per Region: 0.740374
[Bingo] Number of Voters Mean: 15.6465
[Bingo] Number of Voters SD: 15.6826
PHT read accesses: 305482
PHT write accesses: 19649
AT read accesses: 595930
AT write accesses: 595935
FT read accesses: 58988
FT write accesses: 19682
PS read accesses: 108993
PS write accesses: 19609
PHT tag read accesses: 932896
PHT tag write accesses: 19814
AT tag read accesses: 51283799
AT tag write accesses: 615583
FT tag read accesses: 42326660
FT tag write accesses: 59017
PS tag read accesses: 10181042
PS tag write accesses: 128515

DRAM Statistics
 CHANNEL 0
 RQ ROW_BUFFER_HIT:     335301  ROW_BUFFER_MISS:    2053207
 DBUS_CONGESTED:          0
 WQ ROW_BUFFER_HIT:     283624  ROW_BUFFER_MISS:    1503690  FULL:          0

 AVG_CONGESTED_CYCLE: -
 All warmup complete: 2
Channel 0 Bank busy for read cycles: 0
Channel 0 Bank busy for write cycles: 0
Channel 0
Rank 0
0banks busy for read cycles: 13403
0banks busy for write cycles: 0
1banks busy for read cycles: 843196
1banks busy for write cycles: 177077
2banks busy for read cycles: 1480921
2banks busy for write cycles: 177075
3banks busy for read cycles: 3000977
3banks busy for write cycles: 177073
4banks busy for read cycles: 4025167
4banks busy for write cycles: 177071
5banks busy for read cycles: 9357659
5banks busy for write cycles: 177072
6banks busy for read cycles: 10958875
6banks busy for write cycles: 180116
7banks busy for read cycles: 11877185
7banks busy for write cycles: 2056689
8banks busy for read cycles: 18566217
8banks busy for write cycles: 39040586

CPU 0 Branch Prediction Accuracy: 94.9437% MPKI: 0.90914 Average ROB Occupancy at Mispredict: 162.618
Branch types
NOT_BRANCH: 49100650 98.2013%
BRANCH_DIRECT_JUMP: 146381 0.292762%
BRANCH_INDIRECT: 0 0%
BRANCH_CONDITIONAL: 752642 1.50528%
BRANCH_DIRECT_CALL: 0 0%
BRANCH_INDIRECT_CALL: 0 0%
BRANCH_RETURN: 0 0%
BRANCH_OTHER: 0 0%

@sumon_overall_L1D         0         0         0         0         0         0         0
@Sumon_Early_by_class_L1D         0         0         0         0
@Sumon_Late_by_class_L1D         0         0         0         0

@Sumon_Early_by_cycle_L1D         0         0         0         0         0         0         0         0         0         0         0         0
@Sumon_Late_by_cycle_L1D         0         0         0         0         0         0
@Sumon_Early_stream_L1D         0         0         0         0         0         0         0         0         0         0         0         0
@Sumon_Early_CS_L1D         0         0         0         0         0         0         0         0         0         0         0         0
@Sumon_Early_CPLX_L1D         0         0         0         0         0         0         0         0         0         0         0         0
@Sumon_Late_stream_L1D         0         0         0         0         0         0
@Sumon_Late_CS_L1D         0         0         0         0         0         0
@Sumon_Late_CPLX_L1D         0         0         0         0         0         0
@sumon_overall_L2C    529365     35517         0       895    530269    592671    592671
@Sumon_Early_by_class_L2C         0         0         0         0
@Sumon_Late_by_class_L2C         0         0         0         0

@Sumon_Early_by_cycle_L2C      8890      7514     12941     27225     17404    268070    186248      1072         0         0         1         0
@Sumon_Late_by_cycle_L2C       526       844      3840      1608     12683     16016
@Sumon_Early_stream_L2C         0         0         0         0         0         0         0         0         0         0         0         0
@Sumon_Early_CS_L2C         0         0         0         0         0         0         0         0         0         0         0         0
@Sumon_Early_CPLX_L2C         0         0         0         0         0         0         0         0         0         0         0         0
@Sumon_Late_stream_L2C         0         0         0         0         0         0
@Sumon_Late_CS_L2C         0         0         0         0         0         0
@Sumon_Late_CPLX_L2C         0         0         0         0         0         0
DRAM PAGES: 1048576
Allocated PAGES: 40295
