
*** ChampSim Multicore Out-of-Order Simulator ***

Warmup Instructions: 50000000
Simulation Instructions: 50000000
Number of CPUs: 1
LLC sets: 2048
LLC ways: 16
Off-chip DRAM Size: 4096 MB Channels: 1 Width: 64-bit Data Rate: 6400 MT/s
CPU 0 runs ../../biswa/SPEC2017Traces/641.leela_s-1083B.champsimtrace.xz
.xz
CPU 0 Bimodal branch predictor
BTB has LRU replacement policy
ITLB has LRU replacement policy
DTLB has LRU replacement policy
STLB has LRU replacement policy
L1I has LRU replacement policy
L1D has LRU replacement policy
Bingo PHT WAYS: 16 and PHT_SIZE: 16384
Initialize DRRIP state for L2C
Initialize DRRIP state for LLC
Heartbeat CPU 0 instructions: 10000000 cycles: 3152855 heartbeat IPC: 3.17173 cumulative IPC: 3.17173 (Simulation time: 0 hr 5 min 3 sec) 
Heartbeat CPU 0 instructions: 20000000 cycles: 6314608 heartbeat IPC: 3.1628 cumulative IPC: 3.16726 (Simulation time: 0 hr 9 min 50 sec) 
epoch: 1000
next table: 22835
cur table: 55565
Heartbeat CPU 0 instructions: 30000003 cycles: 9487328 heartbeat IPC: 3.15187 cumulative IPC: 3.16211 (Simulation time: 0 hr 14 min 39 sec) 
epoch: 1000
next table: 18986
cur table: 22835
Heartbeat CPU 0 instructions: 40000003 cycles: 12645208 heartbeat IPC: 3.16668 cumulative IPC: 3.16325 (Simulation time: 0 hr 19 min 40 sec) 
epoch: 1000
next table: 14999
cur table: 18986
epoch: 1000
next table: 12624
cur table: 14999
Heartbeat CPU 0 instructions: 50000003 cycles: 15802132 heartbeat IPC: 3.16764 cumulative IPC: 3.16413 (Simulation time: 0 hr 24 min 59 sec) 

Warmup complete CPU 0 instructions: 50000003 cycles: 15802132 (Simulation time: 0 hr 24 min 59 sec) 

Heartbeat CPU 0 instructions: 60000002 cycles: 45689597 heartbeat IPC: 0.334588 cumulative IPC: 0.334588 (Simulation time: 0 hr 31 min 7 sec) 
epoch: 1000
next table: 16853
cur table: 11966
epoch: 1000
next table: 10997
cur table: 16853
Heartbeat CPU 0 instructions: 70000002 cycles: 75699812 heartbeat IPC: 0.33322 cumulative IPC: 0.333903 (Simulation time: 0 hr 38 min 0 sec) 
epoch: 1000
next table: 21002
cur table: 10997
Heartbeat CPU 0 instructions: 80000000 cycles: 105391490 heartbeat IPC: 0.336795 cumulative IPC: 0.334861 (Simulation time: 0 hr 44 min 18 sec) 
epoch: 1000
next table: 27916
cur table: 21002
Heartbeat CPU 0 instructions: 90000003 cycles: 135922507 heartbeat IPC: 0.327536 cumulative IPC: 0.332999 (Simulation time: 0 hr 50 min 7 sec) 
epoch: 1000
next table: 22142
cur table: 27916
epoch: 1000
next table: 8461
cur table: 22142
Heartbeat CPU 0 instructions: 100000002 cycles: 166079146 heartbeat IPC: 0.331602 cumulative IPC: 0.332719 (Simulation time: 0 hr 55 min 57 sec) 
Finished CPU 0 instructions: 50000000 cycles: 150277020 cumulative IPC: 0.332719 (Simulation time: 0 hr 55 min 57 sec) 

ChampSim completed all CPUs

Region of Interest Statistics

CPU 0 cumulative IPC: 0.332719 instructions: 50000000 cycles: 150277020
ITLB TOTAL     ACCESS:    8685153  HIT:    8685153  MISS:          0  HIT %:        100  MISS %:          0   MPKI: 0
ITLB LOAD TRANSLATION ACCESS:    8685153  HIT:    8685153  MISS:          0  HIT %:        100  MISS %:          0   MPKI: 0
ITLB PREFETCH  REQUESTED:          0  ISSUED:          0  USEFUL:          0  USELESS:          0
ITLB USEFUL LOAD PREFETCHES:          0 PREFETCH ISSUED TO LOWER LEVEL:          0  ACCURACY: -nan
ITLB TIMELY PREFETCHES:          0 LATE PREFETCHES: 0 DROPPED PREFETCHES: 0
ITLB PREFETCHES SAME FILL-ORIGIN LEVEL: 0 DIFFERENT FILL-ORIGIN LEVEL: 0
ITLB AVERAGE MISS LATENCY: -nan cycles
ITLB RQ	ACCESS:    9925828	FORWARD:          0	MERGED:    1240675	TO_CACHE:    8685153

Revised Interactions: positive negative neutral
ITLB_interactions 0 0 0 -nan -nan -nan
DTLB TOTAL     ACCESS:   14280308  HIT:   14258559  MISS:      21749  HIT %:    99.8477  MISS %:   0.152301   MPKI: 0.43498
DTLB LOAD TRANSLATION ACCESS:   14280308  HIT:   14258559  MISS:      21749  HIT %:    99.8477  MISS %:   0.152301   MPKI: 0.43498
DTLB PREFETCH  REQUESTED:          0  ISSUED:          0  USEFUL:          0  USELESS:          0
DTLB USEFUL LOAD PREFETCHES:          0 PREFETCH ISSUED TO LOWER LEVEL:          0  ACCURACY: -nan
DTLB TIMELY PREFETCHES:          0 LATE PREFETCHES: 0 DROPPED PREFETCHES: 0
DTLB PREFETCHES SAME FILL-ORIGIN LEVEL: 0 DIFFERENT FILL-ORIGIN LEVEL: 0
DTLB AVERAGE MISS LATENCY: 9.64564 cycles
DTLB RQ	ACCESS:   16155121	FORWARD:          0	MERGED:    1874338	TO_CACHE:   14280783

Revised Interactions: positive negative neutral
DTLB_interactions 0 0 0 -nan -nan -nan
STLB TOTAL     ACCESS:      21749  HIT:      21670  MISS:         79  HIT %:    99.6368  MISS %:   0.363235   MPKI: 0.00158
STLB LOAD TRANSLATION ACCESS:      21749  HIT:      21670  MISS:         79  HIT %:    99.6368  MISS %:   0.363235   MPKI: 0.00158
STLB PREFETCH  REQUESTED:          0  ISSUED:          0  USEFUL:          0  USELESS:          0
STLB USEFUL LOAD PREFETCHES:          0 PREFETCH ISSUED TO LOWER LEVEL:          0  ACCURACY: -nan
STLB TIMELY PREFETCHES:          0 LATE PREFETCHES: 0 DROPPED PREFETCHES: 0
STLB PREFETCHES SAME FILL-ORIGIN LEVEL: 0 DIFFERENT FILL-ORIGIN LEVEL: 0
STLB AVERAGE MISS LATENCY: 177.62 cycles
STLB RQ	ACCESS:      21749	FORWARD:          0	MERGED:          0	TO_CACHE:      21749

Revised Interactions: positive negative neutral
STLB_interactions 0 0 0 -nan -nan -nan
STLB Hit, L1D data hit: 0
STLB Hit, L2C data hit: 0
STLB Hit, LLC data hit: 0
STLB Hit, LLC data miss: 0
STLB STLB hints to L2: 0
L1D TOTAL     ACCESS:   16133390  HIT:   16008049  MISS:     125341  HIT %:    99.2231  MISS %:   0.776904   MPKI: 2.50682
L1D LOAD      ACCESS:   10398120  HIT:   10287958  MISS:     110162  HIT %:    98.9406  MISS %:    1.05944   MPKI: 2.20324
L1D RFO       ACCESS:    5735270  HIT:    5720091  MISS:      15179  HIT %:    99.7353  MISS %:   0.264661   MPKI: 0.30358
L1D PREFETCH  REQUESTED:          0  ISSUED:          0  USEFUL:          0  USELESS:          0
L1D USEFUL LOAD PREFETCHES:          0 PREFETCH ISSUED TO LOWER LEVEL:          0  ACCURACY: -nan
L1D TIMELY PREFETCHES:          0 LATE PREFETCHES: 0 DROPPED PREFETCHES: 0
L1D PREFETCHES SAME FILL-ORIGIN LEVEL: 0 DIFFERENT FILL-ORIGIN LEVEL: 0
L1D AVERAGE MISS LATENCY: 16.2674 cycles
L1D RQ	ACCESS:   13087138	FORWARD:          0	MERGED:    2129815	TO_CACHE:   10400009
L1D WQ	ACCESS:    5844921	FORWARD:     557314	MERGED:      89809	TO_CACHE:    5755112

Revised Interactions: positive negative neutral
L1D_interactions 0 0 0 -nan -nan -nan
L1D UNIQUE REGIONS ACCESSED: 0
L1D REGIONS CONFLICTS: 0
L1D Cross Page Prefetch Requests: 0
L1D Same Page Prefetch Requests: 0
L1D ROI Sum of L1D PQ occupancy: 0
L1D PREFETCHES PUSHED FROM L2C: 0
L1I TOTAL     ACCESS:    9924743  HIT:    9921541  MISS:       3202  HIT %:    99.9677  MISS %:  0.0322628   MPKI: 0.06404
L1I LOAD      ACCESS:    9924743  HIT:    9921541  MISS:       3202  HIT %:    99.9677  MISS %:  0.0322628   MPKI: 0.06404
L1I PREFETCH  REQUESTED:          0  ISSUED:          0  USEFUL:          0  USELESS:          0
L1I USEFUL LOAD PREFETCHES:          0 PREFETCH ISSUED TO LOWER LEVEL:          0  ACCURACY: -nan
L1I TIMELY PREFETCHES:          0 LATE PREFETCHES: 0 DROPPED PREFETCHES: 0
L1I PREFETCHES SAME FILL-ORIGIN LEVEL: 0 DIFFERENT FILL-ORIGIN LEVEL: 0
L1I AVERAGE MISS LATENCY: 14.075 cycles
L1I RQ	ACCESS:   13903371	FORWARD:          0	MERGED:    3977543	TO_CACHE:    9925828

Revised Interactions: positive negative neutral
L1I_interactions 0 0 0 -nan -nan -nan
BTB TOTAL     ACCESS:    7895300  HIT:    7299030  MISS:     596270  HIT %:    92.4478  MISS %:    7.55221   MPKI: 11.9254
BTB BRANCH_DIRECT_JUMP	ACCESS:     272484  HIT:     272402  MISS:         82
BTB BRANCH_INDIRECT	ACCESS:        406  HIT:        354  MISS:         52
BTB BRANCH_CONDITIONAL	ACCESS:    4665187  HIT:    4664506  MISS:        681
BTB BRANCH_DIRECT_CALL	ACCESS:    1478611  HIT:    1478330  MISS:        281
BTB BRANCH_INDIRECT_CALL	ACCESS:          0  HIT:          0  MISS:          0
BTB BRANCH_RETURN	ACCESS:    1478612  HIT:     883438  MISS:     595174
BTB BRANCH_OTHER ACCESS:          0  HIT:          0  MISS:          0

L2C TOTAL     ACCESS:     214770  HIT:     206528  MISS:       8242  HIT %:    96.1624  MISS %:    3.83759   MPKI: 0.16484
L2C LOAD      ACCESS:     113364  HIT:     112239  MISS:       1125  HIT %:    99.0076  MISS %:   0.992379   MPKI: 0.0225
L2C DATA LOAD MPKI: 0.02234
L2C INSTRUCTION LOAD MPKI: 0.00016
L2C RFO       ACCESS:      15175  HIT:      14423  MISS:        752  HIT %:    95.0445  MISS %:    4.95552   MPKI: 0.01504
L2C PREFETCH  ACCESS:      58227  HIT:      51933  MISS:       6294  HIT %:    89.1906  MISS %:    10.8094   MPKI: 0.12588
L2C DATA PREFETCH MPKI: 0.12588
L2C INSTRUCTION PREFETCH MPKI: 0
L2C WRITEBACK ACCESS:      27925  HIT:      27892  MISS:         33  HIT %:    99.8818  MISS %:   0.118174   MPKI: 0.00066
L2C LOAD TRANSLATION ACCESS:         79  HIT:         41  MISS:         38  HIT %:    51.8987  MISS %:    48.1013   MPKI: 0.00076
L2C PREFETCH  REQUESTED:      58251  ISSUED:      58251  USEFUL:       1877  USELESS:       4183
L2C USEFUL LOAD PREFETCHES:       1877 PREFETCH ISSUED TO LOWER LEVEL:       6302  ACCURACY: 29.7842
L2C TIMELY PREFETCHES:       1877 LATE PREFETCHES: 8 DROPPED PREFETCHES: 0
L2C PREFETCHES SAME FILL-ORIGIN LEVEL: 6302 DIFFERENT FILL-ORIGIN LEVEL: 0
L2C AVERAGE MISS LATENCY: 73.326 cycles
L2C RQ	ACCESS:     128622	FORWARD:          0	MERGED:          0	TO_CACHE:     128618
L2C WQ	ACCESS:      27925	FORWARD:          4	MERGED:          0	TO_CACHE:      27925
L2C PQ	ACCESS:      58251	FORWARD:          0	MERGED:          0	TO_CACHE:      58251

Revised Interactions: positive negative neutral
L2C_interactions 1593 3453 314 29.7201 64.4216 5.85821
L2C Instructions Evicting Data 7
L2C Translations Evicting Data 32
L2C Data Evicting Data 7493
L2C Instructions Evicting Instructions 1
L2C Translations Evicting Instructions 1
L2C Data Evicting Instructions 86
L2C Instructions Evicting Translations 0
L2C Translations Evicting Translations 0
L2C Data Evicting Translations 65
L2C Dense regions hint from L2: 0
PSCL5 TOTAL     ACCESS:         79  HIT:         79  MISS:          0  HIT %:        100  MISS %:          0   MPKI: 0
PSCL5 LOAD TRANSLATION ACCESS:         79  HIT:         79  MISS:          0  HIT %:        100  MISS %:          0   MPKI: 0
PSCL5 PREFETCH  REQUESTED:          0  ISSUED:          0  USEFUL:          0  USELESS:          0
PSCL5 USEFUL LOAD PREFETCHES:          0 PREFETCH ISSUED TO LOWER LEVEL:          0  ACCURACY: -nan
PSCL5 TIMELY PREFETCHES:          0 LATE PREFETCHES: 0 DROPPED PREFETCHES: 0
PSCL5 PREFETCHES SAME FILL-ORIGIN LEVEL: 0 DIFFERENT FILL-ORIGIN LEVEL: 0

Revised Interactions: positive negative neutral
PSCL5_interactions 0 0 0 -nan -nan -nan
PSCL4 TOTAL     ACCESS:         79  HIT:         79  MISS:          0  HIT %:        100  MISS %:          0   MPKI: 0
PSCL4 LOAD TRANSLATION ACCESS:         79  HIT:         79  MISS:          0  HIT %:        100  MISS %:          0   MPKI: 0
PSCL4 PREFETCH  REQUESTED:          0  ISSUED:          0  USEFUL:          0  USELESS:          0
PSCL4 USEFUL LOAD PREFETCHES:          0 PREFETCH ISSUED TO LOWER LEVEL:          0  ACCURACY: -nan
PSCL4 TIMELY PREFETCHES:          0 LATE PREFETCHES: 0 DROPPED PREFETCHES: 0
PSCL4 PREFETCHES SAME FILL-ORIGIN LEVEL: 0 DIFFERENT FILL-ORIGIN LEVEL: 0

Revised Interactions: positive negative neutral
PSCL4_interactions 0 0 0 -nan -nan -nan
PSCL3 TOTAL     ACCESS:         79  HIT:         79  MISS:          0  HIT %:        100  MISS %:          0   MPKI: 0
PSCL3 LOAD TRANSLATION ACCESS:         79  HIT:         79  MISS:          0  HIT %:        100  MISS %:          0   MPKI: 0
PSCL3 PREFETCH  REQUESTED:          0  ISSUED:          0  USEFUL:          0  USELESS:          0
PSCL3 USEFUL LOAD PREFETCHES:          0 PREFETCH ISSUED TO LOWER LEVEL:          0  ACCURACY: -nan
PSCL3 TIMELY PREFETCHES:          0 LATE PREFETCHES: 0 DROPPED PREFETCHES: 0
PSCL3 PREFETCHES SAME FILL-ORIGIN LEVEL: 0 DIFFERENT FILL-ORIGIN LEVEL: 0

Revised Interactions: positive negative neutral
PSCL3_interactions 0 0 0 -nan -nan -nan
PSCL2 TOTAL     ACCESS:         79  HIT:         79  MISS:          0  HIT %:        100  MISS %:          0   MPKI: 0
PSCL2 LOAD TRANSLATION ACCESS:         79  HIT:         79  MISS:          0  HIT %:        100  MISS %:          0   MPKI: 0
PSCL2 PREFETCH  REQUESTED:          0  ISSUED:          0  USEFUL:          0  USELESS:          0
PSCL2 USEFUL LOAD PREFETCHES:          0 PREFETCH ISSUED TO LOWER LEVEL:          0  ACCURACY: -nan
PSCL2 TIMELY PREFETCHES:          0 LATE PREFETCHES: 0 DROPPED PREFETCHES: 0
PSCL2 PREFETCHES SAME FILL-ORIGIN LEVEL: 0 DIFFERENT FILL-ORIGIN LEVEL: 0

Revised Interactions: positive negative neutral
PSCL2_interactions 0 0 0 -nan -nan -nan
LLC TOTAL     ACCESS:       9346  HIT:       6751  MISS:       2595  HIT %:    72.2341  MISS %:    27.7659   MPKI: 0.0519
LLC LOAD      ACCESS:       1117  HIT:        806  MISS:        311  HIT %:    72.1576  MISS %:    27.8424   MPKI: 0.00622
LLC RFO       ACCESS:        752  HIT:        132  MISS:        620  HIT %:    17.5532  MISS %:    82.4468   MPKI: 0.0124
LLC PREFETCH  ACCESS:       6302  HIT:       4669  MISS:       1633  HIT %:    74.0876  MISS %:    25.9124   MPKI: 0.03266
LLC WRITEBACK ACCESS:       1137  HIT:       1127  MISS:         10  HIT %:    99.1205  MISS %:   0.879507   MPKI: 0.0002
LLC LOAD TRANSLATION ACCESS:         38  HIT:         17  MISS:         21  HIT %:    44.7368  MISS %:    55.2632   MPKI: 0.00042
LLC PREFETCH  REQUESTED:          0  ISSUED:          0  USEFUL:        202  USELESS:         31
LLC USEFUL LOAD PREFETCHES:        202 PREFETCH ISSUED TO LOWER LEVEL:       1633  ACCURACY: 12.3699
LLC TIMELY PREFETCHES:        202 LATE PREFETCHES: 0 DROPPED PREFETCHES: 0
LLC PREFETCHES SAME FILL-ORIGIN LEVEL: 0 DIFFERENT FILL-ORIGIN LEVEL: 0
LLC AVERAGE MISS LATENCY: 138.003 cycles
LLC RQ	ACCESS:       1907	FORWARD:          0	MERGED:          0	TO_CACHE:       1907
LLC WQ	ACCESS:       1137	FORWARD:          0	MERGED:          0	TO_CACHE:       1137
LLC PQ	ACCESS:       6302	FORWARD:          0	MERGED:          0	TO_CACHE:       6302

Revised Interactions: positive negative neutral
LLC_interactions 0 0 0 -nan -nan -nan
LLC Dense regions hint to LLC: 0

RAW hits: 365618
Loads Generated: 13452757
Loads sent to L1D: 13087138
Stores Generated: 5844919
Stores sent to L1D: 5844921
Major fault: 0 Minor fault: 596
Allocated PAGES: 596
[Bingo] PHT Access: 10230
[Bingo] PHT Hit PC+Addr: 6304
[Bingo] PHT Hit PC+Offs: 3052
[Bingo] PHT Miss: 874
[Bingo] Prefetch PC+Addr: 0
[Bingo] Prefetch PC+Offs: 0
[Bingo] Useful PC+Addr: 0
[Bingo] Useful PC+Offs: 0
[Bingo] Useless PC+Addr: 0
[Bingo] Useless PC+Offs: 0
[Bingo] L1 Prefetch per Region: 0
[Bingo] L2 Prefetch per Region: 7.23824
[Bingo] L3 Prefetch per Region: 0
[Bingo] No Prefetch per Region: 24.7618
[Bingo] Number of Voters Mean: 14.4967
[Bingo] Number of Voters SD: 14.1677
PHT read accesses: 79598
PHT write accesses: 6052
AT read accesses: 99644
AT write accesses: 104945
FT read accesses: 20735
FT write accesses: 10230
PS read accesses: 19640
PS write accesses: 9356
PHT tag read accesses: 206847
PHT tag write accesses: 12356
AT tag read accesses: 2171061
AT tag write accesses: 105695
FT tag read accesses: 774059
FT tag write accesses: 23876
PS tag read accesses: 2077347
PS tag write accesses: 28974

DRAM Statistics
 CHANNEL 0
 RQ ROW_BUFFER_HIT:       1402  ROW_BUFFER_MISS:       1183
 DBUS_CONGESTED:          0
 WQ ROW_BUFFER_HIT:          0  ROW_BUFFER_MISS:          0  FULL:          0

 AVG_CONGESTED_CYCLE: -
 All warmup complete: 2
Channel 0 Bank busy for read cycles: 0
Channel 0 Bank busy for write cycles: 0
Channel 0
Rank 0
0banks busy for read cycles: 150146810
0banks busy for write cycles: 0
1banks busy for read cycles: 95199
1banks busy for write cycles: 0
2banks busy for read cycles: 12269
2banks busy for write cycles: 0
3banks busy for read cycles: 5149
3banks busy for write cycles: 0
4banks busy for read cycles: 3395
4banks busy for write cycles: 0
5banks busy for read cycles: 2888
5banks busy for write cycles: 0
6banks busy for read cycles: 2102
6banks busy for write cycles: 0
7banks busy for read cycles: 1936
7banks busy for write cycles: 0
8banks busy for read cycles: 7273
8banks busy for write cycles: 0

CPU 0 Branch Prediction Accuracy: 87.3687% MPKI: 21.1475 Average ROB Occupancy at Mispredict: 13.4286
Branch types
NOT_BRANCH: 41628541 83.2571%
BRANCH_DIRECT_JUMP: 272484 0.544968%
BRANCH_INDIRECT: 406 0.000812%
BRANCH_CONDITIONAL: 5140980 10.282%
BRANCH_DIRECT_CALL: 1478611 2.95722%
BRANCH_INDIRECT_CALL: 0 0%
BRANCH_RETURN: 1478612 2.95722%
BRANCH_OTHER: 0 0%

@sumon_overall_L1D         0         0         0         0         0         0         0
@Sumon_Early_by_class_L1D         0         0         0         0
@Sumon_Late_by_class_L1D         0         0         0         0

@Sumon_Early_by_cycle_L1D         0         0         0         0         0         0         0         0         0         0         0         0
@Sumon_Late_by_cycle_L1D         0         0         0         0         0         0
@Sumon_Early_stream_L1D         0         0         0         0         0         0         0         0         0         0         0         0
@Sumon_Early_CS_L1D         0         0         0         0         0         0         0         0         0         0         0         0
@Sumon_Early_CPLX_L1D         0         0         0         0         0         0         0         0         0         0         0         0
@Sumon_Late_stream_L1D         0         0         0         0         0         0
@Sumon_Late_CS_L1D         0         0         0         0         0         0
@Sumon_Late_CPLX_L1D         0         0         0         0         0         0
@sumon_overall_L2C      1877         8         0      4183      6294     58251     58251
@Sumon_Early_by_class_L2C         0         0         0         0
@Sumon_Late_by_class_L2C         0         0         0         0

@Sumon_Early_by_cycle_L2C       115       188       296       209       132       226        64        28        11        11         6       591
@Sumon_Late_by_cycle_L2C         2         4         0         1         1         0
@Sumon_Early_stream_L2C         0         0         0         0         0         0         0         0         0         0         0         0
@Sumon_Early_CS_L2C         0         0         0         0         0         0         0         0         0         0         0         0
@Sumon_Early_CPLX_L2C         0         0         0         0         0         0         0         0         0         0         0         0
@Sumon_Late_stream_L2C         0         0         0         0         0         0
@Sumon_Late_CS_L2C         0         0         0         0         0         0
@Sumon_Late_CPLX_L2C         0         0         0         0         0         0
DRAM PAGES: 1048576
Allocated PAGES: 596
