
*** ChampSim Multicore Out-of-Order Simulator ***

Warmup Instructions: 50000000
Simulation Instructions: 50000000
Number of CPUs: 1
LLC sets: 2048
LLC ways: 16
Off-chip DRAM Size: 4096 MB Channels: 1 Width: 64-bit Data Rate: 6400 MT/s
CPU 0 runs ../../biswa/SPEC2017Traces/649.fotonik3d_s-10881B.champsimtrace.xz
.xz
CPU 0 Bimodal branch predictor
BTB has LRU replacement policy
ITLB has LRU replacement policy
DTLB has LRU replacement policy
STLB has LRU replacement policy
L1I has LRU replacement policy
L1D has LRU replacement policy
Bingo PHT WAYS: 16 and PHT_SIZE: 16384
Initialize DRRIP state for L2C
Initialize DRRIP state for LLC
epoch: 1000
next table: 2576
cur table: 9086
epoch: 1000
next table: 2331
cur table: 2576
epoch: 1000
next table: 2156
cur table: 2331
epoch: 1000
next table: 2016
cur table: 2156
epoch: 1000
next table: 2020
cur table: 2016
epoch: 1000
next table: 2034
cur table: 2020
epoch: 1000
next table: 1999
cur table: 2034
epoch: 1000
next table: 2017
cur table: 1999
epoch: 1000
next table: 2037
cur table: 2017
epoch: 1000
next table: 1956
cur table: 2037
epoch: 1000
next table: 1995
cur table: 1956
epoch: 1000
next table: 1988
cur table: 1995
epoch: 1000
next table: 2023
cur table: 1988
epoch: 1000
next table: 2058
cur table: 2023
epoch: 1000
next table: 1968
cur table: 2058
epoch: 1000
next table: 1956
cur table: 1968
epoch: 1000
next table: 1958
cur table: 1956
epoch: 1000
next table: 2052
cur table: 1958
epoch: 1000
next table: 2016
cur table: 2052
epoch: 1000
next table: 2016
cur table: 2016
epoch: 1000
next table: 1991
cur table: 2016
epoch: 1000
next table: 2178
cur table: 11087
epoch: 1000
next table: 1990
cur table: 1991
epoch: 1000
next table: 2007
cur table: 1990
epoch: 1000
next table: 2020
cur table: 2007
epoch: 1000
next table: 1775
cur table: 2178
epoch: 1000
next table: 1961
cur table: 2020
epoch: 1000
next table: 1959
cur table: 1961
epoch: 1000
next table: 1694
cur table: 1775
epoch: 1000
next table: 2012
cur table: 1959
epoch: 1000
next table: 1578
cur table: 1694
epoch: 1000
next table: 2041
cur table: 2012
epoch: 1000
next table: 2060
cur table: 2041
epoch: 1000
next table: 1561
cur table: 1578
epoch: 1000
next table: 1986
cur table: 2060
epoch: 1000
next table: 1947
cur table: 1986
epoch: 1000
next table: 1512
cur table: 1561
epoch: 1000
next table: 1993
cur table: 1947
epoch: 1000
next table: 1458
cur table: 1512
epoch: 1000
next table: 2048
cur table: 1993
epoch: 1000
next table: 2046
cur table: 2048
epoch: 1000
next table: 1505
cur table: 1458
epoch: 1000
next table: 1982
cur table: 2046
epoch: 1000
next table: 1460
cur table: 1505
epoch: 1000
next table: 1966
cur table: 1982
epoch: 1000
next table: 1469
cur table: 1460
epoch: 1000
next table: 1987
cur table: 1966
epoch: 1000
next table: 2020
cur table: 1987
epoch: 1000
next table: 1408
cur table: 1469
epoch: 1000
next table: 2029
cur table: 2020
epoch: 1000
next table: 1445
cur table: 1408
epoch: 1000
next table: 1966
cur table: 2029
epoch: 1000
next table: 1429
cur table: 1445
epoch: 1000
next table: 1986
cur table: 1966
epoch: 1000
next table: 1402
cur table: 1429
epoch: 1000
next table: 1988
cur table: 1986
epoch: 1000
next table: 2035
cur table: 1988
epoch: 1000
next table: 1397
cur table: 1402
epoch: 1000
next table: 2031
cur table: 2035
epoch: 1000
next table: 1407
cur table: 1397
epoch: 1000
next table: 1956
cur table: 2031
epoch: 1000
next table: 1406
cur table: 1407
epoch: 1000
next table: 1940
cur table: 1956
epoch: 1000
next table: 1402
cur table: 1406
epoch: 1000
next table: 2008
cur table: 1940
epoch: 1000
next table: 1399
cur table: 1402
epoch: 1000
next table: 2054
cur table: 2008
epoch: 1000
next table: 2033
cur table: 2054
epoch: 1000
next table: 1391
cur table: 1399
epoch: 1000
next table: 1990
cur table: 2033
epoch: 1000
next table: 1378
cur table: 1391
epoch: 1000
next table: 1988
cur table: 1990
epoch: 1000
next table: 1372
cur table: 1378
epoch: 1000
next table: 1956
cur table: 1988
epoch: 1000
next table: 1390
cur table: 1372
epoch: 1000
next table: 2045
cur table: 1956
epoch: 1000
next table: 1406
cur table: 1390
epoch: 1000
next table: 2045
cur table: 2045
epoch: 1000
next table: 1393
cur table: 1406
epoch: 1000
next table: 1983
cur table: 2045
epoch: 1000
next table: 1986
cur table: 1983
epoch: 1000
next table: 1379
cur table: 1393
epoch: 1000
next table: 1970
cur table: 1986
epoch: 1000
next table: 1391
cur table: 1379
epoch: 1000
next table: 2022
cur table: 1970
epoch: 1000
next table: 1383
cur table: 1391
epoch: 1000
next table: 2007
cur table: 2022
epoch: 1000
next table: 1367
cur table: 1383
epoch: 1000
next table: 1989
cur table: 2007
epoch: 1000
next table: 1379
cur table: 1367
epoch: 1000
next table: 2004
cur table: 1989
epoch: 1000
next table: 1382
cur table: 1379
epoch: 1000
next table: 1969
cur table: 2004
epoch: 1000
next table: 1381
cur table: 1382
epoch: 1000
next table: 2042
cur table: 1969
epoch: 1000
next table: 1381
cur table: 1381
epoch: 1000
next table: 2015
cur table: 2042
epoch: 1000
next table: 1953
cur table: 2015
epoch: 1000
next table: 1373
cur table: 1381
epoch: 1000
next table: 1986
cur table: 1953
epoch: 1000
next table: 1364
cur table: 1373
epoch: 1000
next table: 1974
cur table: 1986
epoch: 1000
next table: 1362
cur table: 1364
epoch: 1000
next table: 2072
cur table: 1974
epoch: 1000
next table: 1358
cur table: 1362
epoch: 1000
next table: 2013
cur table: 2072
epoch: 1000
next table: 1360
cur table: 1358
epoch: 1000
next table: 1958
cur table: 2013
epoch: 1000
next table: 1377
cur table: 1360
epoch: 1000
next table: 1991
cur table: 1958
epoch: 1000
next table: 1374
cur table: 1377
epoch: 1000
next table: 1981
cur table: 1991
epoch: 1000
next table: 1375
cur table: 1374
epoch: 1000
next table: 2063
cur table: 1981
epoch: 1000
next table: 1367
cur table: 1375
epoch: 1000
next table: 2006
cur table: 2063
epoch: 1000
next table: 1954
cur table: 2006
epoch: 1000
next table: 1368
cur table: 1367
epoch: 1000
next table: 1989
cur table: 1954
epoch: 1000
next table: 1369
cur table: 1368
epoch: 1000
next table: 1981
cur table: 1989
epoch: 1000
next table: 1355
cur table: 1369
epoch: 1000
next table: 2064
cur table: 1981
epoch: 1000
next table: 1366
cur table: 1355
epoch: 1000
next table: 2004
cur table: 2064
epoch: 1000
next table: 1373
cur table: 1366
epoch: 1000
next table: 1978
cur table: 2004
epoch: 1000
next table: 1372
cur table: 1373
epoch: 1000
next table: 1980
cur table: 1978
epoch: 1000
next table: 1363
cur table: 1372
epoch: 1000
next table: 1987
cur table: 1980
epoch: 1000
next table: 1366
cur table: 1363
epoch: 1000
next table: 2068
cur table: 1987
epoch: 1000
next table: 1355
cur table: 1366
epoch: 1000
next table: 2013
cur table: 2068
epoch: 1000
next table: 1365
cur table: 1355
epoch: 1000
next table: 1990
cur table: 2013
epoch: 1000
next table: 1949
cur table: 1990
epoch: 1000
next table: 1374
cur table: 1365
epoch: 1000
next table: 1989
cur table: 1949
epoch: 1000
next table: 1359
cur table: 1374
epoch: 1000
next table: 2075
cur table: 1989
epoch: 1000
next table: 1366
cur table: 1359
epoch: 1000
next table: 2015
cur table: 2075
epoch: 1000
next table: 1362
cur table: 1366
epoch: 1000
next table: 1988
cur table: 2015
epoch: 1000
next table: 1360
cur table: 1362
epoch: 1000
next table: 1986
cur table: 1988
epoch: 1000
next table: 1376
cur table: 1360
epoch: 1000
next table: 1987
cur table: 1986
epoch: 1000
next table: 1375
cur table: 1376
epoch: 1000
next table: 2025
cur table: 1987
epoch: 1000
next table: 1367
cur table: 1375
epoch: 1000
next table: 2002
cur table: 2025
epoch: 1000
next table: 1362
cur table: 1367
epoch: 1000
next table: 1986
cur table: 2002
epoch: 1000
next table: 1351
cur table: 1362
epoch: 1000
next table: 1988
cur table: 1986
epoch: 1000
next table: 1363
cur table: 1351
epoch: 1000
next table: 1990
cur table: 1988
epoch: 1000
next table: 2041
cur table: 1990
epoch: 1000
next table: 1363
cur table: 1363
epoch: 1000
next table: 2009
cur table: 2041
epoch: 1000
next table: 1376
cur table: 1363
epoch: 1000
next table: 1979
cur table: 2009
epoch: 1000
next table: 1366
cur table: 1376
epoch: 1000
next table: 1969
cur table: 1979
epoch: 1000
next table: 1356
cur table: 1366
epoch: 1000
next table: 1988
cur table: 1969
epoch: 1000
next table: 1377
cur table: 1356
epoch: 1000
next table: 2060
cur table: 1988
epoch: 1000
next table: 1360
cur table: 1377
epoch: 1000
next table: 1999
cur table: 2060
epoch: 1000
next table: 1364
cur table: 1360
epoch: 1000
next table: 2006
cur table: 1999
epoch: 1000
next table: 1358
cur table: 1364
epoch: 1000
next table: 1944
cur table: 2006
epoch: 1000
next table: 1359
cur table: 1358
epoch: 1000
next table: 2002
cur table: 1944
epoch: 1000
next table: 1353
cur table: 1359
epoch: 1000
next table: 2057
cur table: 2002
epoch: 1000
next table: 1364
cur table: 1353
epoch: 1000
next table: 1982
cur table: 2057
epoch: 1000
next table: 1989
cur table: 1982
epoch: 1000
next table: 1355
cur table: 1364
epoch: 1000
next table: 1989
cur table: 1989
epoch: 1000
next table: 1370
cur table: 1355
epoch: 1000
next table: 1983
cur table: 1989
epoch: 1000
next table: 1355
cur table: 1370
epoch: 1000
next table: 2040
cur table: 1983
epoch: 1000
next table: 1368
cur table: 1355
epoch: 1000
next table: 1990
cur table: 2040
epoch: 1000
next table: 1352
cur table: 1368
epoch: 1000
next table: 2004
cur table: 1990
epoch: 1000
next table: 1354
cur table: 1352
epoch: 1000
next table: 1973
cur table: 2004
epoch: 1000
next table: 1360
cur table: 1354
epoch: 1000
next table: 1990
cur table: 1973
epoch: 1000
next table: 1370
cur table: 1360
epoch: 1000
next table: 2075
cur table: 1990
epoch: 1000
next table: 1369
cur table: 1370
epoch: 1000
next table: 1986
cur table: 2075
epoch: 1000
next table: 1375
cur table: 1369
epoch: 1000
next table: 1959
cur table: 1986
epoch: 1000
next table: 1984
cur table: 1959
epoch: 1000
next table: 1363
cur table: 1375
epoch: 1000
next table: 2003
cur table: 1984
epoch: 1000
next table: 1353
cur table: 1363
epoch: 1000
next table: 2071
cur table: 2003
epoch: 1000
next table: 1367
cur table: 1353
epoch: 1000
next table: 1979
cur table: 2071
epoch: 1000
next table: 1374
cur table: 1367
epoch: 1000
next table: 1984
cur table: 1979
epoch: 1000
next table: 1357
cur table: 1374
epoch: 1000
next table: 1988
cur table: 1984
epoch: 1000
next table: 1377
cur table: 1357
epoch: 1000
next table: 1977
cur table: 1988
epoch: 1000
next table: 1363
cur table: 1377
epoch: 1000
next table: 2076
cur table: 1977
epoch: 1000
next table: 1376
cur table: 1363
epoch: 1000
next table: 1995
cur table: 2076
epoch: 1000
next table: 1378
cur table: 1376
epoch: 1000
next table: 1961
cur table: 1995
epoch: 1000
next table: 1962
cur table: 1961
epoch: 1000
next table: 1371
cur table: 1378
epoch: 1000
next table: 2020
cur table: 1962
epoch: 1000
next table: 1382
cur table: 1371
epoch: 1000
next table: 2065
cur table: 2020
epoch: 1000
next table: 1396
cur table: 1382
epoch: 1000
next table: 1966
cur table: 2065
epoch: 1000
next table: 1358
cur table: 1396
epoch: 1000
next table: 1957
cur table: 1966
epoch: 1000
next table: 1364
cur table: 1358
epoch: 1000
next table: 1992
cur table: 1957
epoch: 1000
next table: 1366
cur table: 1364
epoch: 1000
next table: 2011
cur table: 1992
epoch: 1000
next table: 1371
cur table: 1366
epoch: 1000
next table: 2074
cur table: 2011
epoch: 1000
next table: 1369
cur table: 1371
epoch: 1000
next table: 1987
cur table: 2074
epoch: 1000
next table: 1372
cur table: 1369
epoch: 1000
next table: 1979
cur table: 1987
epoch: 1000
next table: 1374
cur table: 1372
epoch: 1000
next table: 1985
cur table: 1979
epoch: 1000
next table: 1989
cur table: 1985
epoch: 1000
next table: 1376
cur table: 1374
epoch: 1000
next table: 2083
cur table: 1989
epoch: 1000
next table: 1380
cur table: 1376
epoch: 1000
next table: 1976
cur table: 2083
epoch: 1000
next table: 1380
cur table: 1380
epoch: 1000
next table: 1968
cur table: 1976
epoch: 1000
next table: 1361
cur table: 1380
epoch: 1000
next table: 1980
cur table: 1968
epoch: 1000
next table: 1375
cur table: 1361
epoch: 1000
next table: 2008
cur table: 1980
epoch: 1000
next table: 1369
cur table: 1375
epoch: 1000
next table: 2032
cur table: 2008
epoch: 1000
next table: 1361
cur table: 1369
epoch: 1000
next table: 1989
cur table: 2032
epoch: 1000
next table: 1365
cur table: 1361
epoch: 1000
next table: 1984
cur table: 1989
epoch: 1000
next table: 1991
cur table: 1984
epoch: 1000
next table: 1376
cur table: 1365
epoch: 1000
next table: 2004
cur table: 1991
epoch: 1000
next table: 1381
cur table: 1376
epoch: 1000
next table: 2053
cur table: 2004
epoch: 1000
next table: 1365
cur table: 1381
epoch: 1000
next table: 1945
cur table: 2053
epoch: 1000
next table: 1369
cur table: 1365
epoch: 1000
next table: 1979
cur table: 1945
epoch: 1000
next table: 1364
cur table: 1369
epoch: 1000
next table: 1989
cur table: 1979
epoch: 1000
next table: 1370
cur table: 1364
epoch: 1000
next table: 2028
cur table: 1989
epoch: 1000
next table: 1382
cur table: 1370
epoch: 1000
next table: 2081
cur table: 2028
epoch: 1000
next table: 1375
cur table: 1382
epoch: 1000
next table: 1964
cur table: 2081
epoch: 1000
next table: 1372
cur table: 1375
epoch: 1000
next table: 1965
cur table: 1964
epoch: 1000
next table: 1992
cur table: 1965
epoch: 1000
next table: 1374
cur table: 1372
epoch: 1000
next table: 2006
cur table: 1992
epoch: 1000
next table: 1369
cur table: 1374
epoch: 1000
next table: 2071
cur table: 2006
epoch: 1000
next table: 1375
cur table: 1369
epoch: 1000
next table: 1959
cur table: 2071
epoch: 1000
next table: 1377
cur table: 1375
epoch: 1000
next table: 1992
cur table: 1959
epoch: 1000
next table: 1365
cur table: 1377
epoch: 1000
next table: 1981
cur table: 1992
epoch: 1000
next table: 1374
cur table: 1365
epoch: 1000
next table: 2011
cur table: 1981
epoch: 1000
next table: 1379
cur table: 1374
epoch: 1000
next table: 1998
cur table: 2011
epoch: 1000
next table: 1377
cur table: 1379
epoch: 1000
next table: 2007
cur table: 1998
epoch: 1000
next table: 1992
cur table: 2007
epoch: 1000
next table: 1372
cur table: 1377
epoch: 1000
next table: 1971
cur table: 1992
epoch: 1000
next table: 1367
cur table: 1372
epoch: 1000
next table: 2042
cur table: 1971
epoch: 1000
next table: 1359
cur table: 1367
epoch: 1000
next table: 2035
cur table: 2042
epoch: 1000
next table: 1371
cur table: 1359
epoch: 1000
next table: 1965
cur table: 2035
epoch: 1000
next table: 1373
cur table: 1371
epoch: 1000
next table: 1956
cur table: 1965
epoch: 1000
next table: 1362
cur table: 1373
epoch: 1000
next table: 1991
cur table: 1956
epoch: 1000
next table: 1378
cur table: 1362
epoch: 1000
next table: 2048
cur table: 1991
epoch: 1000
next table: 1356
cur table: 1378
epoch: 1000
next table: 2040
cur table: 2048
epoch: 1000
next table: 1369
cur table: 1356
epoch: 1000
next table: 1984
cur table: 2040
epoch: 1000
next table: 1970
cur table: 1984
epoch: 1000
next table: 1364
cur table: 1369
epoch: 1000
next table: 1984
cur table: 1970
epoch: 1000
next table: 1375
cur table: 1364
epoch: 1000
next table: 2021
cur table: 1984
epoch: 1000
next table: 1375
cur table: 1375
epoch: 1000
next table: 1984
cur table: 2021
epoch: 1000
next table: 1352
cur table: 1375
epoch: 1000
next table: 1987
cur table: 1984
epoch: 1000
next table: 1374
cur table: 1352
epoch: 1000
next table: 1986
cur table: 1987
epoch: 1000
next table: 1351
cur table: 1374
epoch: 1000
next table: 1968
cur table: 1986
epoch: 1000
next table: 1369
cur table: 1351
epoch: 1000
next table: 2073
cur table: 1968
epoch: 1000
next table: 1369
cur table: 1369
epoch: 1000
next table: 1985
cur table: 2073
epoch: 1000
next table: 1358
cur table: 1369
epoch: 1000
next table: 1952
cur table: 1985
epoch: 1000
next table: 1971
cur table: 1952
epoch: 1000
next table: 1351
cur table: 1358
epoch: 1000
next table: 2015
cur table: 1971
epoch: 1000
next table: 1356
cur table: 1351
epoch: 1000
next table: 2075
cur table: 2015
epoch: 1000
next table: 1372
cur table: 1356
epoch: 1000
next table: 1985
cur table: 2075
epoch: 1000
next table: 1357
cur table: 1372
epoch: 1000
next table: 1981
cur table: 1985
epoch: 1000
next table: 1377
cur table: 1357
epoch: 1000
next table: 1926
cur table: 1981
epoch: 1000
next table: 1358
cur table: 1377
epoch: 1000
next table: 2047
cur table: 1926
epoch: 1000
next table: 1355
cur table: 1358
epoch: 1000
next table: 2051
cur table: 2047
epoch: 1000
next table: 1367
cur table: 1355
epoch: 1000
next table: 1984
cur table: 2051
epoch: 1000
next table: 1369
cur table: 1367
epoch: 1000
next table: 2005
cur table: 1984
epoch: 1000
next table: 1373
cur table: 1369
epoch: 1000
next table: 1961
cur table: 2005
epoch: 1000
next table: 2001
cur table: 1961
epoch: 1000
next table: 1379
cur table: 1373
epoch: 1000
next table: 2031
cur table: 2001
epoch: 1000
next table: 1370
cur table: 1379
epoch: 1000
next table: 1988
cur table: 2031
epoch: 1000
next table: 1367
cur table: 1370
epoch: 1000
next table: 1988
cur table: 1988
epoch: 1000
next table: 1362
cur table: 1367
epoch: 1000
next table: 1988
cur table: 1988
epoch: 1000
next table: 1367
cur table: 1362
epoch: 1000
next table: 2009
cur table: 1988
epoch: 1000
next table: 1370
cur table: 1367
epoch: 1000
next table: 2060
cur table: 2009
epoch: 1000
next table: 1360
cur table: 1370
epoch: 1000
next table: 1967
cur table: 2060
epoch: 1000
next table: 1369
cur table: 1360
epoch: 1000
next table: 1983
cur table: 1967
epoch: 1000
next table: 1370
cur table: 1369
epoch: 1000
next table: 1982
cur table: 1983
epoch: 1000
next table: 2023
cur table: 1982
epoch: 1000
next table: 1376
cur table: 1370
epoch: 1000
next table: 2040
cur table: 2023
epoch: 1000
next table: 1371
cur table: 1376
epoch: 1000
next table: 1989
cur table: 2040
epoch: 1000
next table: 1370
cur table: 1371
epoch: 1000
next table: 1964
cur table: 1989
epoch: 1000
next table: 1361
cur table: 1370
epoch: 1000
next table: 1987
cur table: 1964
epoch: 1000
next table: 1366
cur table: 1361
epoch: 1000
next table: 2020
cur table: 1987
epoch: 1000
next table: 1378
cur table: 1366
epoch: 1000
next table: 2038
cur table: 2020
Heartbeat CPU 0 instructions: 10000002 cycles: 5057069 heartbeat IPC: 1.97743 cumulative IPC: 1.97743 (Simulation time: 0 hr 7 min 45 sec) 
epoch: 1000
next table: 1364
cur table: 1378
epoch: 1000
next table: 1933
cur table: 2038
epoch: 1000
next table: 1367
cur table: 1364
epoch: 1000
next table: 1988
cur table: 1933
epoch: 1000
next table: 1360
cur table: 1367
epoch: 1000
next table: 1996
cur table: 1988
epoch: 1000
next table: 2043
cur table: 1996
epoch: 1000
next table: 1369
cur table: 1360
epoch: 1000
next table: 1975
cur table: 2043
epoch: 1000
next table: 1375
cur table: 1369
epoch: 1000
next table: 1985
cur table: 1975
epoch: 1000
next table: 1360
cur table: 1375
epoch: 1000
next table: 1990
cur table: 1985
epoch: 1000
next table: 1366
cur table: 1360
epoch: 1000
next table: 1988
cur table: 1990
epoch: 1000
next table: 1369
cur table: 1366
epoch: 1000
next table: 2065
cur table: 1988
epoch: 1000
next table: 1359
cur table: 1369
epoch: 1000
next table: 2023
cur table: 2065
epoch: 1000
next table: 1375
cur table: 1359
epoch: 1000
next table: 1967
cur table: 2023
epoch: 1000
next table: 1366
cur table: 1375
epoch: 1000
next table: 1991
cur table: 1967
epoch: 1000
next table: 1380
cur table: 1366
epoch: 1000
next table: 1987
cur table: 1991
epoch: 1000
next table: 2048
cur table: 1987
epoch: 1000
next table: 1380
cur table: 1380
epoch: 1000
next table: 2002
cur table: 2048
epoch: 1000
next table: 1367
cur table: 1380
epoch: 1000
next table: 1963
cur table: 2002
epoch: 1000
next table: 1371
cur table: 1367
epoch: 1000
next table: 1985
cur table: 1963
epoch: 1000
next table: 1371
cur table: 1371
epoch: 1000
next table: 1990
cur table: 1985
epoch: 1000
next table: 1374
cur table: 1371
epoch: 1000
next table: 2056
cur table: 1990
epoch: 1000
next table: 1371
cur table: 1374
epoch: 1000
next table: 1983
cur table: 2056
epoch: 1000
next table: 1370
cur table: 1371
epoch: 1000
next table: 1959
cur table: 1983
epoch: 1000
next table: 1375
cur table: 1370
epoch: 1000
next table: 1985
cur table: 1959
epoch: 1000
next table: 1370
cur table: 1375
epoch: 1000
next table: 1998
cur table: 1985
epoch: 1000
next table: 2073
cur table: 1998
epoch: 1000
next table: 1369
cur table: 1370
epoch: 1000
next table: 1980
cur table: 2073
epoch: 1000
next table: 1370
cur table: 1369
epoch: 1000
next table: 1984
cur table: 1980
epoch: 1000
next table: 1367
cur table: 1370
epoch: 1000
next table: 1987
cur table: 1984
epoch: 1000
next table: 1378
cur table: 1367
epoch: 1000
next table: 1978
cur table: 1987
epoch: 1000
next table: 1369
cur table: 1378
epoch: 1000
next table: 2075
cur table: 1978
epoch: 1000
next table: 1373
cur table: 1369
epoch: 1000
next table: 1996
cur table: 2075
epoch: 1000
next table: 1370
cur table: 1373
epoch: 1000
next table: 1965
cur table: 1996
epoch: 1000
next table: 1386
cur table: 1370
epoch: 1000
next table: 1948
cur table: 1965
epoch: 1000
next table: 1363
cur table: 1386
epoch: 1000
next table: 2020
cur table: 1948
epoch: 1000
next table: 2036
cur table: 2020
epoch: 1000
next table: 1363
cur table: 1363
epoch: 1000
next table: 1983
cur table: 2036
epoch: 1000
next table: 1361
cur table: 1363
epoch: 1000
next table: 1969
cur table: 1983
epoch: 1000
next table: 1363
cur table: 1361
epoch: 1000
next table: 1994
cur table: 1969
epoch: 1000
next table: 1369
cur table: 1363
epoch: 1000
next table: 2014
cur table: 1994
epoch: 1000
next table: 1354
cur table: 1369
epoch: 1000
next table: 2037
cur table: 2014
epoch: 1000
next table: 1362
cur table: 1354
epoch: 1000
next table: 1993
cur table: 2037
epoch: 1000
next table: 1359
cur table: 1362
epoch: 1000
next table: 1967
cur table: 1993
epoch: 1000
next table: 1379
cur table: 1359
epoch: 1000
next table: 2006
cur table: 1967
epoch: 1000
next table: 1362
cur table: 1379
epoch: 1000
next table: 2010
cur table: 2006
epoch: 1000
next table: 1369
cur table: 1362
epoch: 1000
next table: 2052
cur table: 2010
epoch: 1000
next table: 1969
cur table: 2052
epoch: 1000
next table: 1369
cur table: 1369
epoch: 1000
next table: 1950
cur table: 1969
epoch: 1000
next table: 1365
cur table: 1369
epoch: 1000
next table: 1962
cur table: 1950
epoch: 1000
next table: 1348
cur table: 1365
epoch: 1000
next table: 2057
cur table: 1962
epoch: 1000
next table: 1362
cur table: 1348
epoch: 1000
next table: 2062
cur table: 2057
epoch: 1000
next table: 1361
cur table: 1362
epoch: 1000
next table: 1962
cur table: 2062
epoch: 1000
next table: 1366
cur table: 1361
epoch: 1000
next table: 1968
cur table: 1962
epoch: 1000
next table: 1364
cur table: 1366
epoch: 1000
next table: 1973
cur table: 1968
epoch: 1000
next table: 1369
cur table: 1364
epoch: 1000
next table: 2047
cur table: 1973
epoch: 1000
next table: 1372
cur table: 1369
epoch: 1000
next table: 2016
cur table: 2047
epoch: 1000
next table: 1988
cur table: 2016
epoch: 1000
next table: 1378
cur table: 1372
epoch: 1000
next table: 1987
cur table: 1988
epoch: 1000
next table: 1380
cur table: 1378
epoch: 1000
next table: 1971
cur table: 1987
epoch: 1000
next table: 1368
cur table: 1380
epoch: 1000
next table: 2034
cur table: 1971
epoch: 1000
next table: 1362
cur table: 1368
epoch: 1000
next table: 2023
cur table: 2034
epoch: 1000
next table: 1385
cur table: 1362
epoch: 1000
next table: 1954
cur table: 2023
epoch: 1000
next table: 1366
cur table: 1385
epoch: 1000
next table: 1987
cur table: 1954
epoch: 1000
next table: 1361
cur table: 1366
epoch: 1000
next table: 1990
cur table: 1987
epoch: 1000
next table: 1374
cur table: 1361
epoch: 1000
next table: 2063
cur table: 1990
epoch: 1000
next table: 1362
cur table: 1374
epoch: 1000
next table: 1992
cur table: 2063
epoch: 1000
next table: 1960
cur table: 1992
epoch: 1000
next table: 1369
cur table: 1362
epoch: 1000
next table: 1966
cur table: 1960
epoch: 1000
next table: 1374
cur table: 1369
epoch: 1000
next table: 1995
cur table: 1966
epoch: 1000
next table: 1374
cur table: 1374
epoch: 1000
next table: 2084
cur table: 1995
epoch: 1000
next table: 1371
cur table: 1374
epoch: 1000
next table: 1968
cur table: 2084
epoch: 1000
next table: 1366
cur table: 1371
epoch: 1000
next table: 1982
cur table: 1968
epoch: 1000
next table: 1374
cur table: 1366
epoch: 1000
next table: 1969
cur table: 1982
epoch: 1000
next table: 1364
cur table: 1374
epoch: 1000
next table: 2024
cur table: 1969
epoch: 1000
next table: 1377
cur table: 1364
epoch: 1000
next table: 2033
cur table: 2024
epoch: 1000
next table: 1369
cur table: 1377
epoch: 1000
next table: 1987
cur table: 2033
epoch: 1000
next table: 1967
cur table: 1987
epoch: 1000
next table: 1368
cur table: 1369
epoch: 1000
next table: 1986
cur table: 1967
epoch: 1000
next table: 1366
cur table: 1368
epoch: 1000
next table: 2008
cur table: 1986
epoch: 1000
next table: 1362
cur table: 1366
epoch: 1000
next table: 2072
cur table: 2008
epoch: 1000
next table: 1381
cur table: 1362
epoch: 1000
next table: 1967
cur table: 2072
epoch: 1000
next table: 1376
cur table: 1381
epoch: 1000
next table: 1956
cur table: 1967
epoch: 1000
next table: 1373
cur table: 1376
epoch: 1000
next table: 1956
cur table: 1956
epoch: 1000
next table: 1375
cur table: 1373
epoch: 1000
next table: 2050
cur table: 1956
epoch: 1000
next table: 1359
cur table: 1375
epoch: 1000
next table: 2039
cur table: 2050
epoch: 1000
next table: 1357
cur table: 1359
epoch: 1000
next table: 1987
cur table: 2039
epoch: 1000
next table: 1366
cur table: 1357
epoch: 1000
next table: 1972
cur table: 1987
epoch: 1000
next table: 2000
cur table: 1972
epoch: 1000
next table: 1361
cur table: 1366
epoch: 1000
next table: 2002
cur table: 2000
epoch: 1000
next table: 1378
cur table: 1361
epoch: 1000
next table: 2005
cur table: 2002
epoch: 1000
next table: 1364
cur table: 1378
epoch: 1000
next table: 1987
cur table: 2005
epoch: 1000
next table: 1364
cur table: 1364
epoch: 1000
next table: 1987
cur table: 1987
epoch: 1000
next table: 1367
cur table: 1364
epoch: 1000
next table: 1989
cur table: 1987
epoch: 1000
next table: 1376
cur table: 1367
epoch: 1000
next table: 2056
cur table: 1989
epoch: 1000
next table: 1377
cur table: 1376
epoch: 1000
next table: 2006
cur table: 2056
epoch: 1000
next table: 1373
cur table: 1377
epoch: 1000
next table: 1983
cur table: 2006
epoch: 1000
next table: 1367
cur table: 1373
epoch: 1000
next table: 1963
cur table: 1983
epoch: 1000
next table: 1986
cur table: 1963
epoch: 1000
next table: 1356
cur table: 1367
epoch: 1000
next table: 2053
cur table: 1986
epoch: 1000
next table: 1379
cur table: 1356
epoch: 1000
next table: 2033
cur table: 2053
epoch: 1000
next table: 1356
cur table: 1379
epoch: 1000
next table: 1963
cur table: 2033
epoch: 1000
next table: 1377
cur table: 1356
epoch: 1000
next table: 1990
cur table: 1963
epoch: 1000
next table: 1365
cur table: 1377
epoch: 1000
next table: 1958
cur table: 1990
epoch: 1000
next table: 1359
cur table: 1365
epoch: 1000
next table: 2060
cur table: 1958
epoch: 1000
next table: 1380
cur table: 1359
epoch: 1000
next table: 2001
cur table: 2060
epoch: 1000
next table: 1377
cur table: 1380
epoch: 1000
next table: 1983
cur table: 2001
epoch: 1000
next table: 1360
cur table: 1377
epoch: 1000
next table: 1970
cur table: 1983
epoch: 1000
next table: 1983
cur table: 1970
epoch: 1000
next table: 1369
cur table: 1360
epoch: 1000
next table: 2063
cur table: 1983
epoch: 1000
next table: 1360
cur table: 1369
epoch: 1000
next table: 1992
cur table: 2063
epoch: 1000
next table: 1360
cur table: 1360
epoch: 1000
next table: 1964
cur table: 1992
epoch: 1000
next table: 1365
cur table: 1360
epoch: 1000
next table: 2014
cur table: 1964
epoch: 1000
next table: 1378
cur table: 1365
epoch: 1000
next table: 1978
cur table: 2014
epoch: 1000
next table: 1372
cur table: 1378
epoch: 1000
next table: 2063
cur table: 1978
epoch: 1000
next table: 1363
cur table: 1372
epoch: 1000
next table: 2014
cur table: 2063
epoch: 1000
next table: 1386
cur table: 1363
epoch: 1000
next table: 1930
cur table: 2014
epoch: 1000
next table: 1355
cur table: 1386
epoch: 1000
next table: 1986
cur table: 1930
epoch: 1000
next table: 2020
cur table: 1986
epoch: 1000
next table: 1359
cur table: 1355
epoch: 1000
next table: 2069
cur table: 2020
epoch: 1000
next table: 1358
cur table: 1359
epoch: 1000
next table: 1985
cur table: 2069
epoch: 1000
next table: 1375
cur table: 1358
epoch: 1000
next table: 1965
cur table: 1985
epoch: 1000
next table: 1374
cur table: 1375
epoch: 1000
next table: 1976
cur table: 1965
epoch: 1000
next table: 1361
cur table: 1374
epoch: 1000
next table: 1992
cur table: 1976
epoch: 1000
next table: 1358
cur table: 1361
epoch: 1000
next table: 2080
cur table: 1992
epoch: 1000
next table: 1375
cur table: 1358
epoch: 1000
next table: 1984
cur table: 2080
epoch: 1000
next table: 1365
cur table: 1375
epoch: 1000
next table: 1981
cur table: 1984
epoch: 1000
next table: 1373
cur table: 1365
epoch: 1000
next table: 1967
cur table: 1981
epoch: 1000
next table: 1998
cur table: 1967
epoch: 1000
next table: 1371
cur table: 1373
epoch: 1000
next table: 2068
cur table: 1998
epoch: 1000
next table: 1378
cur table: 1371
epoch: 1000
next table: 1960
cur table: 2068
epoch: 1000
next table: 1367
cur table: 1378
epoch: 1000
next table: 1954
cur table: 1960
epoch: 1000
next table: 1357
cur table: 1367
epoch: 1000
next table: 1989
cur table: 1954
epoch: 1000
next table: 1369
cur table: 1357
epoch: 1000
next table: 2035
cur table: 1989
epoch: 1000
next table: 1369
cur table: 1369
epoch: 1000
next table: 2055
cur table: 2035
epoch: 1000
next table: 1376
cur table: 1369
epoch: 1000
next table: 1967
cur table: 2055
epoch: 1000
next table: 1358
cur table: 1376
epoch: 1000
next table: 2002
cur table: 1967
epoch: 1000
next table: 1360
cur table: 1358
epoch: 1000
next table: 1941
cur table: 2002
epoch: 1000
next table: 2021
cur table: 1941
epoch: 1000
next table: 1367
cur table: 1360
epoch: 1000
next table: 2064
cur table: 2021
epoch: 1000
next table: 1374
cur table: 1367
epoch: 1000
next table: 1986
cur table: 2064
epoch: 1000
next table: 1373
cur table: 1374
epoch: 1000
next table: 1956
cur table: 1986
epoch: 1000
next table: 1366
cur table: 1373
epoch: 1000
next table: 1969
cur table: 1956
epoch: 1000
next table: 1378
cur table: 1366
epoch: 1000
next table: 2026
cur table: 1969
epoch: 1000
next table: 1372
cur table: 1378
epoch: 1000
next table: 2019
cur table: 2026
epoch: 1000
next table: 1361
cur table: 1372
epoch: 1000
next table: 1988
cur table: 2019
epoch: 1000
next table: 1361
cur table: 1361
epoch: 1000
next table: 1988
cur table: 1988
epoch: 1000
next table: 1989
cur table: 1988
epoch: 1000
next table: 1379
cur table: 1361
epoch: 1000
next table: 2034
cur table: 1989
epoch: 1000
next table: 1384
cur table: 1379
epoch: 1000
next table: 2031
cur table: 2034
epoch: 1000
next table: 1369
cur table: 1384
epoch: 1000
next table: 1956
cur table: 2031
epoch: 1000
next table: 1374
cur table: 1369
epoch: 1000
next table: 1941
cur table: 1956
epoch: 1000
next table: 1373
cur table: 1374
epoch: 1000
next table: 1989
cur table: 1941
epoch: 1000
next table: 1355
cur table: 1373
epoch: 1000
next table: 2074
cur table: 1989
epoch: 1000
next table: 1359
cur table: 1355
epoch: 1000
next table: 2033
cur table: 2074
epoch: 1000
next table: 1374
cur table: 1359
epoch: 1000
next table: 1979
cur table: 2033
epoch: 1000
next table: 1363
cur table: 1374
epoch: 1000
next table: 1972
cur table: 1979
epoch: 1000
next table: 1953
cur table: 1972
epoch: 1000
next table: 1369
cur table: 1363
epoch: 1000
next table: 2061
cur table: 1953
epoch: 1000
next table: 1361
cur table: 1369
epoch: 1000
next table: 1977
cur table: 2061
epoch: 1000
next table: 1353
cur table: 1361
epoch: 1000
next table: 1994
cur table: 1977
epoch: 1000
next table: 1369
cur table: 1353
epoch: 1000
next table: 1985
cur table: 1994
epoch: 1000
next table: 1376
cur table: 1369
epoch: 1000
next table: 1963
cur table: 1985
epoch: 1000
next table: 1359
cur table: 1376
epoch: 1000
next table: 2065
cur table: 1963
epoch: 1000
next table: 1358
cur table: 1359
epoch: 1000
next table: 1988
cur table: 2065
epoch: 1000
next table: 1373
cur table: 1358
epoch: 1000
next table: 1989
cur table: 1988
epoch: 1000
next table: 1365
cur table: 1373
epoch: 1000
next table: 1987
cur table: 1989
epoch: 1000
next table: 1984
cur table: 1987
epoch: 1000
next table: 1377
cur table: 1365
epoch: 1000
next table: 2084
cur table: 1984
epoch: 1000
next table: 1375
cur table: 1377
epoch: 1000
next table: 1984
cur table: 2084
epoch: 1000
next table: 1367
cur table: 1375
epoch: 1000
next table: 1984
cur table: 1984
epoch: 1000
next table: 1380
cur table: 1367
epoch: 1000
next table: 1906
cur table: 1984
epoch: 1000
next table: 1359
cur table: 1380
epoch: 1000
next table: 2050
cur table: 1906
epoch: 1000
next table: 1361
cur table: 1359
epoch: 1000
next table: 2063
cur table: 2050
epoch: 1000
next table: 1364
cur table: 1361
epoch: 1000
next table: 1991
cur table: 2063
epoch: 1000
next table: 1369
cur table: 1364
epoch: 1000
next table: 1956
cur table: 1991
epoch: 1000
next table: 1364
cur table: 1369
epoch: 1000
next table: 1983
cur table: 1956
epoch: 1000
next table: 1367
cur table: 1364
epoch: 1000
next table: 2022
cur table: 1983
epoch: 1000
next table: 2045
cur table: 2022
epoch: 1000
next table: 1365
cur table: 1367
epoch: 1000
next table: 1984
cur table: 2045
epoch: 1000
next table: 1383
cur table: 1365
epoch: 1000
next table: 1985
cur table: 1984
epoch: 1000
next table: 1377
cur table: 1383
epoch: 1000
next table: 1966
cur table: 1985
epoch: 1000
next table: 1381
cur table: 1377
epoch: 1000
next table: 2014
cur table: 1966
epoch: 1000
next table: 1371
cur table: 1381
epoch: 1000
next table: 2062
cur table: 2014
epoch: 1000
next table: 1372
cur table: 1371
epoch: 1000
next table: 1939
cur table: 2062
epoch: 1000
next table: 1361
cur table: 1372
epoch: 1000
next table: 1966
cur table: 1939
epoch: 1000
next table: 1372
cur table: 1361
epoch: 1000
next table: 1988
cur table: 1966
epoch: 1000
next table: 1366
cur table: 1372
epoch: 1000
next table: 2048
cur table: 1988
epoch: 1000
next table: 2043
cur table: 2048
epoch: 1000
next table: 1361
cur table: 1366
epoch: 1000
next table: 1965
cur table: 2043
epoch: 1000
next table: 1365
cur table: 1361
epoch: 1000
next table: 1982
cur table: 1965
epoch: 1000
next table: 1368
cur table: 1365
epoch: 1000
next table: 1957
cur table: 1982
epoch: 1000
next table: 1354
cur table: 1368
epoch: 1000
next table: 2041
cur table: 1957
epoch: 1000
next table: 1370
cur table: 1354
epoch: 1000
next table: 2021
cur table: 2041
epoch: 1000
next table: 1362
cur table: 1370
epoch: 1000
next table: 1969
cur table: 2021
epoch: 1000
next table: 1363
cur table: 1362
epoch: 1000
next table: 1995
cur table: 1969
epoch: 1000
next table: 1363
cur table: 1363
epoch: 1000
next table: 1997
cur table: 1995
epoch: 1000
next table: 1367
cur table: 1363
epoch: 1000
next table: 2033
cur table: 1997
epoch: 1000
next table: 2000
cur table: 2033
epoch: 1000
next table: 1368
cur table: 1367
epoch: 1000
next table: 2004
cur table: 2000
epoch: 1000
next table: 1395
cur table: 1368
epoch: 1000
next table: 1973
cur table: 2004
epoch: 1000
next table: 1359
cur table: 1395
epoch: 1000
next table: 2006
cur table: 1973
epoch: 1000
next table: 1371
cur table: 1359
epoch: 1000
next table: 2044
cur table: 2006
epoch: 1000
next table: 1368
cur table: 1371
epoch: 1000
next table: 2018
cur table: 2044
epoch: 1000
next table: 1384
cur table: 1368
epoch: 1000
next table: 1989
cur table: 2018
epoch: 1000
next table: 1391
cur table: 1384
epoch: 1000
next table: 1942
cur table: 1989
epoch: 1000
next table: 1366
cur table: 1391
epoch: 1000
next table: 1982
cur table: 1942
epoch: 1000
next table: 1367
cur table: 1366
epoch: 1000
next table: 2057
cur table: 1982
epoch: 1000
next table: 1363
cur table: 1367
epoch: 1000
next table: 2024
cur table: 2057
epoch: 1000
next table: 1351
cur table: 1363
epoch: 1000
next table: 1990
cur table: 2024
epoch: 1000
next table: 1990
cur table: 1990
epoch: 1000
next table: 1372
cur table: 1351
epoch: 1000
next table: 1961
cur table: 1990
epoch: 1000
next table: 1364
cur table: 1372
epoch: 1000
next table: 2040
cur table: 1961
epoch: 1000
next table: 1368
cur table: 1364
epoch: 1000
next table: 1993
cur table: 2040
epoch: 1000
next table: 1375
cur table: 1368
epoch: 1000
next table: 1961
cur table: 1993
epoch: 1000
next table: 1363
cur table: 1375
epoch: 1000
next table: 2011
cur table: 1961
epoch: 1000
next table: 1379
cur table: 1363
epoch: 1000
next table: 1969
cur table: 2011
epoch: 1000
next table: 1359
cur table: 1379
epoch: 1000
next table: 2060
cur table: 1969
epoch: 1000
next table: 1371
cur table: 1359
epoch: 1000
next table: 2021
cur table: 2060
epoch: 1000
next table: 1970
cur table: 2021
epoch: 1000
next table: 1395
cur table: 1371
epoch: 1000
next table: 1983
cur table: 1970
epoch: 1000
next table: 1368
cur table: 1395
epoch: 1000
next table: 1980
cur table: 1983
epoch: 1000
next table: 1370
cur table: 1368
epoch: 1000
next table: 2056
cur table: 1980
epoch: 1000
next table: 1378
cur table: 1370
epoch: 1000
next table: 1989
cur table: 2056
epoch: 1000
next table: 1353
cur table: 1378
epoch: 1000
next table: 1990
cur table: 1989
epoch: 1000
next table: 1361
cur table: 1353
epoch: 1000
next table: 1951
cur table: 1990
epoch: 1000
next table: 1372
cur table: 1361
epoch: 1000
next table: 2012
cur table: 1951
epoch: 1000
next table: 1365
cur table: 1372
epoch: 1000
next table: 2083
cur table: 2012
epoch: 1000
next table: 1389
cur table: 1365
epoch: 1000
next table: 1983
cur table: 2083
Heartbeat CPU 0 instructions: 20000000 cycles: 10124938 heartbeat IPC: 1.97322 cumulative IPC: 1.97532 (Simulation time: 0 hr 15 min 25 sec) 
epoch: 1000
next table: 1361
cur table: 1389
epoch: 1000
next table: 1957
cur table: 1983
epoch: 1000
next table: 1984
cur table: 1957
epoch: 1000
next table: 1383
cur table: 1361
epoch: 1000
next table: 2004
cur table: 1984
epoch: 1000
next table: 1361
cur table: 1383
epoch: 1000
next table: 2058
cur table: 2004
epoch: 1000
next table: 1362
cur table: 1361
epoch: 1000
next table: 1964
cur table: 2058
epoch: 1000
next table: 1360
cur table: 1362
epoch: 1000
next table: 1991
cur table: 1964
epoch: 1000
next table: 1364
cur table: 1360
epoch: 1000
next table: 2006
cur table: 1991
epoch: 1000
next table: 1366
cur table: 1364
epoch: 1000
next table: 1983
cur table: 2006
epoch: 1000
next table: 1367
cur table: 1366
epoch: 1000
next table: 2073
cur table: 1983
epoch: 1000
next table: 1373
cur table: 1367
epoch: 1000
next table: 1975
cur table: 2073
epoch: 1000
next table: 1369
cur table: 1373
epoch: 1000
next table: 1985
cur table: 1975
epoch: 1000
next table: 1960
cur table: 1985
epoch: 1000
next table: 1359
cur table: 1369
epoch: 1000
next table: 1997
cur table: 1960
epoch: 1000
next table: 1352
cur table: 1359
epoch: 1000
next table: 2084
cur table: 1997
epoch: 1000
next table: 1366
cur table: 1352
epoch: 1000
next table: 1987
cur table: 2084
epoch: 1000
next table: 1373
cur table: 1366
epoch: 1000
next table: 1969
cur table: 1987
epoch: 1000
next table: 1377
cur table: 1373
epoch: 1000
next table: 1963
cur table: 1969
epoch: 1000
next table: 1349
cur table: 1377
epoch: 1000
next table: 1997
cur table: 1963
epoch: 1000
next table: 1366
cur table: 1349
epoch: 1000
next table: 2066
cur table: 1997
epoch: 1000
next table: 1356
cur table: 1366
epoch: 1000
next table: 1980
cur table: 2066
epoch: 1000
next table: 1359
cur table: 1356
epoch: 1000
next table: 1987
cur table: 1980
epoch: 1000
next table: 1991
cur table: 1987
epoch: 1000
next table: 1365
cur table: 1359
epoch: 1000
next table: 1993
cur table: 1991
epoch: 1000
next table: 1370
cur table: 1365
epoch: 1000
next table: 2026
cur table: 1993
epoch: 1000
next table: 1373
cur table: 1370
epoch: 1000
next table: 1987
cur table: 2026
epoch: 1000
next table: 1365
cur table: 1373
epoch: 1000
next table: 1993
cur table: 1987
epoch: 1000
next table: 1364
cur table: 1365
epoch: 1000
next table: 1966
cur table: 1993
epoch: 1000
next table: 1353
cur table: 1364
epoch: 1000
next table: 2046
cur table: 1966
epoch: 1000
next table: 1366
cur table: 1353
epoch: 1000
next table: 2041
cur table: 2046
epoch: 1000
next table: 1366
cur table: 1366
epoch: 1000
next table: 1960
cur table: 2041
epoch: 1000
next table: 1366
cur table: 1366
epoch: 1000
next table: 1991
cur table: 1960
epoch: 1000
next table: 1376
cur table: 1366
epoch: 1000
next table: 1985
cur table: 1991
epoch: 1000
next table: 2021
cur table: 1985
epoch: 1000
next table: 1378
cur table: 1376
epoch: 1000
next table: 2033
cur table: 2021
epoch: 1000
next table: 1383
cur table: 1378
epoch: 1000
next table: 1988
cur table: 2033
epoch: 1000
next table: 1367
cur table: 1383
epoch: 1000
next table: 1962
cur table: 1988
epoch: 1000
next table: 1366
cur table: 1367
epoch: 1000
next table: 1965
cur table: 1962
epoch: 1000
next table: 1372
cur table: 1366
epoch: 1000
next table: 2047
cur table: 1965
epoch: 1000
next table: 1354
cur table: 1372
epoch: 1000
next table: 2038
cur table: 2047
epoch: 1000
next table: 1366
cur table: 1354
epoch: 1000
next table: 1989
cur table: 2038
epoch: 1000
next table: 1369
cur table: 1366
epoch: 1000
next table: 1960
cur table: 1989
epoch: 1000
next table: 1372
cur table: 1369
epoch: 1000
next table: 1987
cur table: 1960
epoch: 1000
next table: 2038
cur table: 1987
epoch: 1000
next table: 1363
cur table: 1372
epoch: 1000
next table: 2023
cur table: 2038
epoch: 1000
next table: 1374
cur table: 1363
epoch: 1000
next table: 1985
cur table: 2023
epoch: 1000
next table: 1371
cur table: 1374
epoch: 1000
next table: 1963
cur table: 1985
epoch: 1000
next table: 1367
cur table: 1371
epoch: 1000
next table: 1990
cur table: 1963
epoch: 1000
next table: 1364
cur table: 1367
epoch: 1000
next table: 2035
cur table: 1990
epoch: 1000
next table: 1362
cur table: 1364
epoch: 1000
next table: 2027
cur table: 2035
epoch: 1000
next table: 1372
cur table: 1362
epoch: 1000
next table: 1967
cur table: 2027
epoch: 1000
next table: 1362
cur table: 1372
epoch: 1000
next table: 1980
cur table: 1967
epoch: 1000
next table: 1951
cur table: 1980
epoch: 1000
next table: 1380
cur table: 1362
epoch: 1000
next table: 2086
cur table: 1951
epoch: 1000
next table: 1354
cur table: 1380
epoch: 1000
next table: 1999
cur table: 2086
epoch: 1000
next table: 1368
cur table: 1354
epoch: 1000
next table: 1986
cur table: 1999
epoch: 1000
next table: 1370
cur table: 1368
epoch: 1000
next table: 1965
cur table: 1986
epoch: 1000
next table: 1371
cur table: 1370
epoch: 1000
next table: 1972
cur table: 1965
epoch: 1000
next table: 1368
cur table: 1371
epoch: 1000
next table: 2041
cur table: 1972
epoch: 1000
next table: 1360
cur table: 1368
epoch: 1000
next table: 1982
cur table: 2041
epoch: 1000
next table: 1362
cur table: 1360
epoch: 1000
next table: 1990
cur table: 1982
epoch: 1000
next table: 1359
cur table: 1362
epoch: 1000
next table: 2009
cur table: 1990
epoch: 1000
next table: 1364
cur table: 1359
epoch: 1000
next table: 1989
cur table: 2009
epoch: 1000
next table: 2083
cur table: 1989
epoch: 1000
next table: 1379
cur table: 1364
epoch: 1000
next table: 1952
cur table: 2083
epoch: 1000
next table: 1371
cur table: 1379
epoch: 1000
next table: 1958
cur table: 1952
epoch: 1000
next table: 1378
cur table: 1371
epoch: 1000
next table: 1962
cur table: 1958
epoch: 1000
next table: 1368
cur table: 1378
epoch: 1000
next table: 2031
cur table: 1962
epoch: 1000
next table: 1350
cur table: 1368
epoch: 1000
next table: 2061
cur table: 2031
epoch: 1000
next table: 1363
cur table: 1350
epoch: 1000
next table: 1993
cur table: 2061
epoch: 1000
next table: 1354
cur table: 1363
epoch: 1000
next table: 1957
cur table: 1993
epoch: 1000
next table: 1376
cur table: 1354
epoch: 1000
next table: 1983
cur table: 1957
epoch: 1000
next table: 2012
cur table: 1983
epoch: 1000
next table: 1381
cur table: 1376
epoch: 1000
next table: 2047
cur table: 2012
epoch: 1000
next table: 1360
cur table: 1381
epoch: 1000
next table: 1988
cur table: 2047
epoch: 1000
next table: 1369
cur table: 1360
epoch: 1000
next table: 1987
cur table: 1988
epoch: 1000
next table: 1379
cur table: 1369
epoch: 1000
next table: 1970
cur table: 1987
epoch: 1000
next table: 1374
cur table: 1379
epoch: 1000
next table: 2004
cur table: 1970
epoch: 1000
next table: 1363
cur table: 1374
epoch: 1000
next table: 2059
cur table: 2004
epoch: 1000
next table: 1380
cur table: 1363
epoch: 1000
next table: 1945
cur table: 2059
epoch: 1000
next table: 1353
cur table: 1380
epoch: 1000
next table: 1987
cur table: 1945
epoch: 1000
next table: 1366
cur table: 1353
epoch: 1000
next table: 1989
cur table: 1987
epoch: 1000
next table: 2049
cur table: 1989
epoch: 1000
next table: 1370
cur table: 1366
epoch: 1000
next table: 2035
cur table: 2049
epoch: 1000
next table: 1364
cur table: 1370
epoch: 1000
next table: 1993
cur table: 2035
epoch: 1000
next table: 1371
cur table: 1364
epoch: 1000
next table: 1986
cur table: 1993
epoch: 1000
next table: 1379
cur table: 1371
epoch: 1000
next table: 1962
cur table: 1986
epoch: 1000
next table: 1371
cur table: 1379
epoch: 1000
next table: 2025
cur table: 1962
epoch: 1000
next table: 1370
cur table: 1371
epoch: 1000
next table: 2032
cur table: 2025
epoch: 1000
next table: 1359
cur table: 1370
epoch: 1000
next table: 1988
cur table: 2032
epoch: 1000
next table: 1373
cur table: 1359
epoch: 1000
next table: 1990
cur table: 1988
epoch: 1000
next table: 1376
cur table: 1373
epoch: 1000
next table: 1966
cur table: 1990
epoch: 1000
next table: 1358
cur table: 1376
epoch: 1000
next table: 2030
cur table: 1966
epoch: 1000
next table: 2026
cur table: 2030
epoch: 1000
next table: 1370
cur table: 1358
epoch: 1000
next table: 1985
cur table: 2026
epoch: 1000
next table: 1353
cur table: 1370
epoch: 1000
next table: 1986
cur table: 1985
epoch: 1000
next table: 1378
cur table: 1353
epoch: 1000
next table: 1982
cur table: 1986
epoch: 1000
next table: 1377
cur table: 1378
epoch: 1000
next table: 2022
cur table: 1982
epoch: 1000
next table: 1360
cur table: 1377
epoch: 1000
next table: 2050
cur table: 2022
epoch: 1000
next table: 1371
cur table: 1360
epoch: 1000
next table: 1963
cur table: 2050
epoch: 1000
next table: 1371
cur table: 1371
epoch: 1000
next table: 1965
cur table: 1963
epoch: 1000
next table: 1362
cur table: 1371
epoch: 1000
next table: 1979
cur table: 1965
epoch: 1000
next table: 1359
cur table: 1362
epoch: 1000
next table: 2046
cur table: 1979
epoch: 1000
next table: 1356
cur table: 1359
epoch: 1000
next table: 2045
cur table: 2046
epoch: 1000
next table: 1964
cur table: 2045
epoch: 1000
next table: 1372
cur table: 1356
epoch: 1000
next table: 1999
cur table: 1964
epoch: 1000
next table: 1374
cur table: 1372
epoch: 1000
next table: 1961
cur table: 1999
epoch: 1000
next table: 1371
cur table: 1374
epoch: 1000
next table: 2050
cur table: 1961
epoch: 1000
next table: 1362
cur table: 1371
epoch: 1000
next table: 2020
cur table: 2050
epoch: 1000
next table: 1366
cur table: 1362
epoch: 1000
next table: 1980
cur table: 2020
epoch: 1000
next table: 1365
cur table: 1366
epoch: 1000
next table: 1989
cur table: 1980
epoch: 1000
next table: 1381
cur table: 1365
epoch: 1000
next table: 1985
cur table: 1989
epoch: 1000
next table: 1372
cur table: 1381
epoch: 1000
next table: 2025
cur table: 1985
epoch: 1000
next table: 1378
cur table: 1372
epoch: 1000
next table: 2011
cur table: 2025
epoch: 1000
next table: 1990
cur table: 2011
epoch: 1000
next table: 1376
cur table: 1378
epoch: 1000
next table: 1987
cur table: 1990
epoch: 1000
next table: 1359
cur table: 1376
epoch: 1000
next table: 1983
cur table: 1987
epoch: 1000
next table: 1372
cur table: 1359
epoch: 1000
next table: 2039
cur table: 1983
epoch: 1000
next table: 1370
cur table: 1372
epoch: 1000
next table: 2029
cur table: 2039
epoch: 1000
next table: 1389
cur table: 1370
epoch: 1000
next table: 1963
cur table: 2029
epoch: 1000
next table: 1368
cur table: 1389
epoch: 1000
next table: 1962
cur table: 1963
epoch: 1000
next table: 1359
cur table: 1368
epoch: 1000
next table: 1985
cur table: 1962
epoch: 1000
next table: 1357
cur table: 1359
epoch: 1000
next table: 2057
cur table: 1985
epoch: 1000
next table: 1351
cur table: 1357
epoch: 1000
next table: 2022
cur table: 2057
epoch: 1000
next table: 1969
cur table: 2022
epoch: 1000
next table: 1366
cur table: 1351
epoch: 1000
next table: 1978
cur table: 1969
epoch: 1000
next table: 1363
cur table: 1366
epoch: 1000
next table: 1989
cur table: 1978
epoch: 1000
next table: 1364
cur table: 1363
epoch: 1000
next table: 2042
cur table: 1989
epoch: 1000
next table: 1376
cur table: 1364
epoch: 1000
next table: 2000
cur table: 2042
epoch: 1000
next table: 1365
cur table: 1376
epoch: 1000
next table: 1989
cur table: 2000
epoch: 1000
next table: 1370
cur table: 1365
epoch: 1000
next table: 1988
cur table: 1989
epoch: 1000
next table: 1376
cur table: 1370
epoch: 1000
next table: 1984
cur table: 1988
epoch: 1000
next table: 1365
cur table: 1376
epoch: 1000
next table: 2043
cur table: 1984
epoch: 1000
next table: 1982
cur table: 2043
epoch: 1000
next table: 1388
cur table: 1365
epoch: 1000
next table: 2011
cur table: 1982
epoch: 1000
next table: 1352
cur table: 1388
epoch: 1000
next table: 1972
cur table: 2011
epoch: 1000
next table: 1363
cur table: 1352
epoch: 1000
next table: 1988
cur table: 1972
epoch: 1000
next table: 1371
cur table: 1363
epoch: 1000
next table: 2069
cur table: 1988
epoch: 1000
next table: 1386
cur table: 1371
epoch: 1000
next table: 1966
cur table: 2069
epoch: 1000
next table: 1372
cur table: 1386
epoch: 1000
next table: 1983
cur table: 1966
epoch: 1000
next table: 1374
cur table: 1372
epoch: 1000
next table: 1991
cur table: 1983
epoch: 1000
next table: 1369
cur table: 1374
epoch: 1000
next table: 1992
cur table: 1991
epoch: 1000
next table: 1363
cur table: 1369
epoch: 1000
next table: 2073
cur table: 1992
epoch: 1000
next table: 1361
cur table: 1363
epoch: 1000
next table: 2008
cur table: 2073
epoch: 1000
next table: 1983
cur table: 2008
epoch: 1000
next table: 1376
cur table: 1361
epoch: 1000
next table: 1991
cur table: 1983
epoch: 1000
next table: 1375
cur table: 1376
epoch: 1000
next table: 1983
cur table: 1991
epoch: 1000
next table: 1371
cur table: 1375
epoch: 1000
next table: 2033
cur table: 1983
epoch: 1000
next table: 1375
cur table: 1371
epoch: 1000
next table: 1976
cur table: 2033
epoch: 1000
next table: 1350
cur table: 1375
epoch: 1000
next table: 1996
cur table: 1976
epoch: 1000
next table: 1370
cur table: 1350
epoch: 1000
next table: 1985
cur table: 1996
epoch: 1000
next table: 1367
cur table: 1370
epoch: 1000
next table: 1976
cur table: 1985
epoch: 1000
next table: 1363
cur table: 1367
epoch: 1000
next table: 2059
cur table: 1976
epoch: 1000
next table: 1357
cur table: 1363
epoch: 1000
next table: 1956
cur table: 2059
epoch: 1000
next table: 1992
cur table: 1956
epoch: 1000
next table: 1360
cur table: 1357
epoch: 1000
next table: 1980
cur table: 1992
epoch: 1000
next table: 1369
cur table: 1360
epoch: 1000
next table: 2011
cur table: 1980
epoch: 1000
next table: 1368
cur table: 1369
epoch: 1000
next table: 2082
cur table: 2011
epoch: 1000
next table: 1360
cur table: 1368
epoch: 1000
next table: 1965
cur table: 2082
epoch: 1000
next table: 1376
cur table: 1360
epoch: 1000
next table: 1984
cur table: 1965
epoch: 1000
next table: 1369
cur table: 1376
epoch: 1000
next table: 1964
cur table: 1984
epoch: 1000
next table: 1374
cur table: 1369
epoch: 1000
next table: 1999
cur table: 1964
epoch: 1000
next table: 1353
cur table: 1374
epoch: 1000
next table: 2042
cur table: 1999
epoch: 1000
next table: 1369
cur table: 1353
epoch: 1000
next table: 1994
cur table: 2042
epoch: 1000
next table: 1356
cur table: 1369
epoch: 1000
next table: 1985
cur table: 1994
epoch: 1000
next table: 1980
cur table: 1985
epoch: 1000
next table: 1362
cur table: 1356
epoch: 1000
next table: 2026
cur table: 1980
epoch: 1000
next table: 1379
cur table: 1362
epoch: 1000
next table: 2039
cur table: 2026
epoch: 1000
next table: 1367
cur table: 1379
epoch: 1000
next table: 1933
cur table: 2039
epoch: 1000
next table: 1376
cur table: 1367
epoch: 1000
next table: 1995
cur table: 1933
epoch: 1000
next table: 1360
cur table: 1376
epoch: 1000
next table: 2011
cur table: 1995
epoch: 1000
next table: 1359
cur table: 1360
epoch: 1000
next table: 2019
cur table: 2011
epoch: 1000
next table: 1360
cur table: 1359
epoch: 1000
next table: 2068
cur table: 2019
epoch: 1000
next table: 1367
cur table: 1360
epoch: 1000
next table: 1971
cur table: 2068
epoch: 1000
next table: 1350
cur table: 1367
epoch: 1000
next table: 1984
cur table: 1971
epoch: 1000
next table: 1359
cur table: 1350
epoch: 1000
next table: 1988
cur table: 1984
epoch: 1000
next table: 1999
cur table: 1988
epoch: 1000
next table: 1369
cur table: 1359
epoch: 1000
next table: 2071
cur table: 1999
epoch: 1000
next table: 1378
cur table: 1369
epoch: 1000
next table: 1977
cur table: 2071
epoch: 1000
next table: 1359
cur table: 1378
epoch: 1000
next table: 1972
cur table: 1977
epoch: 1000
next table: 1376
cur table: 1359
epoch: 1000
next table: 1965
cur table: 1972
epoch: 1000
next table: 1375
cur table: 1376
epoch: 1000
next table: 1994
cur table: 1965
epoch: 1000
next table: 1363
cur table: 1375
epoch: 1000
next table: 1992
cur table: 1994
epoch: 1000
next table: 1355
cur table: 1363
epoch: 1000
next table: 1968
cur table: 1992
epoch: 1000
next table: 1374
cur table: 1355
epoch: 1000
next table: 1988
cur table: 1968
epoch: 1000
next table: 1373
cur table: 1374
epoch: 1000
next table: 1998
cur table: 1988
epoch: 1000
next table: 2060
cur table: 1998
epoch: 1000
next table: 1371
cur table: 1373
epoch: 1000
next table: 2021
cur table: 2060
epoch: 1000
next table: 1372
cur table: 1371
epoch: 1000
next table: 1926
cur table: 2021
epoch: 1000
next table: 1369
cur table: 1372
epoch: 1000
next table: 1987
cur table: 1926
epoch: 1000
next table: 1363
cur table: 1369
epoch: 1000
next table: 2013
cur table: 1987
epoch: 1000
next table: 1355
cur table: 1363
epoch: 1000
next table: 2082
cur table: 2013
epoch: 1000
next table: 1370
cur table: 1355
epoch: 1000
next table: 2003
cur table: 2082
epoch: 1000
next table: 1364
cur table: 1370
epoch: 1000
next table: 1959
cur table: 2003
epoch: 1000
next table: 1368
cur table: 1364
epoch: 1000
next table: 1989
cur table: 1959
epoch: 1000
next table: 1391
cur table: 1368
epoch: 1000
next table: 1985
cur table: 1989
epoch: 1000
next table: 2066
cur table: 1985
epoch: 1000
next table: 1365
cur table: 1391
epoch: 1000
next table: 2000
cur table: 2066
epoch: 1000
next table: 1372
cur table: 1365
epoch: 1000
next table: 1970
cur table: 2000
epoch: 1000
next table: 1373
cur table: 1372
epoch: 1000
next table: 2006
cur table: 1970
epoch: 1000
next table: 1361
cur table: 1373
epoch: 1000
next table: 1966
cur table: 2006
epoch: 1000
next table: 1370
cur table: 1361
epoch: 1000
next table: 2048
cur table: 1966
epoch: 1000
next table: 1360
cur table: 1370
epoch: 1000
next table: 1979
cur table: 2048
epoch: 1000
next table: 1361
cur table: 1360
epoch: 1000
next table: 1988
cur table: 1979
epoch: 1000
next table: 1368
cur table: 1361
epoch: 1000
next table: 1990
cur table: 1988
epoch: 1000
next table: 1374
cur table: 1368
epoch: 1000
next table: 1989
cur table: 1990
epoch: 1000
next table: 2065
cur table: 1989
epoch: 1000
next table: 1372
cur table: 1374
epoch: 1000
next table: 2048
cur table: 2065
epoch: 1000
next table: 1367
cur table: 1372
epoch: 1000
next table: 1969
cur table: 2048
epoch: 1000
next table: 1366
cur table: 1367
epoch: 1000
next table: 1952
cur table: 1969
epoch: 1000
next table: 1374
cur table: 1366
epoch: 1000
next table: 1986
cur table: 1952
epoch: 1000
next table: 1361
cur table: 1374
epoch: 1000
next table: 2054
cur table: 1986
epoch: 1000
next table: 1380
cur table: 1361
epoch: 1000
next table: 2017
cur table: 2054
epoch: 1000
next table: 1374
cur table: 1380
epoch: 1000
next table: 1982
cur table: 2017
epoch: 1000
next table: 1365
cur table: 1374
epoch: 1000
next table: 1987
cur table: 1982
epoch: 1000
next table: 1385
cur table: 1365
epoch: 1000
next table: 1954
cur table: 1987
epoch: 1000
next table: 1367
cur table: 1385
epoch: 1000
next table: 2078
cur table: 1954
epoch: 1000
next table: 1999
cur table: 2078
epoch: 1000
next table: 1370
cur table: 1367
epoch: 1000
next table: 1942
cur table: 1999
epoch: 1000
next table: 1383
cur table: 1370
epoch: 1000
next table: 1974
cur table: 1942
epoch: 1000
next table: 1362
cur table: 1383
epoch: 1000
next table: 2012
cur table: 1974
epoch: 1000
next table: 1367
cur table: 1362
epoch: 1000
next table: 2054
cur table: 2012
epoch: 1000
next table: 1371
cur table: 1367
epoch: 1000
next table: 1966
cur table: 2054
epoch: 1000
next table: 1356
cur table: 1371
epoch: 1000
next table: 1987
cur table: 1966
epoch: 1000
next table: 1374
cur table: 1356
epoch: 1000
next table: 1992
cur table: 1987
epoch: 1000
next table: 1376
cur table: 1374
epoch: 1000
next table: 2007
cur table: 1992
epoch: 1000
next table: 2063
cur table: 2007
epoch: 1000
next table: 1376
cur table: 1376
epoch: 1000
next table: 1987
cur table: 2063
Heartbeat CPU 0 instructions: 30000000 cycles: 15198922 heartbeat IPC: 1.97084 cumulative IPC: 1.97382 (Simulation time: 0 hr 23 min 33 sec) 
epoch: 1000
next table: 1372
cur table: 1376
epoch: 1000
next table: 1953
cur table: 1987
epoch: 1000
next table: 1366
cur table: 1372
epoch: 1000
next table: 1969
cur table: 1953
epoch: 1000
next table: 1374
cur table: 1366
epoch: 1000
next table: 2019
cur table: 1969
epoch: 1000
next table: 1362
cur table: 1374
epoch: 1000
next table: 2061
cur table: 2019
epoch: 1000
next table: 1368
cur table: 1362
epoch: 1000
next table: 1991
cur table: 2061
epoch: 1000
next table: 1369
cur table: 1368
epoch: 1000
next table: 1994
cur table: 1991
epoch: 1000
next table: 1367
cur table: 1369
epoch: 1000
next table: 1991
cur table: 1994
epoch: 1000
next table: 1376
cur table: 1367
epoch: 1000
next table: 1997
cur table: 1991
epoch: 1000
next table: 2066
cur table: 1997
epoch: 1000
next table: 1372
cur table: 1376
epoch: 1000
next table: 2006
cur table: 2066
epoch: 1000
next table: 1379
cur table: 1372
epoch: 1000
next table: 1938
cur table: 2006
epoch: 1000
next table: 1372
cur table: 1379
epoch: 1000
next table: 1988
cur table: 1938
epoch: 1000
next table: 1372
cur table: 1372
epoch: 1000
next table: 1990
cur table: 1988
epoch: 1000
next table: 1371
cur table: 1372
epoch: 1000
next table: 2082
cur table: 1990
epoch: 1000
next table: 1378
cur table: 1371
epoch: 1000
next table: 1939
cur table: 2082
epoch: 1000
next table: 1372
cur table: 1378
epoch: 1000
next table: 1990
cur table: 1939
epoch: 1000
next table: 1377
cur table: 1372
epoch: 1000
next table: 2007
cur table: 1990
epoch: 1000
next table: 1368
cur table: 1377
epoch: 1000
next table: 2014
cur table: 2007
epoch: 1000
next table: 2034
cur table: 2014
epoch: 1000
next table: 1363
cur table: 1368
epoch: 1000
next table: 1984
cur table: 2034
epoch: 1000
next table: 1372
cur table: 1363
epoch: 1000
next table: 1981
cur table: 1984
epoch: 1000
next table: 1371
cur table: 1372
epoch: 1000
next table: 1983
cur table: 1981
epoch: 1000
next table: 1385
cur table: 1371
epoch: 1000
next table: 2004
cur table: 1983
epoch: 1000
next table: 1373
cur table: 1385
epoch: 1000
next table: 2060
cur table: 2004
epoch: 1000
next table: 1371
cur table: 1373
epoch: 1000
next table: 1973
cur table: 2060
epoch: 1000
next table: 1384
cur table: 1371
epoch: 1000
next table: 1981
cur table: 1973
epoch: 1000
next table: 1373
cur table: 1384
epoch: 1000
next table: 1962
cur table: 1981
epoch: 1000
next table: 2026
cur table: 1962
epoch: 1000
next table: 1369
cur table: 1373
epoch: 1000
next table: 2025
cur table: 2026
epoch: 1000
next table: 1358
cur table: 1369
epoch: 1000
next table: 1970
cur table: 2025
epoch: 1000
next table: 1368
cur table: 1358
epoch: 1000
next table: 1964
cur table: 1970
epoch: 1000
next table: 1356
cur table: 1368
epoch: 1000
next table: 2008
cur table: 1964
epoch: 1000
next table: 1368
cur table: 1356
epoch: 1000
next table: 2037
cur table: 2008
epoch: 1000
next table: 1368
cur table: 1368
epoch: 1000
next table: 2024
cur table: 2037
epoch: 1000
next table: 1369
cur table: 1368
epoch: 1000
next table: 1986
cur table: 2024
epoch: 1000
next table: 1366
cur table: 1369
epoch: 1000
next table: 1963
cur table: 1986
epoch: 1000
next table: 1371
cur table: 1366
epoch: 1000
next table: 1991
cur table: 1963
epoch: 1000
next table: 2026
cur table: 1991
epoch: 1000
next table: 1376
cur table: 1371
epoch: 1000
next table: 2008
cur table: 2026
epoch: 1000
next table: 1375
cur table: 1376
epoch: 1000
next table: 1988
cur table: 2008
epoch: 1000
next table: 1368
cur table: 1375
epoch: 1000
next table: 1975
cur table: 1988
epoch: 1000
next table: 1358
cur table: 1368
epoch: 1000
next table: 1994
cur table: 1975
epoch: 1000
next table: 1381
cur table: 1358
epoch: 1000
next table: 2051
cur table: 1994
epoch: 1000
next table: 1362
cur table: 1381
epoch: 1000
next table: 2028
cur table: 2051
epoch: 1000
next table: 1372
cur table: 1362
epoch: 1000
next table: 1988
cur table: 2028
epoch: 1000
next table: 1381
cur table: 1372
epoch: 1000
next table: 1966
cur table: 1988
epoch: 1000
next table: 1357
cur table: 1381
epoch: 1000
next table: 1952
cur table: 1966
epoch: 1000
next table: 2064
cur table: 1952
epoch: 1000
next table: 1367
cur table: 1357
epoch: 1000
next table: 2020
cur table: 2064
epoch: 1000
next table: 1366
cur table: 1367
epoch: 1000
next table: 1941
cur table: 2020
epoch: 1000
next table: 1364
cur table: 1366
epoch: 1000
next table: 2013
cur table: 1941
epoch: 1000
next table: 1359
cur table: 1364
epoch: 1000
next table: 1984
cur table: 2013
epoch: 1000
next table: 1371
cur table: 1359
epoch: 1000
next table: 2064
cur table: 1984
epoch: 1000
next table: 1360
cur table: 1371
epoch: 1000
next table: 2020
cur table: 2064
epoch: 1000
next table: 1374
cur table: 1360
epoch: 1000
next table: 1967
cur table: 2020
epoch: 1000
next table: 1371
cur table: 1374
epoch: 1000
next table: 1938
cur table: 1967
epoch: 1000
next table: 1362
cur table: 1371
epoch: 1000
next table: 1987
cur table: 1938
epoch: 1000
next table: 2079
cur table: 1987
epoch: 1000
next table: 1361
cur table: 1362
epoch: 1000
next table: 2032
cur table: 2079
epoch: 1000
next table: 1365
cur table: 1361
epoch: 1000
next table: 1969
cur table: 2032
epoch: 1000
next table: 1374
cur table: 1365
epoch: 1000
next table: 1959
cur table: 1969
epoch: 1000
next table: 1371
cur table: 1374
epoch: 1000
next table: 1976
cur table: 1959
epoch: 1000
next table: 1360
cur table: 1371
epoch: 1000
next table: 2063
cur table: 1976
epoch: 1000
next table: 1377
cur table: 1360
epoch: 1000
next table: 1974
cur table: 2063
epoch: 1000
next table: 1351
cur table: 1377
epoch: 1000
next table: 1987
cur table: 1974
epoch: 1000
next table: 1361
cur table: 1351
epoch: 1000
next table: 1994
cur table: 1987
epoch: 1000
next table: 1365
cur table: 1361
epoch: 1000
next table: 1988
cur table: 1994
epoch: 1000
next table: 1372
cur table: 1365
epoch: 1000
next table: 2061
cur table: 1988
epoch: 1000
next table: 2027
cur table: 2061
epoch: 1000
next table: 1377
cur table: 1372
epoch: 1000
next table: 1927
cur table: 2027
epoch: 1000
next table: 1380
cur table: 1377
epoch: 1000
next table: 1989
cur table: 1927
epoch: 1000
next table: 1376
cur table: 1380
epoch: 1000
next table: 2003
cur table: 1989
epoch: 1000
next table: 1367
cur table: 1376
epoch: 1000
next table: 2076
cur table: 2003
epoch: 1000
next table: 1364
cur table: 1367
epoch: 1000
next table: 1995
cur table: 2076
epoch: 1000
next table: 1381
cur table: 1364
epoch: 1000
next table: 1957
cur table: 1995
epoch: 1000
next table: 1369
cur table: 1381
epoch: 1000
next table: 1982
cur table: 1957
epoch: 1000
next table: 1361
cur table: 1369
epoch: 1000
next table: 1992
cur table: 1982
epoch: 1000
next table: 2075
cur table: 1992
epoch: 1000
next table: 1372
cur table: 1361
epoch: 1000
next table: 1985
cur table: 2075
epoch: 1000
next table: 1350
cur table: 1372
epoch: 1000
next table: 1989
cur table: 1985
epoch: 1000
next table: 1354
cur table: 1350
epoch: 1000
next table: 1987
cur table: 1989
epoch: 1000
next table: 1357
cur table: 1354
epoch: 1000
next table: 1983
cur table: 1987
epoch: 1000
next table: 1363
cur table: 1357
epoch: 1000
next table: 2065
cur table: 1983
epoch: 1000
next table: 1373
cur table: 1363
epoch: 1000
next table: 1999
cur table: 2065
epoch: 1000
next table: 1373
cur table: 1373
epoch: 1000
next table: 1972
cur table: 1999
epoch: 1000
next table: 1376
cur table: 1373
epoch: 1000
next table: 1987
cur table: 1972
epoch: 1000
next table: 1372
cur table: 1376
epoch: 1000
next table: 1987
cur table: 1987
epoch: 1000
next table: 1380
cur table: 1372
epoch: 1000
next table: 2057
cur table: 1987
epoch: 1000
next table: 1361
cur table: 1380
epoch: 1000
next table: 1999
cur table: 2057
epoch: 1000
next table: 1984
cur table: 1999
epoch: 1000
next table: 1364
cur table: 1361
epoch: 1000
next table: 1964
cur table: 1984
epoch: 1000
next table: 1363
cur table: 1364
epoch: 1000
next table: 1987
cur table: 1964
epoch: 1000
next table: 1376
cur table: 1363
epoch: 1000
next table: 2067
cur table: 1987
epoch: 1000
next table: 1362
cur table: 1376
epoch: 1000
next table: 2001
cur table: 2067
epoch: 1000
next table: 1354
cur table: 1362
epoch: 1000
next table: 1987
cur table: 2001
epoch: 1000
next table: 1372
cur table: 1354
epoch: 1000
next table: 1984
cur table: 1987
epoch: 1000
next table: 1373
cur table: 1372
epoch: 1000
next table: 1969
cur table: 1984
epoch: 1000
next table: 1369
cur table: 1373
epoch: 1000
next table: 2057
cur table: 1969
epoch: 1000
next table: 1369
cur table: 1369
epoch: 1000
next table: 1990
cur table: 2057
epoch: 1000
next table: 1991
cur table: 1990
epoch: 1000
next table: 1365
cur table: 1369
epoch: 1000
next table: 1980
cur table: 1991
epoch: 1000
next table: 1376
cur table: 1365
epoch: 1000
next table: 1986
cur table: 1980
epoch: 1000
next table: 1372
cur table: 1376
epoch: 1000
next table: 2070
cur table: 1986
epoch: 1000
next table: 1374
cur table: 1372
epoch: 1000
next table: 1992
cur table: 2070
epoch: 1000
next table: 1364
cur table: 1374
epoch: 1000
next table: 1967
cur table: 1992
epoch: 1000
next table: 1361
cur table: 1364
epoch: 1000
next table: 1984
cur table: 1967
epoch: 1000
next table: 1381
cur table: 1361
epoch: 1000
next table: 1986
cur table: 1984
epoch: 1000
next table: 1370
cur table: 1381
epoch: 1000
next table: 2080
cur table: 1986
epoch: 1000
next table: 1983
cur table: 2080
epoch: 1000
next table: 1371
cur table: 1370
epoch: 1000
next table: 1935
cur table: 1983
epoch: 1000
next table: 1369
cur table: 1371
epoch: 1000
next table: 1980
cur table: 1935
epoch: 1000
next table: 1370
cur table: 1369
epoch: 1000
next table: 2039
cur table: 1980
epoch: 1000
next table: 1355
cur table: 1370
epoch: 1000
next table: 2052
cur table: 2039
epoch: 1000
next table: 1358
cur table: 1355
epoch: 1000
next table: 1985
cur table: 2052
epoch: 1000
next table: 1375
cur table: 1358
epoch: 1000
next table: 1973
cur table: 1985
epoch: 1000
next table: 1372
cur table: 1375
epoch: 1000
next table: 1982
cur table: 1973
epoch: 1000
next table: 1377
cur table: 1372
epoch: 1000
next table: 2004
cur table: 1982
epoch: 1000
next table: 1368
cur table: 1377
epoch: 1000
next table: 2056
cur table: 2004
epoch: 1000
next table: 1984
cur table: 2056
epoch: 1000
next table: 1355
cur table: 1368
epoch: 1000
next table: 1986
cur table: 1984
epoch: 1000
next table: 1367
cur table: 1355
epoch: 1000
next table: 1962
cur table: 1986
epoch: 1000
next table: 1363
cur table: 1367
epoch: 1000
next table: 2001
cur table: 1962
epoch: 1000
next table: 1368
cur table: 1363
epoch: 1000
next table: 2081
cur table: 2001
epoch: 1000
next table: 1348
cur table: 1368
epoch: 1000
next table: 1935
cur table: 2081
epoch: 1000
next table: 1371
cur table: 1348
epoch: 1000
next table: 1989
cur table: 1935
epoch: 1000
next table: 1365
cur table: 1371
epoch: 1000
next table: 2006
cur table: 1989
epoch: 1000
next table: 1362
cur table: 1365
epoch: 1000
next table: 2020
cur table: 2006
epoch: 1000
next table: 1366
cur table: 1362
epoch: 1000
next table: 2022
cur table: 2020
epoch: 1000
next table: 1354
cur table: 1366
epoch: 1000
next table: 1984
cur table: 2022
epoch: 1000
next table: 1964
cur table: 1984
epoch: 1000
next table: 1372
cur table: 1354
epoch: 1000
next table: 1989
cur table: 1964
epoch: 1000
next table: 1368
cur table: 1372
epoch: 1000
next table: 2025
cur table: 1989
epoch: 1000
next table: 1365
cur table: 1368
epoch: 1000
next table: 2034
cur table: 2025
epoch: 1000
next table: 1376
cur table: 1365
epoch: 1000
next table: 1987
cur table: 2034
epoch: 1000
next table: 1374
cur table: 1376
epoch: 1000
next table: 1985
cur table: 1987
epoch: 1000
next table: 1374
cur table: 1374
epoch: 1000
next table: 1984
cur table: 1985
epoch: 1000
next table: 1366
cur table: 1374
epoch: 1000
next table: 2007
cur table: 1984
epoch: 1000
next table: 1361
cur table: 1366
epoch: 1000
next table: 2005
cur table: 2007
epoch: 1000
next table: 1364
cur table: 1361
epoch: 1000
next table: 1984
cur table: 2005
epoch: 1000
next table: 1992
cur table: 1984
epoch: 1000
next table: 1350
cur table: 1364
epoch: 1000
next table: 1988
cur table: 1992
epoch: 1000
next table: 1356
cur table: 1350
epoch: 1000
next table: 2051
cur table: 1988
epoch: 1000
next table: 1376
cur table: 1356
epoch: 1000
next table: 2037
cur table: 2051
epoch: 1000
next table: 1377
cur table: 1376
epoch: 1000
next table: 1985
cur table: 2037
epoch: 1000
next table: 1374
cur table: 1377
epoch: 1000
next table: 1960
cur table: 1985
epoch: 1000
next table: 1372
cur table: 1374
epoch: 1000
next table: 1972
cur table: 1960
epoch: 1000
next table: 1368
cur table: 1372
epoch: 1000
next table: 2052
cur table: 1972
epoch: 1000
next table: 1366
cur table: 1368
epoch: 1000
next table: 2028
cur table: 2052
epoch: 1000
next table: 1372
cur table: 1366
epoch: 1000
next table: 1983
cur table: 2028
epoch: 1000
next table: 1971
cur table: 1983
epoch: 1000
next table: 1365
cur table: 1372
epoch: 1000
next table: 1945
cur table: 1971
epoch: 1000
next table: 1375
cur table: 1365
epoch: 1000
next table: 2078
cur table: 1945
epoch: 1000
next table: 1361
cur table: 1375
epoch: 1000
next table: 1982
cur table: 2078
epoch: 1000
next table: 1360
cur table: 1361
epoch: 1000
next table: 1987
cur table: 1982
epoch: 1000
next table: 1366
cur table: 1360
epoch: 1000
next table: 1988
cur table: 1987
epoch: 1000
next table: 1376
cur table: 1366
epoch: 1000
next table: 1972
cur table: 1988
epoch: 1000
next table: 1377
cur table: 1376
epoch: 1000
next table: 2062
cur table: 1972
epoch: 1000
next table: 1376
cur table: 1377
epoch: 1000
next table: 1962
cur table: 2062
epoch: 1000
next table: 1367
cur table: 1376
epoch: 1000
next table: 1965
cur table: 1962
epoch: 1000
next table: 1988
cur table: 1965
epoch: 1000
next table: 1367
cur table: 1367
epoch: 1000
next table: 2024
cur table: 1988
epoch: 1000
next table: 1362
cur table: 1367
epoch: 1000
next table: 2080
cur table: 2024
epoch: 1000
next table: 1357
cur table: 1362
epoch: 1000
next table: 1994
cur table: 2080
epoch: 1000
next table: 1371
cur table: 1357
epoch: 1000
next table: 1991
cur table: 1994
epoch: 1000
next table: 1386
cur table: 1371
epoch: 1000
next table: 1961
cur table: 1991
epoch: 1000
next table: 1375
cur table: 1386
epoch: 1000
next table: 1986
cur table: 1961
epoch: 1000
next table: 1371
cur table: 1375
epoch: 1000
next table: 2068
cur table: 1986
epoch: 1000
next table: 1374
cur table: 1371
epoch: 1000
next table: 2015
cur table: 2068
epoch: 1000
next table: 1370
cur table: 1374
epoch: 1000
next table: 1972
cur table: 2015
epoch: 1000
next table: 1960
cur table: 1972
epoch: 1000
next table: 1364
cur table: 1370
epoch: 1000
next table: 1982
cur table: 1960
epoch: 1000
next table: 1368
cur table: 1364
epoch: 1000
next table: 2083
cur table: 1982
epoch: 1000
next table: 1380
cur table: 1368
epoch: 1000
next table: 1977
cur table: 2083
epoch: 1000
next table: 1361
cur table: 1380
epoch: 1000
next table: 1968
cur table: 1977
epoch: 1000
next table: 1370
cur table: 1361
epoch: 1000
next table: 1980
cur table: 1968
epoch: 1000
next table: 1367
cur table: 1370
epoch: 1000
next table: 1993
cur table: 1980
epoch: 1000
next table: 1370
cur table: 1367
epoch: 1000
next table: 2073
cur table: 1993
epoch: 1000
next table: 1362
cur table: 1370
epoch: 1000
next table: 1985
cur table: 2073
epoch: 1000
next table: 1905
cur table: 1985
epoch: 1000
next table: 1372
cur table: 1362
epoch: 1000
next table: 2011
cur table: 1905
epoch: 1000
next table: 1356
cur table: 1372
epoch: 1000
next table: 2040
cur table: 2011
epoch: 1000
next table: 1367
cur table: 1356
epoch: 1000
next table: 2071
cur table: 2040
epoch: 1000
next table: 1374
cur table: 1367
epoch: 1000
next table: 1963
cur table: 2071
epoch: 1000
next table: 1364
cur table: 1374
epoch: 1000
next table: 1958
cur table: 1963
epoch: 1000
next table: 1365
cur table: 1364
epoch: 1000
next table: 1990
cur table: 1958
epoch: 1000
next table: 1362
cur table: 1365
epoch: 1000
next table: 2024
cur table: 1990
epoch: 1000
next table: 1366
cur table: 1362
epoch: 1000
next table: 2063
cur table: 2024
epoch: 1000
next table: 1365
cur table: 1366
epoch: 1000
next table: 1974
cur table: 2063
epoch: 1000
next table: 1368
cur table: 1365
epoch: 1000
next table: 1974
cur table: 1974
epoch: 1000
next table: 1968
cur table: 1974
epoch: 1000
next table: 1361
cur table: 1368
epoch: 1000
next table: 2022
cur table: 1968
epoch: 1000
next table: 1360
cur table: 1361
epoch: 1000
next table: 2039
cur table: 2022
epoch: 1000
next table: 1366
cur table: 1360
epoch: 1000
next table: 1988
cur table: 2039
epoch: 1000
next table: 1360
cur table: 1366
epoch: 1000
next table: 1989
cur table: 1988
epoch: 1000
next table: 1372
cur table: 1360
epoch: 1000
next table: 1990
cur table: 1989
epoch: 1000
next table: 1374
cur table: 1372
epoch: 1000
next table: 1998
cur table: 1990
epoch: 1000
next table: 1383
cur table: 1374
epoch: 1000
next table: 2087
cur table: 1998
epoch: 1000
next table: 1370
cur table: 1383
epoch: 1000
next table: 1983
cur table: 2087
epoch: 1000
next table: 1366
cur table: 1370
epoch: 1000
next table: 1939
cur table: 1983
epoch: 1000
next table: 1963
cur table: 1939
epoch: 1000
next table: 1368
cur table: 1366
epoch: 1000
next table: 2024
cur table: 1963
epoch: 1000
next table: 1361
cur table: 1368
epoch: 1000
next table: 2057
cur table: 2024
epoch: 1000
next table: 1361
cur table: 1361
epoch: 1000
next table: 2007
cur table: 2057
epoch: 1000
next table: 1374
cur table: 1361
epoch: 1000
next table: 1970
cur table: 2007
epoch: 1000
next table: 1355
cur table: 1374
epoch: 1000
next table: 1989
cur table: 1970
epoch: 1000
next table: 1384
cur table: 1355
epoch: 1000
next table: 2007
cur table: 1989
epoch: 1000
next table: 1352
cur table: 1384
epoch: 1000
next table: 2046
cur table: 2007
epoch: 1000
next table: 1362
cur table: 1352
epoch: 1000
next table: 1983
cur table: 2046
epoch: 1000
next table: 1377
cur table: 1362
epoch: 1000
next table: 1965
cur table: 1983
epoch: 1000
next table: 1368
cur table: 1377
epoch: 1000
next table: 1985
cur table: 1965
epoch: 1000
next table: 2025
cur table: 1985
epoch: 1000
next table: 1362
cur table: 1368
epoch: 1000
next table: 2009
cur table: 2025
epoch: 1000
next table: 1376
cur table: 1362
epoch: 1000
next table: 1958
cur table: 2009
epoch: 1000
next table: 1364
cur table: 1376
epoch: 1000
next table: 1985
cur table: 1958
epoch: 1000
next table: 1362
cur table: 1364
epoch: 1000
next table: 1993
cur table: 1985
epoch: 1000
next table: 1362
cur table: 1362
epoch: 1000
next table: 2053
cur table: 1993
epoch: 1000
next table: 1365
cur table: 1362
epoch: 1000
next table: 2034
cur table: 2053
epoch: 1000
next table: 1368
cur table: 1365
epoch: 1000
next table: 1964
cur table: 2034
epoch: 1000
next table: 1370
cur table: 1368
epoch: 1000
next table: 1936
cur table: 1964
epoch: 1000
next table: 1363
cur table: 1370
epoch: 1000
next table: 1987
cur table: 1936
epoch: 1000
next table: 2076
cur table: 1987
epoch: 1000
next table: 1367
cur table: 1363
epoch: 1000
next table: 2004
cur table: 2076
epoch: 1000
next table: 1361
cur table: 1367
epoch: 1000
next table: 1969
cur table: 2004
epoch: 1000
next table: 1366
cur table: 1361
epoch: 1000
next table: 1985
cur table: 1969
epoch: 1000
next table: 1368
cur table: 1366
epoch: 1000
next table: 1982
cur table: 1985
epoch: 1000
next table: 1372
cur table: 1368
epoch: 1000
next table: 2058
cur table: 1982
Heartbeat CPU 0 instructions: 40000002 cycles: 20263304 heartbeat IPC: 1.97457 cumulative IPC: 1.97401 (Simulation time: 0 hr 32 min 6 sec) 
epoch: 1000
next table: 1369
cur table: 1372
epoch: 1000
next table: 2012
cur table: 2058
epoch: 1000
next table: 1376
cur table: 1369
epoch: 1000
next table: 1955
cur table: 2012
epoch: 1000
next table: 1360
cur table: 1376
epoch: 1000
next table: 1989
cur table: 1955
epoch: 1000
next table: 1381
cur table: 1360
epoch: 1000
next table: 1973
cur table: 1989
epoch: 1000
next table: 2078
cur table: 1973
epoch: 1000
next table: 1375
cur table: 1381
epoch: 1000
next table: 2025
cur table: 2078
epoch: 1000
next table: 1374
cur table: 1375
epoch: 1000
next table: 1926
cur table: 2025
epoch: 1000
next table: 1377
cur table: 1374
epoch: 1000
next table: 1993
cur table: 1926
epoch: 1000
next table: 1365
cur table: 1377
epoch: 1000
next table: 2013
cur table: 1993
epoch: 1000
next table: 1365
cur table: 1365
epoch: 1000
next table: 2061
cur table: 2013
epoch: 1000
next table: 1363
cur table: 1365
epoch: 1000
next table: 1974
cur table: 2061
epoch: 1000
next table: 1368
cur table: 1363
epoch: 1000
next table: 1988
cur table: 1974
epoch: 1000
next table: 1361
cur table: 1368
epoch: 1000
next table: 1984
cur table: 1988
epoch: 1000
next table: 1370
cur table: 1361
epoch: 1000
next table: 1983
cur table: 1984
epoch: 1000
next table: 2087
cur table: 1983
epoch: 1000
next table: 1364
cur table: 1370
epoch: 1000
next table: 1985
cur table: 2087
epoch: 1000
next table: 1362
cur table: 1364
epoch: 1000
next table: 1978
cur table: 1985
epoch: 1000
next table: 1359
cur table: 1362
epoch: 1000
next table: 1973
cur table: 1978
epoch: 1000
next table: 1370
cur table: 1359
epoch: 1000
next table: 1988
cur table: 1973
epoch: 1000
next table: 1374
cur table: 1370
epoch: 1000
next table: 2075
cur table: 1988
epoch: 1000
next table: 1367
cur table: 1374
epoch: 1000
next table: 1983
cur table: 2075
epoch: 1000
next table: 1367
cur table: 1367
epoch: 1000
next table: 1953
cur table: 1983
epoch: 1000
next table: 1358
cur table: 1367
epoch: 1000
next table: 1992
cur table: 1953
epoch: 1000
next table: 1352
cur table: 1358
epoch: 1000
next table: 1998
cur table: 1992
epoch: 1000
next table: 1357
cur table: 1352
epoch: 1000
next table: 2076
cur table: 1998
epoch: 1000
next table: 1998
cur table: 2076
epoch: 1000
next table: 1370
cur table: 1357
epoch: 1000
next table: 1969
cur table: 1998
epoch: 1000
next table: 1366
cur table: 1370
epoch: 1000
next table: 1964
cur table: 1969
epoch: 1000
next table: 1363
cur table: 1366
epoch: 1000
next table: 1993
cur table: 1964
epoch: 1000
next table: 1361
cur table: 1363
epoch: 1000
next table: 2076
cur table: 1993
epoch: 1000
next table: 1357
cur table: 1361
epoch: 1000
next table: 1982
cur table: 2076
epoch: 1000
next table: 1359
cur table: 1357
epoch: 1000
next table: 1977
cur table: 1982
epoch: 1000
next table: 1371
cur table: 1359
epoch: 1000
next table: 1990
cur table: 1977
epoch: 1000
next table: 1353
cur table: 1371
epoch: 1000
next table: 1992
cur table: 1990
epoch: 1000
next table: 1369
cur table: 1353
epoch: 1000
next table: 2054
cur table: 1992
epoch: 1000
next table: 1360
cur table: 1369
epoch: 1000
next table: 1966
cur table: 2054
epoch: 1000
next table: 1366
cur table: 1360
epoch: 1000
next table: 1986
cur table: 1966
epoch: 1000
next table: 1984
[...]
epoch: 1000
next table: 1373
cur table: 1366
epoch: 1000
next table: 2063
cur table: 2030
epoch: 1000
next table: 1374
cur table: 1373
epoch: 1000
next table: 1984
cur table: 2063
epoch: 1000
next table: 1360
cur table: 1374
epoch: 1000
next table: 1967
cur table: 1984
epoch: 1000
next table: 1382
cur table: 1360
epoch: 1000
next table: 2016
cur table: 1967
epoch: 1000
next table: 2014
cur table: 2016
epoch: 1000
next table: 1379
cur table: 1382
epoch: 1000
next table: 2059
cur table: 2014
epoch: 1000
next table: 1362
cur table: 1379
epoch: 1000
next table: 1985
cur table: 2059
epoch: 1000
next table: 1365
cur table: 1362
epoch: 1000
next table: 1991
cur table: 1985
epoch: 1000
next table: 1377
cur table: 1365
epoch: 1000
next table: 1985
cur table: 1991
epoch: 1000
next table: 1380
cur table: 1377
epoch: 1000
next table: 1992
cur table: 1985
epoch: 1000
next table: 1381
cur table: 1380
epoch: 1000
next table: 2047
cur table: 1992
epoch: 1000
next table: 1374
cur table: 1381
epoch: 1000
next table: 1969
cur table: 2047
epoch: 1000
next table: 1368
cur table: 1374
epoch: 1000
next table: 1953
cur table: 1969
epoch: 1000
next table: 1366
cur table: 1368
epoch: 1000
next table: 1992
cur table: 1953
epoch: 1000
next table: 2036
cur table: 1992
epoch: 1000
next table: 1368
cur table: 1366
epoch: 1000
next table: 2022
cur table: 2036
epoch: 1000
next table: 1372
cur table: 1368
epoch: 1000
next table: 1958
cur table: 2022
epoch: 1000
next table: 1369
cur table: 1372
epoch: 1000
next table: 2110
cur table: 1958
epoch: 1000
next table: 1372
cur table: 1369
epoch: 1000
next table: 2054
cur table: 2110
epoch: 1000
next table: 1367
cur table: 1372
epoch: 1000
next table: 2043
cur table: 2054
epoch: 1000
next table: 1378
cur table: 1367
epoch: 1000
next table: 2028
cur table: 2043
epoch: 1000
next table: 1384
cur table: 1378
epoch: 1000
next table: 1962
cur table: 2028
epoch: 1000
next table: 1369
cur table: 1384
epoch: 1000
next table: 1987
cur table: 1962
epoch: 1000
next table: 1379
cur table: 1369
epoch: 1000
next table: 1957
cur table: 1987
epoch: 1000
next table: 2036
cur table: 1957
epoch: 1000
next table: 1379
cur table: 1379
epoch: 1000
next table: 1985
cur table: 2036
epoch: 1000
next table: 1366
cur table: 1379
epoch: 1000
next table: 1984
cur table: 1985
epoch: 1000
next table: 1365
cur table: 1366
epoch: 1000
next table: 1970
cur table: 1984
epoch: 1000
next table: 1362
cur table: 1365
epoch: 1000
next table: 2026
cur table: 1970
epoch: 1000
next table: 1356
cur table: 1362
epoch: 1000
next table: 2060
cur table: 2026
epoch: 1000
next table: 1377
cur table: 1356
epoch: 1000
next table: 2044
cur table: 2060
epoch: 1000
next table: 1386
cur table: 1377
epoch: 1000
next table: 2023
cur table: 2044
epoch: 1000
next table: 1374
cur table: 1386
epoch: 1000
next table: 1986
cur table: 2023
epoch: 1000
next table: 1376
cur table: 1374
epoch: 1000
next table: 1990
cur table: 1986
epoch: 1000
next table: 2040
cur table: 1990
epoch: 1000
next table: 1362
cur table: 1376
epoch: 1000
next table: 1989
cur table: 2040
epoch: 1000
next table: 1376
cur table: 1362
epoch: 1000
next table: 1962
cur table: 1989
epoch: 1000
next table: 1368
cur table: 1376
epoch: 1000
next table: 1960
cur table: 1962
epoch: 1000
next table: 1371
cur table: 1368
epoch: 1000
next table: 2052
cur table: 1960
epoch: 1000
next table: 1366
cur table: 1371
epoch: 1000
next table: 2009
cur table: 2052
epoch: 1000
next table: 1370
cur table: 1366
epoch: 1000
next table: 1992
cur table: 2009
epoch: 1000
next table: 1376
cur table: 1370
epoch: 1000
next table: 1961
cur table: 1992
Heartbeat CPU 0 instructions: 100000003 cycles: 103812663 heartbeat IPC: 0.636191 cumulative IPC: 0.637039 (Simulation time: 1 hr 29 min 16 sec) 
Finished CPU 0 instructions: 50000001 cycles: 78488136 cumulative IPC: 0.637039 (Simulation time: 1 hr 29 min 16 sec) 

ChampSim completed all CPUs

Region of Interest Statistics

CPU 0 cumulative IPC: 0.637039 instructions: 50000001 cycles: 78488136
ITLB TOTAL     ACCESS:    6441144  HIT:    6441144  MISS:          0  HIT %:        100  MISS %:          0   MPKI: 0
ITLB LOAD TRANSLATION ACCESS:    6441144  HIT:    6441144  MISS:          0  HIT %:        100  MISS %:          0   MPKI: 0
ITLB PREFETCH  REQUESTED:          0  ISSUED:          0  USEFUL:          0  USELESS:          0
ITLB USEFUL LOAD PREFETCHES:          0 PREFETCH ISSUED TO LOWER LEVEL:          0  ACCURACY: -nan
ITLB TIMELY PREFETCHES:          0 LATE PREFETCHES: 0 DROPPED PREFETCHES: 0
ITLB PREFETCHES SAME FILL-ORIGIN LEVEL: 0 DIFFERENT FILL-ORIGIN LEVEL: 0
ITLB AVERAGE MISS LATENCY: -nan cycles
ITLB RQ	ACCESS:    6859483	FORWARD:          0	MERGED:     418339	TO_CACHE:    6441144

Revised Interactions: positive negative neutral
ITLB_interactions 0 0 0 -nan -nan -nan
DTLB TOTAL     ACCESS:   22150765  HIT:   21889669  MISS:     261096  HIT %:    98.8213  MISS %:    1.17872   MPKI: 5.22192
DTLB LOAD TRANSLATION ACCESS:   22150765  HIT:   21889669  MISS:     261096  HIT %:    98.8213  MISS %:    1.17872   MPKI: 5.22192
DTLB PREFETCH  REQUESTED:          0  ISSUED:          0  USEFUL:          0  USELESS:          0
DTLB USEFUL LOAD PREFETCHES:          0 PREFETCH ISSUED TO LOWER LEVEL:          0  ACCURACY: -nan
DTLB TIMELY PREFETCHES:          0 LATE PREFETCHES: 0 DROPPED PREFETCHES: 0
DTLB PREFETCHES SAME FILL-ORIGIN LEVEL: 0 DIFFERENT FILL-ORIGIN LEVEL: 0
DTLB AVERAGE MISS LATENCY: 167.617 cycles
DTLB RQ	ACCESS:   24634400	FORWARD:          0	MERGED:    2472152	TO_CACHE:   22162248

Revised Interactions: positive negative neutral
DTLB_interactions 0 0 0 -nan -nan -nan
STLB TOTAL     ACCESS:     261096  HIT:      91321  MISS:     169775  HIT %:     34.976  MISS %:     65.024   MPKI: 3.3955
STLB LOAD TRANSLATION ACCESS:     261096  HIT:      91321  MISS:     169775  HIT %:     34.976  MISS %:     65.024   MPKI: 3.3955
STLB PREFETCH  REQUESTED:          0  ISSUED:          0  USEFUL:          0  USELESS:          0
STLB USEFUL LOAD PREFETCHES:          0 PREFETCH ISSUED TO LOWER LEVEL:          0  ACCURACY: -nan
STLB TIMELY PREFETCHES:          0 LATE PREFETCHES: 0 DROPPED PREFETCHES: 0
STLB PREFETCHES SAME FILL-ORIGIN LEVEL: 0 DIFFERENT FILL-ORIGIN LEVEL: 0
STLB AVERAGE MISS LATENCY: 226.224 cycles
STLB RQ	ACCESS:     261096	FORWARD:          0	MERGED:          0	TO_CACHE:     261096

Revised Interactions: positive negative neutral
STLB_interactions 0 0 0 -nan -nan -nan
STLB Hit, L1D data hit: 0
STLB Hit, L2C data hit: 0
STLB Hit, LLC data hit: 0
STLB Hit, LLC data miss: 0
STLB STLB hints to L2: 0
L1D TOTAL     ACCESS:   24537994  HIT:   23575993  MISS:     962001  HIT %:    96.0795  MISS %:    3.92045   MPKI: 19.24
L1D LOAD      ACCESS:   21332347  HIT:   20370346  MISS:     962001  HIT %:    95.4904  MISS %:    4.50959   MPKI: 19.24
L1D RFO       ACCESS:    3205647  HIT:    3205647  MISS:          0  HIT %:        100  MISS %:          0   MPKI: 0
L1D PREFETCH  REQUESTED:          0  ISSUED:          0  USEFUL:          0  USELESS:          0
L1D USEFUL LOAD PREFETCHES:          0 PREFETCH ISSUED TO LOWER LEVEL:          0  ACCURACY: -nan
L1D TIMELY PREFETCHES:          0 LATE PREFETCHES: 0 DROPPED PREFETCHES: 0
L1D PREFETCHES SAME FILL-ORIGIN LEVEL: 0 DIFFERENT FILL-ORIGIN LEVEL: 0
L1D AVERAGE MISS LATENCY: 98.1527 cycles
L1D RQ	ACCESS:   31961710	FORWARD:          0	MERGED:   10528036	TO_CACHE:   21428752
L1D WQ	ACCESS:    3205648	FORWARD:       4922	MERGED:          0	TO_CACHE:    3205648

Revised Interactions: positive negative neutral
L1D_interactions 0 0 0 -nan -nan -nan
L1D UNIQUE REGIONS ACCESSED: 0
L1D REGIONS CONFLICTS: 0
L1D Cross Page Prefetch Requests: 0
L1D Same Page Prefetch Requests: 0
L1D ROI Sum of L1D PQ occupancy: 0
L1D PREFETCHES PUSHED FROM L2C: 0
L1I TOTAL     ACCESS:    6859481  HIT:    6859481  MISS:          0  HIT %:        100  MISS %:          0   MPKI: 0
L1I LOAD      ACCESS:    6859481  HIT:    6859481  MISS:          0  HIT %:        100  MISS %:          0   MPKI: 0
L1I PREFETCH  REQUESTED:          0  ISSUED:          0  USEFUL:          0  USELESS:          0
L1I USEFUL LOAD PREFETCHES:          0 PREFETCH ISSUED TO LOWER LEVEL:          0  ACCURACY: -nan
L1I TIMELY PREFETCHES:          0 LATE PREFETCHES: 0 DROPPED PREFETCHES: 0
L1I PREFETCHES SAME FILL-ORIGIN LEVEL: 0 DIFFERENT FILL-ORIGIN LEVEL: 0
L1I AVERAGE MISS LATENCY: -nan cycles
L1I RQ	ACCESS:   15636510	FORWARD:          0	MERGED:    8777027	TO_CACHE:    6859483

Revised Interactions: positive negative neutral
L1I_interactions 0 0 0 -nan -nan -nan
BTB TOTAL     ACCESS:     560940  HIT:     560935  MISS:          5  HIT %:    99.9991  MISS %: 0.000891361   MPKI: 0.0001
BTB BRANCH_DIRECT_JUMP	ACCESS:      40061  HIT:      40060  MISS:          1
BTB BRANCH_INDIRECT	ACCESS:          0  HIT:          0  MISS:          0
BTB BRANCH_CONDITIONAL	ACCESS:     520879  HIT:     520875  MISS:          4
BTB BRANCH_DIRECT_CALL	ACCESS:          0  HIT:          0  MISS:          0
BTB BRANCH_INDIRECT_CALL	ACCESS:          0  HIT:          0  MISS:          0
BTB BRANCH_RETURN	ACCESS:          0  HIT:          0  MISS:          0
BTB BRANCH_OTHER ACCESS:          0  HIT:          0  MISS:          0

L2C TOTAL     ACCESS:    2391161  HIT:    1253488  MISS:    1137673  HIT %:    52.4217  MISS %:    47.5783   MPKI: 22.7535
L2C LOAD      ACCESS:     962000  HIT:     590457  MISS:     371543  HIT %:    61.3781  MISS %:    38.6219   MPKI: 7.43086
L2C DATA LOAD MPKI: 7.43086
L2C INSTRUCTION LOAD MPKI: 0
L2C PREFETCH  ACCESS:     773599  HIT:      32451  MISS:     741148  HIT %:    4.19481  MISS %:    95.8052   MPKI: 14.823
L2C DATA PREFETCH MPKI: 14.823
L2C INSTRUCTION PREFETCH MPKI: 0
L2C WRITEBACK ACCESS:     485740  HIT:     482341  MISS:       3399  HIT %:    99.3002  MISS %:   0.699757   MPKI: 0.06798
L2C LOAD TRANSLATION ACCESS:     169822  HIT:     148239  MISS:      21583  HIT %:    87.2908  MISS %:    12.7092   MPKI: 0.43166
L2C PREFETCH  REQUESTED:     789229  ISSUED:     789229  USEFUL:     589462  USELESS:     151701
L2C USEFUL LOAD PREFETCHES:     589462 PREFETCH ISSUED TO LOWER LEVEL:     753747  ACCURACY: 78.2042
L2C TIMELY PREFETCHES:     589462 LATE PREFETCHES: 12599 DROPPED PREFETCHES: 0
L2C PREFETCHES SAME FILL-ORIGIN LEVEL: 753747 DIFFERENT FILL-ORIGIN LEVEL: 0
L2C AVERAGE MISS LATENCY: 198.059 cycles
L2C RQ	ACCESS:    1131822	FORWARD:          0	MERGED:          0	TO_CACHE:    1131822
L2C WQ	ACCESS:     485740	FORWARD:          0	MERGED:          0	TO_CACHE:     485740
L2C PQ	ACCESS:     789229	FORWARD:          0	MERGED:          0	TO_CACHE:     789229

Revised Interactions: positive negative neutral
L2C_interactions 587229 155210 47688 74.3208 19.6437 6.03549
L2C Instructions Evicting Data 0
L2C Translations Evicting Data 21488
L2C Data Evicting Data 1091262
L2C Instructions Evicting Instructions 0
L2C Translations Evicting Instructions 0
L2C Data Evicting Instructions 0
L2C Instructions Evicting Translations 0
L2C Translations Evicting Translations 95
L2C Data Evicting Translations 21429
L2C Dense regions hint from L2: 0
PSCL5 TOTAL     ACCESS:     169775  HIT:     169775  MISS:          0  HIT %:        100  MISS %:          0   MPKI: 0
PSCL5 LOAD TRANSLATION ACCESS:     169775  HIT:     169775  MISS:          0  HIT %:        100  MISS %:          0   MPKI: 0
PSCL5 PREFETCH  REQUESTED:          0  ISSUED:          0  USEFUL:          0  USELESS:          0
PSCL5 USEFUL LOAD PREFETCHES:          0 PREFETCH ISSUED TO LOWER LEVEL:          0  ACCURACY: -nan
PSCL5 TIMELY PREFETCHES:          0 LATE PREFETCHES: 0 DROPPED PREFETCHES: 0
PSCL5 PREFETCHES SAME FILL-ORIGIN LEVEL: 0 DIFFERENT FILL-ORIGIN LEVEL: 0

Revised Interactions: positive negative neutral
PSCL5_interactions 0 0 0 -nan -nan -nan
PSCL4 TOTAL     ACCESS:     169775  HIT:     169775  MISS:          0  HIT %:        100  MISS %:          0   MPKI: 0
PSCL4 LOAD TRANSLATION ACCESS:     169775  HIT:     169775  MISS:          0  HIT %:        100  MISS %:          0   MPKI: 0
PSCL4 PREFETCH  REQUESTED:          0  ISSUED:          0  USEFUL:          0  USELESS:          0
PSCL4 USEFUL LOAD PREFETCHES:          0 PREFETCH ISSUED TO LOWER LEVEL:          0  ACCURACY: -nan
PSCL4 TIMELY PREFETCHES:          0 LATE PREFETCHES: 0 DROPPED PREFETCHES: 0
PSCL4 PREFETCHES SAME FILL-ORIGIN LEVEL: 0 DIFFERENT FILL-ORIGIN LEVEL: 0

Revised Interactions: positive negative neutral
PSCL4_interactions 0 0 0 -nan -nan -nan
PSCL3 TOTAL     ACCESS:     169775  HIT:     169775  MISS:          0  HIT %:        100  MISS %:          0   MPKI: 0
PSCL3 LOAD TRANSLATION ACCESS:     169775  HIT:     169775  MISS:          0  HIT %:        100  MISS %:          0   MPKI: 0
PSCL3 PREFETCH  REQUESTED:          0  ISSUED:          0  USEFUL:          0  USELESS:          0
PSCL3 USEFUL LOAD PREFETCHES:          0 PREFETCH ISSUED TO LOWER LEVEL:          0  ACCURACY: -nan
PSCL3 TIMELY PREFETCHES:          0 LATE PREFETCHES: 0 DROPPED PREFETCHES: 0
PSCL3 PREFETCHES SAME FILL-ORIGIN LEVEL: 0 DIFFERENT FILL-ORIGIN LEVEL: 0

Revised Interactions: positive negative neutral
PSCL3_interactions 0 0 0 -nan -nan -nan
PSCL2 TOTAL     ACCESS:     169775  HIT:     169480  MISS:        295  HIT %:    99.8262  MISS %:   0.173759   MPKI: 0.0059
PSCL2 LOAD TRANSLATION ACCESS:     169775  HIT:     169480  MISS:        295  HIT %:    99.8262  MISS %:   0.173759   MPKI: 0.0059
PSCL2 PREFETCH  REQUESTED:          0  ISSUED:          0  USEFUL:          0  USELESS:          0
PSCL2 USEFUL LOAD PREFETCHES:          0 PREFETCH ISSUED TO LOWER LEVEL:          0  ACCURACY: -nan
PSCL2 TIMELY PREFETCHES:          0 LATE PREFETCHES: 0 DROPPED PREFETCHES: 0
PSCL2 PREFETCHES SAME FILL-ORIGIN LEVEL: 0 DIFFERENT FILL-ORIGIN LEVEL: 0

Revised Interactions: positive negative neutral
PSCL2_interactions 0 0 0 -nan -nan -nan
LLC TOTAL     ACCESS:    1619953  HIT:     589049  MISS:    1030904  HIT %:    36.3621  MISS %:    63.6379   MPKI: 20.6181
LLC LOAD      ACCESS:     358944  HIT:      45427  MISS:     313517  HIT %:    12.6557  MISS %:    87.3443   MPKI: 6.27034
LLC PREFETCH  ACCESS:     753747  HIT:      62781  MISS:     690966  HIT %:    8.32919  MISS %:    91.6708   MPKI: 13.8193
LLC WRITEBACK ACCESS:     485679  HIT:     478248  MISS:       7431  HIT %:      98.47  MISS %:    1.53002   MPKI: 0.14862
LLC LOAD TRANSLATION ACCESS:      21583  HIT:       2593  MISS:      18990  HIT %:    12.0141  MISS %:    87.9859   MPKI: 0.3798
LLC PREFETCH  REQUESTED:          0  ISSUED:          0  USEFUL:        863  USELESS:     690214
LLC USEFUL LOAD PREFETCHES:        863 PREFETCH ISSUED TO LOWER LEVEL:     690966  ACCURACY: 0.124898
LLC TIMELY PREFETCHES:        863 LATE PREFETCHES: 0 DROPPED PREFETCHES: 0
LLC PREFETCHES SAME FILL-ORIGIN LEVEL: 0 DIFFERENT FILL-ORIGIN LEVEL: 0
LLC AVERAGE MISS LATENCY: 177.223 cycles
LLC RQ	ACCESS:     380527	FORWARD:          0	MERGED:          0	TO_CACHE:     380527
LLC WQ	ACCESS:     485679	FORWARD:          0	MERGED:          0	TO_CACHE:     485679
LLC PQ	ACCESS:     753747	FORWARD:          0	MERGED:          0	TO_CACHE:     753747

Revised Interactions: positive negative neutral
LLC_interactions 477 689589 209644 0.0530171 76.6457 23.3013
LLC Dense regions hint to LLC: 0

RAW hits: 48632
Loads Generated: 32010344
Loads sent to L1D: 31961710
Stores Generated: 3205648
Stores sent to L1D: 3205648
Major fault: 0 Minor fault: 257109
Allocated PAGES: 257109
[Bingo] PHT Access: 344210
[Bingo] PHT Hit PC+Addr: 4353
[Bingo] PHT Hit PC+Offs: 333335
[Bingo] PHT Miss: 6522
[Bingo] Prefetch PC+Addr: 0
[Bingo] Prefetch PC+Offs: 0
[Bingo] Useful PC+Addr: 0
[Bingo] Useful PC+Offs: 0
[Bingo] Useless PC+Addr: 0
[Bingo] Useless PC+Offs: 0
[Bingo] L1 Prefetch per Region: 0
[Bingo] L2 Prefetch per Region: 3.35605
[Bingo] L3 Prefetch per Region: 0
[Bingo] No Prefetch per Region: 28.644
[Bingo] Number of Voters Mean: 14.0244
[Bingo] Number of Voters SD: 14.7727
PHT read accesses: 5385745
PHT write accesses: 325324
AT read accesses: 627268
AT write accesses: 943114
FT read accesses: 984694
FT write accesses: 344210
PS read accesses: 693165
PS write accesses: 337688
PHT tag read accesses: 15809740
PHT tag write accesses: 329677
AT tag read accesses: 49138860
AT tag write accesses: 952592
FT tag read accesses: 42589480
FT tag write accesses: 1003580
PS tag read accesses: 28756627
PS tag write accesses: 1030565

DRAM Statistics
 CHANNEL 0
 RQ ROW_BUFFER_HIT:     444292  ROW_BUFFER_MISS:     579181
 DBUS_CONGESTED:        204
 WQ ROW_BUFFER_HIT:      23920  ROW_BUFFER_MISS:     461719  FULL:          0

 AVG_CONGESTED_CYCLE: 4
 All warmup complete: 2
Channel 0 Bank busy for read cycles: 0
Channel 0 Bank busy for write cycles: 0
Channel 0
Rank 0
0banks busy for read cycles: 25647474
0banks busy for write cycles: 54399
1banks busy for read cycles: 6547669
1banks busy for write cycles: 4872703
2banks busy for read cycles: 5544796
2banks busy for write cycles: 3497171
3banks busy for read cycles: 5557527
3banks busy for write cycles: 2948782
4banks busy for read cycles: 3688705
4banks busy for write cycles: 2576332
5banks busy for read cycles: 3076014
5banks busy for write cycles: 2531613
6banks busy for read cycles: 2548649
6banks busy for write cycles: 2406147
7banks busy for read cycles: 1732330
7banks busy for write cycles: 1879019
8banks busy for read cycles: 2155079
8banks busy for write cycles: 1223728

CPU 0 Branch Prediction Accuracy: 93.3275% MPKI: 0.80204 Average ROB Occupancy at Mispredict: 343.984
Branch types
NOT_BRANCH: 49398961 98.7979%
BRANCH_DIRECT_JUMP: 40061 0.080122%
BRANCH_INDIRECT: 0 0%
BRANCH_CONDITIONAL: 560940 1.12188%
BRANCH_DIRECT_CALL: 0 0%
BRANCH_INDIRECT_CALL: 0 0%
BRANCH_RETURN: 0 0%
BRANCH_OTHER: 0 0%

@sumon_overall_L1D         0         0         0         0         0         0         0
@Sumon_Early_by_class_L1D         0         0         0         0
@Sumon_Late_by_class_L1D         0         0         0         0

@Sumon_Early_by_cycle_L1D         0         0         0         0         0         0         0         0         0         0         0         0
@Sumon_Late_by_cycle_L1D         0         0         0         0         0         0
@Sumon_Early_stream_L1D         0         0         0         0         0         0         0         0         0         0         0         0
@Sumon_Early_CS_L1D         0         0         0         0         0         0         0         0         0         0         0         0
@Sumon_Early_CPLX_L1D         0         0         0         0         0         0         0         0         0         0         0         0
@Sumon_Late_stream_L1D         0         0         0         0         0         0
@Sumon_Late_CS_L1D         0         0         0         0         0         0
@Sumon_Late_CPLX_L1D         0         0         0         0         0         0
@sumon_overall_L2C    589462     12599         0    151701    741148    789229    789229
@Sumon_Early_by_class_L2C         0         0         0         0
@Sumon_Late_by_class_L2C         0         0         0         0

@Sumon_Early_by_cycle_L2C      6939     17422     63629    103390     93343    117061     12812     27403     60651     79215      2639      4958
@Sumon_Late_by_cycle_L2C       548       588      1136      2660      7655        12
@Sumon_Early_stream_L2C         0         0         0         0         0         0         0         0         0         0         0         0
@Sumon_Early_CS_L2C         0         0         0         0         0         0         0         0         0         0         0         0
@Sumon_Early_CPLX_L2C         0         0         0         0         0         0         0         0         0         0         0         0
@Sumon_Late_stream_L2C         0         0         0         0         0         0
@Sumon_Late_CS_L2C         0         0         0         0         0         0
@Sumon_Late_CPLX_L2C         0         0         0         0         0         0
DRAM PAGES: 1048576
Allocated PAGES: 257109
