
*** ChampSim Multicore Out-of-Order Simulator ***

Warmup Instructions: 50000000
Simulation Instructions: 50000000
Number of CPUs: 1
LLC sets: 2048
LLC ways: 16
Off-chip DRAM Size: 4096 MB Channels: 1 Width: 64-bit Data Rate: 6400 MT/s
CPU 0 runs ../../biswa/SPEC2017Traces/649.fotonik3d_s-8225B.champsimtrace.xz
.xz
CPU 0 Bimodal branch predictor
BTB has LRU replacement policy
ITLB has LRU replacement policy
DTLB has LRU replacement policy
STLB has LRU replacement policy
L1I has LRU replacement policy
L1D has LRU replacement policy
Bingo PHT WAYS: 16 and PHT_SIZE: 16384
Initialize DRRIP state for L2C
Initialize DRRIP state for LLC
epoch: 1000
next table: 2535
cur table: 11788
epoch: 1000
next table: 2503
cur table: 2535
epoch: 1000
next table: 2536
cur table: 2503
epoch: 1000
next table: 2505
cur table: 2536
epoch: 1000
next table: 2535
cur table: 2505
epoch: 1000
next table: 2503
cur table: 2535
epoch: 1000
next table: 2536
cur table: 2503
epoch: 1000
next table: 2503
cur table: 2536
epoch: 1000
next table: 2536
cur table: 2503
epoch: 1000
next table: 2503
cur table: 2536
epoch: 1000
next table: 2537
cur table: 2503
epoch: 1000
next table: 2503
cur table: 2537
epoch: 1000
next table: 2535
cur table: 2503
epoch: 1000
next table: 2503
cur table: 2535
epoch: 1000
next table: 2538
cur table: 2503
epoch: 1000
next table: 2503
cur table: 2538
epoch: 1000
next table: 2535
cur table: 2503
epoch: 1000
next table: 2505
cur table: 2535
epoch: 1000
next table: 2535
cur table: 2505
epoch: 1000
next table: 2504
cur table: 2535
epoch: 1000
next table: 2488
cur table: 2504
epoch: 1000
next table: 2550
cur table: 2488
epoch: 1000
next table: 2534
cur table: 2550
epoch: 1000
next table: 2504
cur table: 2534
epoch: 1000
next table: 2537
cur table: 2504
epoch: 1000
next table: 1049
cur table: 5566
epoch: 1000
next table: 2504
cur table: 2537
epoch: 1000
next table: 1043
cur table: 1049
epoch: 1000
next table: 2536
cur table: 2504
epoch: 1000
next table: 1036
cur table: 1043
epoch: 1000
next table: 2503
cur table: 2536
epoch: 1000
next table: 1034
cur table: 1036
epoch: 1000
next table: 2488
cur table: 2503
epoch: 1000
next table: 1036
cur table: 1034
epoch: 1000
next table: 2549
cur table: 2488
epoch: 1000
next table: 1044
cur table: 1036
epoch: 1000
next table: 2537
cur table: 2549
epoch: 1000
next table: 1037
cur table: 1044
epoch: 1000
next table: 2502
cur table: 2537
epoch: 1000
next table: 1037
cur table: 1037
epoch: 1000
next table: 2537
cur table: 2502
epoch: 1000
next table: 1033
cur table: 1037
epoch: 1000
next table: 2505
cur table: 2537
epoch: 1000
next table: 1038
cur table: 1033
epoch: 1000
next table: 2535
cur table: 2505
epoch: 1000
next table: 1035
cur table: 1038
epoch: 1000
next table: 2503
cur table: 2535
epoch: 1000
next table: 1034
cur table: 1035
epoch: 1000
next table: 2489
cur table: 2503
epoch: 1000
next table: 1033
cur table: 1034
epoch: 1000
next table: 2549
cur table: 2489
epoch: 1000
next table: 1037
cur table: 1033
epoch: 1000
next table: 2536
cur table: 2549
epoch: 1000
next table: 1033
cur table: 1037
epoch: 1000
next table: 2503
cur table: 2536
epoch: 1000
next table: 1034
cur table: 1033
epoch: 1000
next table: 2538
cur table: 2503
epoch: 1000
next table: 1033
cur table: 1034
epoch: 1000
next table: 2504
cur table: 2538
epoch: 1000
next table: 1037
cur table: 1033
epoch: 1000
next table: 2535
cur table: 2504
epoch: 1000
next table: 1033
cur table: 1037
epoch: 1000
next table: 2550
cur table: 2535
epoch: 1000
next table: 1035
cur table: 1033
epoch: 1000
next table: 2486
cur table: 2550
epoch: 1000
next table: 1034
cur table: 1035
epoch: 1000
next table: 2505
cur table: 2486
epoch: 1000
next table: 1041
cur table: 1034
epoch: 1000
next table: 2536
cur table: 2505
epoch: 1000
next table: 1034
cur table: 1041
epoch: 1000
next table: 2504
cur table: 2536
epoch: 1000
next table: 1034
cur table: 1034
epoch: 1000
next table: 2537
cur table: 2504
epoch: 1000
next table: 1033
cur table: 1034
epoch: 1000
next table: 2503
cur table: 2537
epoch: 1000
next table: 1037
cur table: 1033
epoch: 1000
next table: 2537
cur table: 2503
epoch: 1000
next table: 1033
cur table: 1037
epoch: 1000
next table: 2549
cur table: 2537
epoch: 1000
next table: 1034
cur table: 1033
epoch: 1000
next table: 2488
cur table: 2549
epoch: 1000
next table: 1033
cur table: 1034
epoch: 1000
next table: 2504
cur table: 2488
epoch: 1000
next table: 1037
cur table: 1033
epoch: 1000
next table: 2536
cur table: 2504
epoch: 1000
next table: 1035
cur table: 1037
epoch: 1000
next table: 2503
cur table: 2536
epoch: 1000
next table: 1037
cur table: 1035
epoch: 1000
next table: 2538
cur table: 2503
epoch: 1000
next table: 1033
cur table: 1037
epoch: 1000
next table: 2549
cur table: 2538
epoch: 1000
next table: 1038
cur table: 1033
epoch: 1000
next table: 2535
cur table: 2549
epoch: 1000
next table: 1034
cur table: 1038
epoch: 1000
next table: 2504
cur table: 2535
epoch: 1000
next table: 1032
cur table: 1034
epoch: 1000
next table: 2487
cur table: 2504
epoch: 1000
next table: 1033
cur table: 1032
epoch: 1000
next table: 2504
cur table: 2487
epoch: 1000
next table: 1034
cur table: 1033
epoch: 1000
next table: 2537
cur table: 2504
epoch: 1000
next table: 1033
cur table: 1034
epoch: 1000
next table: 2549
cur table: 2537
epoch: 1000
next table: 1036
cur table: 1033
epoch: 1000
next table: 2535
cur table: 2549
epoch: 1000
next table: 1033
cur table: 1036
epoch: 1000
next table: 2504
cur table: 2535
epoch: 1000
next table: 1038
cur table: 1033
epoch: 1000
next table: 2535
cur table: 2504
epoch: 1000
next table: 1033
cur table: 1038
epoch: 1000
next table: 2506
cur table: 2535
epoch: 1000
next table: 1035
cur table: 1033
epoch: 1000
next table: 2487
cur table: 2506
epoch: 1000
next table: 1034
cur table: 1035
epoch: 1000
next table: 2503
cur table: 2487
epoch: 1000
next table: 1039
cur table: 1034
epoch: 1000
next table: 2536
cur table: 2503
epoch: 1000
next table: 1033
cur table: 1039
epoch: 1000
next table: 2550
cur table: 2536
epoch: 1000
next table: 1035
cur table: 1033
epoch: 1000
next table: 2536
cur table: 2550
epoch: 1000
next table: 1033
cur table: 1035
epoch: 1000
next table: 2504
cur table: 2536
epoch: 1000
next table: 1040
cur table: 1033
epoch: 1000
next table: 2535
cur table: 2504
epoch: 1000
next table: 1035
cur table: 1040
epoch: 1000
next table: 2505
cur table: 2535
epoch: 1000
next table: 1035
cur table: 1035
epoch: 1000
next table: 2487
cur table: 2505
epoch: 1000
next table: 1035
cur table: 1035
epoch: 1000
next table: 2503
cur table: 2487
epoch: 1000
next table: 1042
cur table: 1035
epoch: 1000
next table: 2537
cur table: 2503
epoch: 1000
next table: 1033
cur table: 1042
epoch: 1000
next table: 2549
cur table: 2537
epoch: 1000
next table: 1035
cur table: 1033
Heartbeat CPU 0 instructions: 10000001 cycles: 2911129 heartbeat IPC: 3.43509 cumulative IPC: 3.43509 (Simulation time: 0 hr 4 min 51 sec) 
epoch: 1000
next table: 2536
cur table: 2549
epoch: 1000
next table: 1034
cur table: 1035
epoch: 1000
next table: 2504
cur table: 2536
epoch: 1000
next table: 1041
cur table: 1034
epoch: 1000
next table: 2535
cur table: 2504
epoch: 1000
next table: 1033
cur table: 1041
epoch: 1000
next table: 2504
cur table: 2535
epoch: 1000
next table: 1034
cur table: 1033
epoch: 1000
next table: 2491
cur table: 2504
epoch: 1000
next table: 1033
cur table: 1034
epoch: 1000
next table: 2501
cur table: 2491
epoch: 1000
next table: 1038
cur table: 1033
epoch: 1000
next table: 2536
cur table: 2501
epoch: 1000
next table: 1033
cur table: 1038
epoch: 1000
next table: 2550
cur table: 2536
epoch: 1000
next table: 1034
cur table: 1033
epoch: 1000
next table: 2536
cur table: 2550
epoch: 1000
next table: 1033
cur table: 1034
epoch: 1000
next table: 2505
cur table: 2536
epoch: 1000
next table: 1039
cur table: 1033
epoch: 1000
next table: 2534
cur table: 2505
epoch: 1000
next table: 1033
cur table: 1039
epoch: 1000
next table: 2505
cur table: 2534
epoch: 1000
next table: 1034
cur table: 1033
epoch: 1000
next table: 2487
cur table: 2505
epoch: 1000
next table: 1032
cur table: 1034
epoch: 1000
next table: 2504
cur table: 2487
epoch: 1000
next table: 1040
cur table: 1032
epoch: 1000
next table: 2535
cur table: 2504
epoch: 1000
next table: 1033
cur table: 1040
epoch: 1000
next table: 2552
cur table: 2535
epoch: 1000
next table: 1034
cur table: 1033
epoch: 1000
next table: 2534
cur table: 2552
epoch: 1000
next table: 1034
cur table: 1034
epoch: 1000
next table: 2504
cur table: 2534
epoch: 1000
next table: 1039
cur table: 1034
epoch: 1000
next table: 2536
cur table: 2504
epoch: 1000
next table: 1034
cur table: 1039
epoch: 1000
next table: 2504
cur table: 2536
epoch: 1000
next table: 1033
cur table: 1034
epoch: 1000
next table: 2489
cur table: 2504
epoch: 1000
next table: 1033
cur table: 1033
epoch: 1000
next table: 2549
cur table: 2489
epoch: 1000
next table: 1038
cur table: 1033
epoch: 1000
next table: 2535
cur table: 2549
epoch: 1000
next table: 1033
cur table: 1038
epoch: 1000
next table: 2504
cur table: 2535
epoch: 1000
next table: 1033
cur table: 1033
epoch: 1000
next table: 2536
cur table: 2504
epoch: 1000
next table: 1034
cur table: 1033
epoch: 1000
next table: 2505
cur table: 2536
epoch: 1000
next table: 1037
cur table: 1034
epoch: 1000
next table: 2534
cur table: 2505
epoch: 1000
next table: 1033
cur table: 1037
epoch: 1000
next table: 2504
cur table: 2534
epoch: 1000
next table: 1033
cur table: 1033
epoch: 1000
next table: 2533
cur table: 2504
epoch: 1000
next table: 1033
cur table: 1033
epoch: 1000
next table: 2505
cur table: 2533
epoch: 1000
next table: 1037
cur table: 1033
epoch: 1000
next table: 2536
cur table: 2505
epoch: 1000
next table: 1034
cur table: 1037
epoch: 1000
next table: 2505
cur table: 2536
epoch: 1000
next table: 1034
cur table: 1034
epoch: 1000
next table: 2536
cur table: 2505
epoch: 1000
next table: 1033
cur table: 1034
epoch: 1000
next table: 2503
cur table: 2536
epoch: 1000
next table: 1038
cur table: 1033
epoch: 1000
next table: 2537
cur table: 2503
epoch: 1000
next table: 1033
cur table: 1038
epoch: 1000
next table: 2549
cur table: 2537
epoch: 1000
next table: 1035
cur table: 1033
epoch: 1000
next table: 2488
cur table: 2549
epoch: 1000
next table: 1033
cur table: 1035
epoch: 1000
next table: 2505
cur table: 2488
epoch: 1000
next table: 1035
cur table: 1033
epoch: 1000
next table: 2534
cur table: 2505
epoch: 1000
next table: 1033
cur table: 1035
epoch: 1000
next table: 2505
cur table: 2534
epoch: 1000
next table: 1033
cur table: 1033
epoch: 1000
next table: 2537
cur table: 2505
epoch: 1000
next table: 1033
cur table: 1033
epoch: 1000
next table: 2549
cur table: 2537
epoch: 1000
next table: 1040
cur table: 1033
epoch: 1000
next table: 2537
cur table: 2549
epoch: 1000
next table: 1033
cur table: 1040
epoch: 1000
next table: 2502
cur table: 2537
epoch: 1000
next table: 1033
cur table: 1033
epoch: 1000
next table: 2488
cur table: 2502
epoch: 1000
next table: 1033
cur table: 1033
epoch: 1000
next table: 2504
cur table: 2488
epoch: 1000
next table: 1036
cur table: 1033
epoch: 1000
next table: 2535
cur table: 2504
epoch: 1000
next table: 1033
cur table: 1036
epoch: 1000
next table: 2503
cur table: 2535
epoch: 1000
next table: 1034
cur table: 1033
epoch: 1000
next table: 2583
cur table: 2503
epoch: 1000
next table: 1033
cur table: 1034
epoch: 1000
next table: 2503
cur table: 2583
epoch: 1000
next table: 1038
cur table: 1033
epoch: 1000
next table: 2536
cur table: 2503
epoch: 1000
next table: 1033
cur table: 1038
epoch: 1000
next table: 2505
cur table: 2536
epoch: 1000
next table: 1032
cur table: 1033
epoch: 1000
next table: 2487
cur table: 2505
epoch: 1000
next table: 1034
cur table: 1032
epoch: 1000
next table: 2506
cur table: 2487
epoch: 1000
next table: 1037
cur table: 1034
epoch: 1000
next table: 2580
cur table: 2506
epoch: 1000
next table: 1033
cur table: 1037
epoch: 1000
next table: 2503
cur table: 2580
epoch: 1000
next table: 1034
cur table: 1033
epoch: 1000
next table: 2491
cur table: 2503
epoch: 1000
next table: 1033
cur table: 1034
epoch: 1000
next table: 2549
cur table: 2491
epoch: 1000
next table: 1049
cur table: 1033
epoch: 1000
next table: 2493
cur table: 2549
epoch: 1000
next table: 1034
cur table: 1049
epoch: 1000
next table: 2504
cur table: 2493
epoch: 1000
next table: 1032
cur table: 1034
epoch: 1000
next table: 2535
cur table: 2504
epoch: 1000
next table: 1034
cur table: 1032
epoch: 1000
next table: 2504
cur table: 2535
epoch: 1000
next table: 1037
cur table: 1034
epoch: 1000
next table: 2534
cur table: 2504
epoch: 1000
next table: 1034
cur table: 1037
epoch: 1000
next table: 2506
cur table: 2534
epoch: 1000
next table: 1035
cur table: 1034
epoch: 1000
next table: 2533
cur table: 2506
epoch: 1000
next table: 1033
cur table: 1035
epoch: 1000
next table: 2504
cur table: 2533
epoch: 1000
next table: 1038
cur table: 1033
epoch: 1000
next table: 2536
cur table: 2504
epoch: 1000
next table: 1035
cur table: 1038
epoch: 1000
next table: 2504
cur table: 2536
epoch: 1000
next table: 1037
cur table: 1035
epoch: 1000
next table: 2535
cur table: 2504
epoch: 1000
next table: 1033
cur table: 1037
epoch: 1000
next table: 2504
cur table: 2535
epoch: 1000
next table: 1036
cur table: 1033
epoch: 1000
next table: 2534
cur table: 2504
epoch: 1000
next table: 1033
cur table: 1036
epoch: 1000
next table: 2506
cur table: 2534
epoch: 1000
next table: 1033
cur table: 1033
epoch: 1000
next table: 2533
cur table: 2506
epoch: 1000
next table: 1040
cur table: 1033
epoch: 1000
next table: 2505
cur table: 2533
epoch: 1000
next table: 1039
cur table: 1040
epoch: 1000
next table: 2535
cur table: 2505
epoch: 1000
next table: 1033
cur table: 1039
epoch: 1000
next table: 2504
cur table: 2535
epoch: 1000
next table: 1035
cur table: 1033
epoch: 1000
next table: 2535
cur table: 2504
epoch: 1000
next table: 1034
cur table: 1035
epoch: 1000
next table: 2505
cur table: 2535
epoch: 1000
next table: 1037
cur table: 1034
epoch: 1000
next table: 2583
cur table: 2505
epoch: 1000
next table: 1034
cur table: 1037
epoch: 1000
next table: 2503
cur table: 2583
epoch: 1000
next table: 1034
cur table: 1034
epoch: 1000
next table: 2489
cur table: 2503
epoch: 1000
next table: 1033
cur table: 1034
epoch: 1000
next table: 2504
cur table: 2489
epoch: 1000
next table: 1035
cur table: 1033
epoch: 1000
next table: 2535
cur table: 2504
epoch: 1000
next table: 1036
cur table: 1035
epoch: 1000
next table: 2505
cur table: 2535
epoch: 1000
next table: 1037
cur table: 1036
epoch: 1000
next table: 2535
cur table: 2505
epoch: 1000
next table: 1032
cur table: 1037
epoch: 1000
next table: 2549
cur table: 2535
epoch: 1000
next table: 1035
cur table: 1032
epoch: 1000
next table: 2536
cur table: 2549
epoch: 1000
next table: 1032
cur table: 1035
epoch: 1000
next table: 2503
cur table: 2536
epoch: 1000
next table: 1033
cur table: 1032
Heartbeat CPU 0 instructions: 20000001 cycles: 5821657 heartbeat IPC: 3.4358 cumulative IPC: 3.43545 (Simulation time: 0 hr 9 min 24 sec) 
epoch: 1000
next table: 2489
cur table: 2503
epoch: 1000
next table: 1035
cur table: 1033
epoch: 1000
next table: 2507
cur table: 2489
epoch: 1000
next table: 1036
cur table: 1035
epoch: 1000
next table: 2533
cur table: 2507
epoch: 1000
next table: 1033
cur table: 1036
epoch: 1000
next table: 2549
cur table: 2533
epoch: 1000
next table: 1033
cur table: 1033
epoch: 1000
next table: 2535
cur table: 2549
epoch: 1000
next table: 1033
cur table: 1033
epoch: 1000
next table: 2505
cur table: 2535
epoch: 1000
next table: 1035
cur table: 1033
epoch: 1000
next table: 2536
cur table: 2505
epoch: 1000
next table: 1034
cur table: 1035
epoch: 1000
next table: 2503
cur table: 2536
epoch: 1000
next table: 1033
cur table: 1034
epoch: 1000
next table: 2536
cur table: 2503
epoch: 1000
next table: 1033
cur table: 1033
epoch: 1000
next table: 2503
cur table: 2536
epoch: 1000
next table: 1033
cur table: 1033
epoch: 1000
next table: 2536
cur table: 2503
epoch: 1000
next table: 1037
cur table: 1033
epoch: 1000
next table: 2505
cur table: 2536
epoch: 1000
next table: 1033
cur table: 1037
epoch: 1000
next table: 2536
cur table: 2505
epoch: 1000
next table: 1034
cur table: 1033
epoch: 1000
next table: 2504
cur table: 2536
epoch: 1000
next table: 1033
cur table: 1034
epoch: 1000
next table: 2580
cur table: 2504
epoch: 1000
next table: 1034
cur table: 1033
epoch: 1000
next table: 2504
cur table: 2580
epoch: 1000
next table: 1035
cur table: 1034
epoch: 1000
next table: 2489
cur table: 2504
epoch: 1000
next table: 1034
cur table: 1035
epoch: 1000
next table: 2503
cur table: 2489
epoch: 1000
next table: 1033
cur table: 1034
epoch: 1000
next table: 2537
cur table: 2503
epoch: 1000
next table: 1039
cur table: 1033
epoch: 1000
next table: 2503
cur table: 2537
epoch: 1000
next table: 1033
cur table: 1039
epoch: 1000
next table: 2581
cur table: 2503
epoch: 1000
next table: 1033
cur table: 1033
epoch: 1000
next table: 2505
cur table: 2581
epoch: 1000
next table: 1033
cur table: 1033
epoch: 1000
next table: 2535
cur table: 2505
epoch: 1000
next table: 1036
cur table: 1033
epoch: 1000
next table: 2504
cur table: 2535
epoch: 1000
next table: 1033
cur table: 1036
epoch: 1000
next table: 2491
cur table: 2504
epoch: 1000
next table: 1034
cur table: 1033
epoch: 1000
next table: 2502
cur table: 2491
epoch: 1000
next table: 1033
cur table: 1034
epoch: 1000
next table: 2536
cur table: 2502
epoch: 1000
next table: 1035
cur table: 1033
epoch: 1000
next table: 2550
cur table: 2536
epoch: 1000
next table: 1033
cur table: 1035
epoch: 1000
next table: 2535
cur table: 2550
epoch: 1000
next table: 1033
cur table: 1033
epoch: 1000
next table: 2505
cur table: 2535
epoch: 1000
next table: 1034
cur table: 1033
epoch: 1000
next table: 2535
cur table: 2505
epoch: 1000
next table: 1035
cur table: 1034
epoch: 1000
next table: 2503
cur table: 2535
epoch: 1000
next table: 1033
cur table: 1035
epoch: 1000
next table: 2489
cur table: 2503
epoch: 1000
next table: 1033
cur table: 1033
epoch: 1000
next table: 2550
cur table: 2489
epoch: 1000
next table: 1033
cur table: 1033
epoch: 1000
next table: 2535
cur table: 2550
epoch: 1000
next table: 1039
cur table: 1033
epoch: 1000
next table: 2505
cur table: 2535
epoch: 1000
next table: 1036
cur table: 1039
epoch: 1000
next table: 2535
cur table: 2505
epoch: 1000
next table: 1034
cur table: 1036
epoch: 1000
next table: 2504
cur table: 2535
epoch: 1000
next table: 1035
cur table: 1034
epoch: 1000
next table: 2535
cur table: 2504
epoch: 1000
next table: 1037
cur table: 1035
epoch: 1000
next table: 2549
cur table: 2535
epoch: 1000
next table: 1034
cur table: 1037
epoch: 1000
next table: 2489
cur table: 2549
epoch: 1000
next table: 1035
cur table: 1034
epoch: 1000
next table: 2504
cur table: 2489
epoch: 1000
next table: 1033
cur table: 1035
epoch: 1000
next table: 2535
cur table: 2504
epoch: 1000
next table: 1040
cur table: 1033
epoch: 1000
next table: 2504
cur table: 2535
epoch: 1000
next table: 1033
cur table: 1040
epoch: 1000
next table: 2536
cur table: 2504
epoch: 1000
next table: 1033
cur table: 1033
epoch: 1000
next table: 2506
cur table: 2536
epoch: 1000
next table: 1033
cur table: 1033
epoch: 1000
next table: 2533
cur table: 2506
epoch: 1000
next table: 1037
cur table: 1033
epoch: 1000
next table: 2550
cur table: 2533
epoch: 1000
next table: 1034
cur table: 1037
epoch: 1000
next table: 2487
cur table: 2550
epoch: 1000
next table: 1033
cur table: 1034
epoch: 1000
next table: 2506
cur table: 2487
epoch: 1000
next table: 1033
cur table: 1033
epoch: 1000
next table: 2534
cur table: 2506
epoch: 1000
next table: 1036
cur table: 1033
epoch: 1000
next table: 2507
cur table: 2534
epoch: 1000
next table: 1033
cur table: 1036
epoch: 1000
next table: 2533
cur table: 2507
epoch: 1000
next table: 1034
cur table: 1033
epoch: 1000
next table: 2550
cur table: 2533
epoch: 1000
next table: 1033
cur table: 1034
epoch: 1000
next table: 2538
cur table: 2550
epoch: 1000
next table: 1038
cur table: 1033
epoch: 1000
next table: 2503
cur table: 2538
epoch: 1000
next table: 1033
cur table: 1038
epoch: 1000
next table: 2488
cur table: 2503
epoch: 1000
next table: 1034
cur table: 1033
epoch: 1000
next table: 2507
cur table: 2488
epoch: 1000
next table: 1035
cur table: 1034
epoch: 1000
next table: 2533
cur table: 2507
epoch: 1000
next table: 1035
cur table: 1035
epoch: 1000
next table: 2504
cur table: 2533
epoch: 1000
next table: 1033
cur table: 1035
epoch: 1000
next table: 2582
cur table: 2504
epoch: 1000
next table: 1034
cur table: 1033
epoch: 1000
next table: 2503
cur table: 2582
epoch: 1000
next table: 1033
cur table: 1034
epoch: 1000
next table: 2538
cur table: 2503
epoch: 1000
next table: 1037
cur table: 1033
epoch: 1000
next table: 2502
cur table: 2538
epoch: 1000
next table: 1033
cur table: 1037
epoch: 1000
next table: 2488
cur table: 2502
epoch: 1000
next table: 1034
cur table: 1033
epoch: 1000
next table: 2505
cur table: 2488
epoch: 1000
next table: 1032
cur table: 1034
epoch: 1000
next table: 2535
cur table: 2505
epoch: 1000
next table: 1036
cur table: 1032
epoch: 1000
next table: 2549
cur table: 2535
epoch: 1000
next table: 1032
cur table: 1036
epoch: 1000
next table: 2535
cur table: 2549
epoch: 1000
next table: 1033
cur table: 1032
epoch: 1000
next table: 2503
cur table: 2535
epoch: 1000
next table: 1034
cur table: 1033
epoch: 1000
next table: 2538
cur table: 2503
epoch: 1000
next table: 1035
cur table: 1034
epoch: 1000
next table: 2503
cur table: 2538
epoch: 1000
next table: 1033
cur table: 1035
epoch: 1000
next table: 2489
cur table: 2503
epoch: 1000
next table: 1033
cur table: 1033
epoch: 1000
next table: 2550
cur table: 2489
epoch: 1000
next table: 1033
cur table: 1033
epoch: 1000
next table: 2536
cur table: 2550
epoch: 1000
next table: 1039
cur table: 1033
epoch: 1000
next table: 2503
cur table: 2536
epoch: 1000
next table: 1033
cur table: 1039
epoch: 1000
next table: 2537
cur table: 2503
epoch: 1000
next table: 1034
cur table: 1033
epoch: 1000
next table: 2503
cur table: 2537
epoch: 1000
next table: 1033
cur table: 1034
epoch: 1000
next table: 2536
cur table: 2503
epoch: 1000
next table: 1033
cur table: 1033
epoch: 1000
next table: 2550
cur table: 2536
epoch: 1000
next table: 1033
cur table: 1033
epoch: 1000
next table: 2488
cur table: 2550
epoch: 1000
next table: 1033
cur table: 1033
epoch: 1000
next table: 2503
cur table: 2488
epoch: 1000
next table: 1035
cur table: 1033
epoch: 1000
next table: 2537
cur table: 2503
epoch: 1000
next table: 1036
cur table: 1035
epoch: 1000
next table: 2503
cur table: 2537
epoch: 1000
next table: 1033
cur table: 1036
epoch: 1000
next table: 2537
cur table: 2503
epoch: 1000
next table: 1034
cur table: 1033
epoch: 1000
next table: 2548
cur table: 2537
epoch: 1000
next table: 1033
cur table: 1034
epoch: 1000
next table: 2536
cur table: 2548
epoch: 1000
next table: 1035
cur table: 1033
epoch: 1000
next table: 2505
cur table: 2536
epoch: 1000
next table: 1034
cur table: 1035
Heartbeat CPU 0 instructions: 30000000 cycles: 8732168 heartbeat IPC: 3.43582 cumulative IPC: 3.43557 (Simulation time: 0 hr 13 min 59 sec) 
epoch: 1000
next table: 2488
cur table: 2505
epoch: 1000
next table: 1033
cur table: 1034
epoch: 1000
next table: 2505
cur table: 2488
epoch: 1000
next table: 1033
cur table: 1033
epoch: 1000
next table: 2536
cur table: 2505
epoch: 1000
next table: 1034
cur table: 1033
epoch: 1000
next table: 2504
cur table: 2536
epoch: 1000
next table: 1033
cur table: 1034
epoch: 1000
next table: 2581
cur table: 2504
epoch: 1000
next table: 1033
cur table: 1033
epoch: 1000
next table: 2504
cur table: 2581
epoch: 1000
next table: 1034
cur table: 1033
epoch: 1000
next table: 2534
cur table: 2504
epoch: 1000
next table: 1033
cur table: 1034
epoch: 1000
next table: 2506
cur table: 2534
epoch: 1000
next table: 1033
cur table: 1033
epoch: 1000
next table: 2487
cur table: 2506
epoch: 1000
next table: 1033
cur table: 1033
epoch: 1000
next table: 2550
cur table: 2487
epoch: 1000
next table: 1035
cur table: 1033
epoch: 1000
next table: 2536
cur table: 2550
epoch: 1000
next table: 1035
cur table: 1035
epoch: 1000
next table: 2504
cur table: 2536
epoch: 1000
next table: 1034
cur table: 1035
epoch: 1000
next table: 2489
cur table: 2504
epoch: 1000
next table: 1032
cur table: 1034
epoch: 1000
next table: 2550
cur table: 2489
epoch: 1000
next table: 1034
cur table: 1032
epoch: 1000
next table: 2534
cur table: 2550
epoch: 1000
next table: 1041
cur table: 1034
epoch: 1000
next table: 2505
cur table: 2534
epoch: 1000
next table: 1035
cur table: 1041
epoch: 1000
next table: 2497
cur table: 2505
epoch: 1000
next table: 1036
cur table: 1035
epoch: 1000
next table: 2542
cur table: 2497
epoch: 1000
next table: 1033
cur table: 1036
epoch: 1000
next table: 2535
cur table: 2542
epoch: 1000
next table: 1040
cur table: 1033
epoch: 1000
next table: 2505
cur table: 2535
epoch: 1000
next table: 1033
cur table: 1040
epoch: 1000
next table: 2502
cur table: 2505
epoch: 1000
next table: 1033
cur table: 1033
epoch: 1000
next table: 2489
cur table: 2502
epoch: 1000
next table: 1033
cur table: 1033
epoch: 1000
next table: 2505
cur table: 2489
epoch: 1000
next table: 1037
cur table: 1033
epoch: 1000
next table: 2534
cur table: 2505
epoch: 1000
next table: 1033
cur table: 1037
epoch: 1000
next table: 2549
cur table: 2534
epoch: 1000
next table: 1033
cur table: 1033
epoch: 1000
next table: 2537
cur table: 2549
epoch: 1000
next table: 1033
cur table: 1033
epoch: 1000
next table: 2503
cur table: 2537
epoch: 1000
next table: 1037
cur table: 1033
epoch: 1000
next table: 2537
cur table: 2503
epoch: 1000
next table: 1033
cur table: 1037
epoch: 1000
next table: 2503
cur table: 2537
epoch: 1000
next table: 1036
cur table: 1033
epoch: 1000
next table: 2488
cur table: 2503
epoch: 1000
next table: 1035
cur table: 1036
epoch: 1000
next table: 2550
cur table: 2488
epoch: 1000
next table: 1043
cur table: 1035
epoch: 1000
next table: 2539
cur table: 2550
epoch: 1000
next table: 1038
cur table: 1043
epoch: 1000
next table: 2502
cur table: 2539
epoch: 1000
next table: 1036
cur table: 1038
epoch: 1000
next table: 2536
cur table: 2502
epoch: 1000
next table: 1033
cur table: 1036
epoch: 1000
next table: 2505
cur table: 2536
epoch: 1000
next table: 1034
cur table: 1033
epoch: 1000
next table: 2535
cur table: 2505
epoch: 1000
next table: 1034
cur table: 1034
epoch: 1000
next table: 2504
cur table: 2535
epoch: 1000
next table: 1033
cur table: 1034
epoch: 1000
next table: 2533
cur table: 2504
epoch: 1000
next table: 1035
cur table: 1033
epoch: 1000
next table: 2504
cur table: 2533
epoch: 1000
next table: 1033
cur table: 1035
epoch: 1000
next table: 2535
cur table: 2504
epoch: 1000
next table: 1034
cur table: 1033
epoch: 1000
next table: 2504
cur table: 2535
epoch: 1000
next table: 1033
cur table: 1034
epoch: 1000
next table: 2537
cur table: 2504
epoch: 1000
next table: 1033
cur table: 1033
epoch: 1000
next table: 2550
cur table: 2537
epoch: 1000
next table: 1033
cur table: 1033
epoch: 1000
next table: 2535
cur table: 2550
epoch: 1000
next table: 1033
cur table: 1033
epoch: 1000
next table: 2504
cur table: 2535
epoch: 1000
next table: 1034
cur table: 1033
epoch: 1000
next table: 2487
cur table: 2504
epoch: 1000
next table: 1036
cur table: 1034
epoch: 1000
next table: 2505
cur table: 2487
epoch: 1000
next table: 1035
cur table: 1036
epoch: 1000
next table: 2536
cur table: 2505
epoch: 1000
next table: 1033
cur table: 1035
epoch: 1000
next table: 2503
cur table: 2536
epoch: 1000
next table: 1032
cur table: 1033
epoch: 1000
next table: 2583
cur table: 2503
epoch: 1000
next table: 1033
cur table: 1032
epoch: 1000
next table: 2504
cur table: 2583
epoch: 1000
next table: 1040
cur table: 1033
epoch: 1000
next table: 2535
cur table: 2504
epoch: 1000
next table: 1034
cur table: 1040
epoch: 1000
next table: 2506
cur table: 2535
epoch: 1000
next table: 1033
cur table: 1034
epoch: 1000
next table: 2486
cur table: 2506
epoch: 1000
next table: 1033
cur table: 1033
epoch: 1000
next table: 2504
cur table: 2486
epoch: 1000
next table: 1040
cur table: 1033
epoch: 1000
next table: 2536
cur table: 2504
epoch: 1000
next table: 1035
cur table: 1040
epoch: 1000
next table: 2502
cur table: 2536
epoch: 1000
next table: 1034
cur table: 1035
epoch: 1000
next table: 2536
cur table: 2502
epoch: 1000
next table: 1035
cur table: 1034
epoch: 1000
next table: 2551
cur table: 2536
epoch: 1000
next table: 1036
cur table: 1035
epoch: 1000
next table: 2535
cur table: 2551
epoch: 1000
next table: 1033
cur table: 1036
epoch: 1000
next table: 2505
cur table: 2535
epoch: 1000
next table: 1034
cur table: 1033
epoch: 1000
next table: 2488
cur table: 2505
epoch: 1000
next table: 1033
cur table: 1034
epoch: 1000
next table: 2503
cur table: 2488
epoch: 1000
next table: 1035
cur table: 1033
epoch: 1000
next table: 2536
cur table: 2503
epoch: 1000
next table: 1034
cur table: 1035
epoch: 1000
next table: 2549
cur table: 2536
epoch: 1000
next table: 1033
cur table: 1034
epoch: 1000
next table: 2537
cur table: 2549
epoch: 1000
next table: 1033
cur table: 1033
epoch: 1000
next table: 2504
cur table: 2537
epoch: 1000
next table: 1035
cur table: 1033
epoch: 1000
next table: 2535
cur table: 2504
epoch: 1000
next table: 1033
cur table: 1035
epoch: 1000
next table: 2506
cur table: 2535
epoch: 1000
next table: 1033
cur table: 1033
epoch: 1000
next table: 2486
cur table: 2506
epoch: 1000
next table: 1034
cur table: 1033
epoch: 1000
next table: 2551
cur table: 2486
epoch: 1000
next table: 1033
cur table: 1034
epoch: 1000
next table: 2534
cur table: 2551
epoch: 1000
next table: 1033
cur table: 1033
epoch: 1000
next table: 2504
cur table: 2534
epoch: 1000
next table: 1033
cur table: 1033
epoch: 1000
next table: 2536
cur table: 2504
epoch: 1000
next table: 1034
cur table: 1033
epoch: 1000
next table: 2505
cur table: 2536
epoch: 1000
next table: 1051
cur table: 1034
epoch: 1000
next table: 2541
cur table: 2505
epoch: 1000
next table: 1034
cur table: 1051
epoch: 1000
next table: 2504
cur table: 2541
epoch: 1000
next table: 1036
cur table: 1034
epoch: 1000
next table: 2489
cur table: 2504
epoch: 1000
next table: 1036
cur table: 1036
epoch: 1000
next table: 2503
cur table: 2489
epoch: 1000
next table: 1035
cur table: 1036
epoch: 1000
next table: 2535
cur table: 2503
epoch: 1000
next table: 1033
cur table: 1035
epoch: 1000
next table: 2505
cur table: 2535
epoch: 1000
next table: 1033
cur table: 1033
epoch: 1000
next table: 2581
cur table: 2505
epoch: 1000
next table: 1033
cur table: 1033
epoch: 1000
next table: 2506
cur table: 2581
epoch: 1000
next table: 1038
cur table: 1033
epoch: 1000
next table: 2533
cur table: 2506
epoch: 1000
next table: 1035
cur table: 1038
epoch: 1000
next table: 2503
cur table: 2533
epoch: 1000
next table: 1032
cur table: 1035
epoch: 1000
next table: 2488
cur table: 2503
epoch: 1000
next table: 1033
cur table: 1032
epoch: 1000
next table: 2503
cur table: 2488
epoch: 1000
next table: 1039
cur table: 1033
epoch: 1000
next table: 2536
cur table: 2503
Heartbeat CPU 0 instructions: 40000002 cycles: 11642697 heartbeat IPC: 3.4358 cumulative IPC: 3.43563 (Simulation time: 0 hr 18 min 51 sec) 
epoch: 1000
next table: 1033
cur table: 1039
epoch: 1000
next table: 2503
cur table: 2536
epoch: 1000
next table: 1034
cur table: 1033
epoch: 1000
next table: 2582
cur table: 2503
epoch: 1000
next table: 1034
cur table: 1034
epoch: 1000
next table: 2504
cur table: 2582
epoch: 1000
next table: 1038
cur table: 1034
epoch: 1000
next table: 2535
cur table: 2504
epoch: 1000
next table: 1033
cur table: 1038
epoch: 1000
next table: 2504
cur table: 2535
epoch: 1000
next table: 1033
cur table: 1033
epoch: 1000
next table: 2489
cur table: 2504
epoch: 1000
next table: 1033
cur table: 1033
epoch: 1000
next table: 2503
cur table: 2489
epoch: 1000
next table: 1039
cur table: 1033
epoch: 1000
next table: 2536
cur table: 2503
epoch: 1000
next table: 1035
cur table: 1039
epoch: 1000
next table: 2503
cur table: 2536
epoch: 1000
next table: 1034
cur table: 1035
epoch: 1000
next table: 2583
cur table: 2503
epoch: 1000
next table: 1034
cur table: 1034
epoch: 1000
next table: 2504
cur table: 2583
epoch: 1000
next table: 1040
cur table: 1034
epoch: 1000
next table: 2534
cur table: 2504
epoch: 1000
next table: 1033
cur table: 1040
epoch: 1000
next table: 2505
cur table: 2534
epoch: 1000
next table: 1033
cur table: 1033
epoch: 1000
next table: 2486
cur table: 2505
epoch: 1000
next table: 1033
cur table: 1033
epoch: 1000
next table: 2505
cur table: 2486
epoch: 1000
next table: 1040
cur table: 1033
epoch: 1000
next table: 2537
cur table: 2505
epoch: 1000
next table: 1033
cur table: 1040
epoch: 1000
next table: 2503
cur table: 2537
epoch: 1000
next table: 1034
cur table: 1033
epoch: 1000
next table: 2536
cur table: 2503
epoch: 1000
next table: 1033
cur table: 1034
epoch: 1000
next table: 2551
cur table: 2536
epoch: 1000
next table: 1039
cur table: 1033
epoch: 1000
next table: 2536
cur table: 2551
epoch: 1000
next table: 1033
cur table: 1039
epoch: 1000
next table: 2505
cur table: 2536
epoch: 1000
next table: 1036
cur table: 1033
epoch: 1000
next table: 2486
cur table: 2505
epoch: 1000
next table: 1033
cur table: 1036
epoch: 1000
next table: 2505
cur table: 2486
epoch: 1000
next table: 1038
cur table: 1033
epoch: 1000
next table: 2536
cur table: 2505
epoch: 1000
next table: 1033
cur table: 1038
epoch: 1000
next table: 2503
cur table: 2536
epoch: 1000
next table: 1033
cur table: 1033
epoch: 1000
next table: 2538
cur table: 2503
epoch: 1000
next table: 1033
cur table: 1033
epoch: 1000
next table: 2549
cur table: 2538
epoch: 1000
next table: 1041
cur table: 1033
epoch: 1000
next table: 2534
cur table: 2549
epoch: 1000
next table: 1034
cur table: 1041
epoch: 1000
next table: 2504
cur table: 2534
epoch: 1000
next table: 1032
cur table: 1034
epoch: 1000
next table: 2488
cur table: 2504
epoch: 1000
next table: 1033
cur table: 1032
epoch: 1000
next table: 2503
cur table: 2488
epoch: 1000
next table: 1037
cur table: 1033
epoch: 1000
next table: 2536
cur table: 2503
epoch: 1000
next table: 1034
cur table: 1037
epoch: 1000
next table: 2503
cur table: 2536
epoch: 1000
next table: 1034
cur table: 1034
epoch: 1000
next table: 2582
cur table: 2503
epoch: 1000
next table: 1033
cur table: 1034
epoch: 1000
next table: 2505
cur table: 2582
epoch: 1000
next table: 1038
cur table: 1033
epoch: 1000
next table: 2534
cur table: 2505
epoch: 1000
next table: 1033
cur table: 1038
epoch: 1000
next table: 2504
cur table: 2534
epoch: 1000
next table: 1033
cur table: 1033
epoch: 1000
next table: 2490
cur table: 2504
epoch: 1000
next table: 1034
cur table: 1033
epoch: 1000
next table: 2502
cur table: 2490
epoch: 1000
next table: 1037
cur table: 1034
epoch: 1000
next table: 2535
cur table: 2502
epoch: 1000
next table: 1033
cur table: 1037
epoch: 1000
next table: 2551
cur table: 2535
epoch: 1000
next table: 1033
cur table: 1033
epoch: 1000
next table: 2535
cur table: 2551
epoch: 1000
next table: 1033
cur table: 1033
epoch: 1000
next table: 2506
cur table: 2535
epoch: 1000
next table: 1037
cur table: 1033
epoch: 1000
next table: 2534
cur table: 2506
epoch: 1000
next table: 1034
cur table: 1037
epoch: 1000
next table: 2505
cur table: 2534
epoch: 1000
next table: 1033
cur table: 1034
epoch: 1000
next table: 2487
cur table: 2505
epoch: 1000
next table: 1033
cur table: 1033
epoch: 1000
next table: 2550
cur table: 2487
epoch: 1000
next table: 1038
cur table: 1033
epoch: 1000
next table: 2489
cur table: 2550
epoch: 1000
next table: 1033
cur table: 1038
epoch: 1000
next table: 2551
cur table: 2489
epoch: 1000
next table: 1034
cur table: 1033
epoch: 1000
next table: 2489
cur table: 2551
epoch: 1000
next table: 1033
cur table: 1034
epoch: 1000
next table: 2550
cur table: 2489
epoch: 1000
next table: 1036
cur table: 1033
epoch: 1000
next table: 2538
cur table: 2550
epoch: 1000
next table: 1033
cur table: 1036
epoch: 1000
next table: 2504
cur table: 2538
epoch: 1000
next table: 1034
cur table: 1033
epoch: 1000
next table: 2488
cur table: 2504
epoch: 1000
next table: 1033
cur table: 1034
epoch: 1000
next table: 2550
cur table: 2488
epoch: 1000
next table: 1034
cur table: 1033
epoch: 1000
next table: 2534
cur table: 2550
epoch: 1000
next table: 1034
cur table: 1034
epoch: 1000
next table: 2505
cur table: 2534
epoch: 1000
next table: 1033
cur table: 1034
epoch: 1000
next table: 2489
cur table: 2505
epoch: 1000
next table: 1033
cur table: 1033
epoch: 1000
next table: 2503
cur table: 2489
epoch: 1000
next table: 1038
cur table: 1033
epoch: 1000
next table: 2535
cur table: 2503
epoch: 1000
next table: 1034
cur table: 1038
epoch: 1000
next table: 2550
cur table: 2535
epoch: 1000
next table: 1036
cur table: 1034
epoch: 1000
next table: 2488
cur table: 2550
epoch: 1000
next table: 1034
cur table: 1036
epoch: 1000
next table: 2551
cur table: 2488
epoch: 1000
next table: 1039
cur table: 1034
epoch: 1000
next table: 2534
cur table: 2551
epoch: 1000
next table: 1033
cur table: 1039
epoch: 1000
next table: 2504
cur table: 2534
epoch: 1000
next table: 1034
cur table: 1033
epoch: 1000
next table: 2489
cur table: 2504
epoch: 1000
next table: 1037
cur table: 1034
epoch: 1000
next table: 2506
cur table: 2489
epoch: 1000
next table: 1040
cur table: 1037
epoch: 1000
next table: 2533
cur table: 2506
epoch: 1000
next table: 1035
cur table: 1040
epoch: 1000
next table: 2505
cur table: 2533
epoch: 1000
next table: 1034
cur table: 1035
epoch: 1000
next table: 2580
cur table: 2505
epoch: 1000
next table: 1033
cur table: 1034
epoch: 1000
next table: 2506
cur table: 2580
epoch: 1000
next table: 1040
cur table: 1033
epoch: 1000
next table: 2534
cur table: 2506
epoch: 1000
next table: 1033
cur table: 1040
epoch: 1000
next table: 2504
cur table: 2534
epoch: 1000
next table: 1034
cur table: 1033
epoch: 1000
next table: 2490
cur table: 2504
epoch: 1000
next table: 1034
cur table: 1034
epoch: 1000
next table: 2502
cur table: 2490
epoch: 1000
next table: 1039
cur table: 1034
epoch: 1000
next table: 2535
cur table: 2502
epoch: 1000
next table: 1038
cur table: 1039
epoch: 1000
next table: 2504
cur table: 2535
epoch: 1000
next table: 1036
cur table: 1038
epoch: 1000
next table: 2581
cur table: 2504
epoch: 1000
next table: 1033
cur table: 1036
epoch: 1000
next table: 2504
cur table: 2581
epoch: 1000
next table: 1037
cur table: 1033
epoch: 1000
next table: 2536
cur table: 2504
epoch: 1000
next table: 1033
cur table: 1037
epoch: 1000
next table: 2504
cur table: 2536
epoch: 1000
next table: 1034
cur table: 1033
epoch: 1000
next table: 2490
cur table: 2504
epoch: 1000
next table: 1034
cur table: 1034
epoch: 1000
next table: 2503
cur table: 2490
epoch: 1000
next table: 1040
cur table: 1034
epoch: 1000
next table: 2538
cur table: 2503
epoch: 1000
next table: 1033
cur table: 1040
epoch: 1000
next table: 2502
cur table: 2538
epoch: 1000
next table: 1033
cur table: 1033
epoch: 1000
next table: 2537
cur table: 2502
epoch: 1000
next table: 1034
cur table: 1033
epoch: 1000
next table: 2549
cur table: 2537
epoch: 1000
next table: 1036
cur table: 1034
epoch: 1000
next table: 2535
cur table: 2549
Heartbeat CPU 0 instructions: 50000001 cycles: 14553209 heartbeat IPC: 3.43582 cumulative IPC: 3.43567 (Simulation time: 0 hr 24 min 11 sec) 

Warmup complete CPU 0 instructions: 50000001 cycles: 14553209 (Simulation time: 0 hr 24 min 11 sec) 

epoch: 1000
next table: 1035
cur table: 1066
epoch: 1000
next table: 2502
cur table: 2492
epoch: 1000
next table: 1036
cur table: 1035
epoch: 1000
next table: 2537
cur table: 2502
epoch: 1000
next table: 1034
cur table: 1036
epoch: 1000
next table: 2503
cur table: 2537
epoch: 1000
next table: 2537
cur table: 2503
epoch: 1000
next table: 1065
cur table: 1034
epoch: 1000
next table: 2503
cur table: 2537
epoch: 1000
next table: 1096
cur table: 1065
epoch: 1000
next table: 2580
cur table: 2503
epoch: 1000
next table: 1035
cur table: 1096
epoch: 1000
next table: 2505
cur table: 2580
epoch: 1000
next table: 1033
cur table: 1035
epoch: 1000
next table: 2489
cur table: 2505
epoch: 1000
next table: 1036
cur table: 1033
epoch: 1000
next table: 1035
cur table: 1036
epoch: 1000
next table: 2506
cur table: 2489
epoch: 1000
next table: 2536
cur table: 2506
epoch: 1000
next table: 1037
cur table: 1035
epoch: 1000
next table: 2501
cur table: 2536
epoch: 1000
next table: 1035
cur table: 1037
epoch: 1000
next table: 2540
cur table: 2501
epoch: 1000
next table: 1035
cur table: 1035
epoch: 1000
next table: 2546
cur table: 2540
epoch: 1000
next table: 1034
cur table: 1035
epoch: 1000
next table: 2533
cur table: 2546
epoch: 1000
next table: 1038
cur table: 1034
epoch: 1000
next table: 2505
cur table: 2533
epoch: 1000
next table: 1035
cur table: 1038
epoch: 1000
next table: 2488
cur table: 2505
epoch: 1000
next table: 1034
cur table: 1035
epoch: 1000
next table: 2503
cur table: 2488
epoch: 1000
next table: 1034
cur table: 1034
epoch: 1000
next table: 2541
cur table: 2503
epoch: 1000
next table: 1039
cur table: 1034
epoch: 1000
next table: 2500
cur table: 2541
epoch: 1000
next table: 1035
cur table: 1039
epoch: 1000
next table: 2539
cur table: 2500
epoch: 1000
next table: 1035
cur table: 1035
epoch: 1000
next table: 2546
cur table: 2539
epoch: 1000
next table: 1034
cur table: 1035
epoch: 1000
next table: 2535
cur table: 2546
epoch: 1000
next table: 1037
cur table: 1034
epoch: 1000
next table: 2503
cur table: 2535
epoch: 1000
next table: 1036
cur table: 1037
epoch: 1000
next table: 2490
cur table: 2503
epoch: 1000
next table: 1037
cur table: 1036
epoch: 1000
next table: 2503
cur table: 2490
epoch: 1000
next table: 1035
cur table: 1037
epoch: 1000
next table: 2510
cur table: 2503
epoch: 1000
next table: 1036
cur table: 1035
epoch: 1000
next table: 2536
cur table: 2510
epoch: 1000
next table: 1034
cur table: 1036
epoch: 1000
next table: 2577
cur table: 2536
epoch: 1000
next table: 1035
cur table: 1034
epoch: 1000
next table: 2506
cur table: 2577
epoch: 1000
next table: 1036
cur table: 1035
epoch: 1000
next table: 2534
cur table: 2506
epoch: 1000
next table: 1037
cur table: 1036
epoch: 1000
next table: 2504
cur table: 2534
epoch: 1000
next table: 1034
cur table: 1037
epoch: 1000
next table: 2508
cur table: 2504
epoch: 1000
next table: 1033
cur table: 1034
epoch: 1000
next table: 2484
cur table: 2508
epoch: 1000
next table: 1035
cur table: 1033
epoch: 1000
next table: 2549
cur table: 2484
epoch: 1000
next table: 1040
cur table: 1035
epoch: 1000
next table: 2494
cur table: 2549
epoch: 1000
next table: 1036
cur table: 1040
epoch: 1000
next table: 2546
cur table: 2494
epoch: 1000
next table: 1036
cur table: 1036
epoch: 1000
next table: 2535
cur table: 2546
epoch: 1000
next table: 1034
cur table: 1036
epoch: 1000
next table: 2503
cur table: 2535
epoch: 1000
next table: 1043
cur table: 1034
epoch: 1000
next table: 2538
cur table: 2503
epoch: 1000
next table: 1036
cur table: 1043
epoch: 1000
next table: 2502
cur table: 2538
epoch: 1000
next table: 1033
cur table: 1036
epoch: 1000
next table: 2492
cur table: 2502
epoch: 1000
next table: 1034
cur table: 1033
epoch: 1000
next table: 2504
cur table: 2492
epoch: 1000
next table: 1035
cur table: 1034
epoch: 1000
next table: 2534
cur table: 2504
epoch: 1000
next table: 1038
cur table: 1035
epoch: 1000
next table: 2550
cur table: 2534
epoch: 1000
next table: 1034
cur table: 1038
epoch: 1000
next table: 2534
cur table: 2550
epoch: 1000
next table: 1034
cur table: 1034
epoch: 1000
next table: 2505
cur table: 2534
epoch: 1000
next table: 1034
cur table: 1034
epoch: 1000
next table: 2536
cur table: 2505
epoch: 1000
next table: 1040
cur table: 1034
epoch: 1000
next table: 2504
cur table: 2536
epoch: 1000
next table: 1035
cur table: 1040
epoch: 1000
next table: 2491
cur table: 2504
epoch: 1000
next table: 1035
cur table: 1035
epoch: 1000
next table: 2547
cur table: 2491
epoch: 1000
next table: 1033
cur table: 1035
epoch: 1000
next table: 2535
cur table: 2547
epoch: 1000
next table: 1035
cur table: 1033
epoch: 1000
next table: 2504
cur table: 2535
epoch: 1000
next table: 1036
cur table: 1035
epoch: 1000
next table: 2535
cur table: 2504
epoch: 1000
next table: 1035
cur table: 1036
epoch: 1000
next table: 2507
cur table: 2535
epoch: 1000
next table: 1034
cur table: 1035
epoch: 1000
next table: 2535
cur table: 2507
epoch: 1000
next table: 1036
cur table: 1034
epoch: 1000
next table: 2502
cur table: 2535
epoch: 1000
next table: 1035
cur table: 1036
epoch: 1000
next table: 2494
cur table: 2502
epoch: 1000
next table: 1035
cur table: 1035
epoch: 1000
next table: 2546
cur table: 2494
epoch: 1000
next table: 1035
cur table: 1035
epoch: 1000
next table: 2537
cur table: 2546
epoch: 1000
next table: 1036
cur table: 1035
epoch: 1000
next table: 2502
cur table: 2537
epoch: 1000
next table: 1034
cur table: 1036
epoch: 1000
next table: 2537
cur table: 2502
epoch: 1000
next table: 1035
cur table: 1034
epoch: 1000
next table: 2507
cur table: 2537
epoch: 1000
next table: 1035
cur table: 1035
epoch: 1000
next table: 2537
cur table: 2507
epoch: 1000
next table: 1039
cur table: 1035
epoch: 1000
next table: 2500
cur table: 2537
epoch: 1000
next table: 1035
cur table: 1039
epoch: 1000
next table: 2490
cur table: 2500
epoch: 1000
next table: 1035
cur table: 1035
epoch: 1000
next table: 2547
cur table: 2490
epoch: 1000
next table: 1033
cur table: 1035
epoch: 1000
next table: 2536
cur table: 2547
epoch: 1000
next table: 1044
cur table: 1033
epoch: 1000
next table: 2502
cur table: 2536
epoch: 1000
next table: 1032
cur table: 1044
epoch: 1000
next table: 2536
cur table: 2502
epoch: 1000
next table: 1033
cur table: 1032
epoch: 1000
next table: 2504
cur table: 2536
epoch: 1000
next table: 1035
cur table: 1033
epoch: 1000
next table: 2535
cur table: 2504
epoch: 1000
next table: 1040
cur table: 1035
epoch: 1000
next table: 2504
cur table: 2535
epoch: 1000
next table: 1035
cur table: 1040
epoch: 1000
next table: 2489
cur table: 2504
epoch: 1000
next table: 1037
cur table: 1035
epoch: 1000
next table: 2550
cur table: 2489
epoch: 1000
next table: 1033
cur table: 1037
epoch: 1000
next table: 2491
cur table: 2550
epoch: 1000
next table: 1042
cur table: 1033
epoch: 1000
next table: 2547
cur table: 2491
epoch: 1000
next table: 1035
cur table: 1042
epoch: 1000
next table: 2536
cur table: 2547
epoch: 1000
next table: 1035
cur table: 1035
epoch: 1000
next table: 2503
cur table: 2536
epoch: 1000
next table: 1034
cur table: 1035
epoch: 1000
next table: 2534
cur table: 2503
epoch: 1000
next table: 1039
cur table: 1034
epoch: 1000
next table: 2504
cur table: 2534
epoch: 1000
next table: 1035
cur table: 1039
epoch: 1000
next table: 2489
cur table: 2504
epoch: 1000
next table: 1037
cur table: 1035
epoch: 1000
next table: 2504
cur table: 2489
epoch: 1000
next table: 1035
cur table: 1037
epoch: 1000
next table: 2539
cur table: 2504
epoch: 1000
next table: 1040
cur table: 1035
epoch: 1000
next table: 2502
cur table: 2539
epoch: 1000
next table: 1034
cur table: 1040
epoch: 1000
next table: 2580
cur table: 2502
epoch: 1000
next table: 1034
cur table: 1034
epoch: 1000
next table: 2503
cur table: 2580
epoch: 1000
next table: 1036
cur table: 1034
Heartbeat CPU 0 instructions: 60000000 cycles: 24544719 heartbeat IPC: 1.00085 cumulative IPC: 1.00085 (Simulation time: 0 hr 29 min 37 sec) 
epoch: 1000
next table: 2536
cur table: 2503
epoch: 1000
next table: 1040
cur table: 1036
epoch: 1000
next table: 2502
cur table: 2536
epoch: 1000
next table: 1033
cur table: 1040
epoch: 1000
next table: 2492
cur table: 2502
epoch: 1000
next table: 1033
cur table: 1033
epoch: 1000
next table: 2508
cur table: 2492
epoch: 1000
next table: 1035
cur table: 1033
epoch: 1000
next table: 2533
cur table: 2508
epoch: 1000
next table: 1051
cur table: 1035
epoch: 1000
next table: 2508
cur table: 2533
epoch: 1000
next table: 1034
cur table: 1051
epoch: 1000
next table: 2531
cur table: 2508
epoch: 1000
next table: 1035
cur table: 1034
epoch: 1000
next table: 2503
cur table: 2531
epoch: 1000
next table: 1037
cur table: 1035
epoch: 1000
next table: 2539
cur table: 2503
epoch: 1000
next table: 1035
cur table: 1037
epoch: 1000
next table: 2502
cur table: 2539
epoch: 1000
next table: 1034
cur table: 1035
epoch: 1000
next table: 2534
cur table: 2502
epoch: 1000
next table: 1034
cur table: 1034
epoch: 1000
next table: 2505
cur table: 2534
epoch: 1000
next table: 1034
cur table: 1034
epoch: 1000
next table: 2534
cur table: 2505
epoch: 1000
next table: 1037
cur table: 1034
epoch: 1000
next table: 2509
cur table: 2534
epoch: 1000
next table: 1036
cur table: 1037
epoch: 1000
next table: 2530
cur table: 2509
epoch: 1000
next table: 1033
cur table: 1036
epoch: 1000
next table: 2504
cur table: 2530
epoch: 1000
next table: 1034
cur table: 1033
epoch: 1000
next table: 2534
cur table: 2504
epoch: 1000
next table: 1037
cur table: 1034
epoch: 1000
next table: 2507
cur table: 2534
epoch: 1000
next table: 1037
cur table: 1037
epoch: 1000
next table: 2538
cur table: 2507
epoch: 1000
next table: 1035
cur table: 1037
epoch: 1000
next table: 2503
cur table: 2538
epoch: 1000
next table: 1036
cur table: 1035
epoch: 1000
next table: 2533
cur table: 2503
epoch: 1000
next table: 1037
cur table: 1036
epoch: 1000
next table: 2549
cur table: 2533
epoch: 1000
next table: 1034
cur table: 1037
epoch: 1000
next table: 2488
cur table: 2549
epoch: 1000
next table: 1036
cur table: 1034
epoch: 1000
next table: 2504
cur table: 2488
epoch: 1000
next table: 1035
cur table: 1036
epoch: 1000
next table: 2535
cur table: 2504
epoch: 1000
next table: 1042
cur table: 1035
epoch: 1000
next table: 2509
cur table: 2535
epoch: 1000
next table: 1034
cur table: 1042
epoch: 1000
next table: 2531
cur table: 2509
epoch: 1000
next table: 1036
cur table: 1034
epoch: 1000
next table: 2510
cur table: 2531
epoch: 1000
next table: 1035
cur table: 1036
epoch: 1000
next table: 2531
cur table: 2510
epoch: 1000
next table: 1040
cur table: 1035
epoch: 1000
next table: 2549
cur table: 2531
epoch: 1000
next table: 1034
cur table: 1040
epoch: 1000
next table: 2487
cur table: 2549
epoch: 1000
next table: 1035
cur table: 1034
epoch: 1000
next table: 2505
cur table: 2487
epoch: 1000
next table: 1035
cur table: 1035
epoch: 1000
next table: 2536
cur table: 2505
epoch: 1000
next table: 1040
cur table: 1035
epoch: 1000
next table: 2504
cur table: 2536
epoch: 1000
next table: 1035
cur table: 1040
epoch: 1000
next table: 2535
cur table: 2504
epoch: 1000
next table: 1035
cur table: 1035
epoch: 1000
next table: 2509
cur table: 2535
epoch: 1000
next table: 1033
cur table: 1035
epoch: 1000
next table: 2534
cur table: 2509
epoch: 1000
next table: 1039
cur table: 1033
epoch: 1000
next table: 2547
cur table: 2534
epoch: 1000
next table: 1036
cur table: 1039
epoch: 1000
next table: 2485
cur table: 2547
epoch: 1000
next table: 1035
cur table: 1036
epoch: 1000
next table: 2506
cur table: 2485
epoch: 1000
next table: 1034
cur table: 1035
epoch: 1000
next table: 2535
cur table: 2506
epoch: 1000
next table: 1037
cur table: 1034
epoch: 1000
next table: 2505
cur table: 2535
epoch: 1000
next table: 1035
cur table: 1037
epoch: 1000
next table: 2536
cur table: 2505
epoch: 1000
next table: 1036
cur table: 1035
epoch: 1000
next table: 2549
cur table: 2536
epoch: 1000
next table: 1035
cur table: 1036
epoch: 1000
next table: 2495
cur table: 2549
epoch: 1000
next table: 1042
cur table: 1035
epoch: 1000
next table: 2546
cur table: 2495
epoch: 1000
next table: 1035
cur table: 1042
epoch: 1000
next table: 2487
cur table: 2546
epoch: 1000
next table: 1035
cur table: 1035
epoch: 1000
next table: 2504
cur table: 2487
epoch: 1000
next table: 1033
cur table: 1035
epoch: 1000
next table: 2536
cur table: 2504
epoch: 1000
next table: 1044
cur table: 1033
epoch: 1000
next table: 2504
cur table: 2536
epoch: 1000
next table: 1035
cur table: 1044
epoch: 1000
next table: 2537
cur table: 2504
epoch: 1000
next table: 1034
cur table: 1035
epoch: 1000
next table: 2504
cur table: 2537
epoch: 1000
next table: 1035
cur table: 1034
epoch: 1000
next table: 2537
cur table: 2504
epoch: 1000
next table: 1039
cur table: 1035
epoch: 1000
next table: 2547
cur table: 2537
epoch: 1000
next table: 1034
cur table: 1039
epoch: 1000
next table: 2487
cur table: 2547
epoch: 1000
next table: 1033
cur table: 1034
epoch: 1000
next table: 2507
cur table: 2487
epoch: 1000
next table: 1035
cur table: 1033
epoch: 1000
next table: 2533
cur table: 2507
epoch: 1000
next table: 1037
cur table: 1035
epoch: 1000
next table: 2504
cur table: 2533
epoch: 1000
next table: 1035
cur table: 1037
epoch: 1000
next table: 2538
cur table: 2504
epoch: 1000
next table: 1034
cur table: 1035
epoch: 1000
next table: 2547
cur table: 2538
epoch: 1000
next table: 1033
cur table: 1034
epoch: 1000
next table: 2537
cur table: 2547
epoch: 1000
next table: 1038
cur table: 1033
epoch: 1000
next table: 2504
cur table: 2537
epoch: 1000
next table: 1036
cur table: 1038
epoch: 1000
next table: 2487
cur table: 2504
epoch: 1000
next table: 1035
cur table: 1036
epoch: 1000
next table: 2505
cur table: 2487
epoch: 1000
next table: 1034
cur table: 1035
epoch: 1000
next table: 2532
cur table: 2505
epoch: 1000
next table: 1039
cur table: 1034
epoch: 1000
next table: 2507
cur table: 2532
epoch: 1000
next table: 1035
cur table: 1039
epoch: 1000
next table: 2539
cur table: 2507
epoch: 1000
next table: 1036
cur table: 1035
epoch: 1000
next table: 2505
cur table: 2539
epoch: 1000
next table: 1036
cur table: 1036
epoch: 1000
next table: 2531
cur table: 2505
epoch: 1000
next table: 1038
cur table: 1036
epoch: 1000
next table: 2549
cur table: 2531
epoch: 1000
next table: 1034
cur table: 1038
epoch: 1000
next table: 2488
cur table: 2549
epoch: 1000
next table: 1037
cur table: 1034
epoch: 1000
next table: 2504
cur table: 2488
epoch: 1000
next table: 1035
cur table: 1037
epoch: 1000
next table: 2535
cur table: 2504
epoch: 1000
next table: 1034
cur table: 1035
epoch: 1000
next table: 2508
cur table: 2535
epoch: 1000
next table: 1035
cur table: 1034
epoch: 1000
next table: 2532
cur table: 2508
epoch: 1000
next table: 1037
cur table: 1035
epoch: 1000
next table: 2550
cur table: 2532
epoch: 1000
next table: 1035
cur table: 1037
epoch: 1000
next table: 2490
cur table: 2550
epoch: 1000
next table: 1041
cur table: 1035
epoch: 1000
next table: 2549
cur table: 2490
epoch: 1000
next table: 1033
cur table: 1041
epoch: 1000
next table: 2488
cur table: 2549
epoch: 1000
next table: 1034
cur table: 1033
epoch: 1000
next table: 2506
cur table: 2488
epoch: 1000
next table: 1036
cur table: 1034
epoch: 1000
next table: 2534
cur table: 2506
epoch: 1000
next table: 1042
cur table: 1036
epoch: 1000
next table: 2508
cur table: 2534
epoch: 1000
next table: 1034
cur table: 1042
epoch: 1000
next table: 2532
cur table: 2508
epoch: 1000
next table: 1034
cur table: 1034
epoch: 1000
next table: 2509
cur table: 2532
epoch: 1000
next table: 1032
cur table: 1034
epoch: 1000
next table: 2533
cur table: 2509
epoch: 1000
next table: 1045
cur table: 1032
epoch: 1000
next table: 2503
cur table: 2533
epoch: 1000
next table: 1034
cur table: 1045
epoch: 1000
next table: 2529
cur table: 2503
epoch: 1000
next table: 1035
cur table: 1034
epoch: 1000
next table: 2506
cur table: 2529
epoch: 1000
next table: 1034
cur table: 1035
epoch: 1000
next table: 2535
cur table: 2506
Heartbeat CPU 0 instructions: 70000001 cycles: 34528404 heartbeat IPC: 1.00163 cumulative IPC: 1.00124 (Simulation time: 0 hr 35 min 36 sec) 
epoch: 1000
next table: 1040
cur table: 1034
epoch: 1000
next table: 2504
cur table: 2535
epoch: 1000
next table: 1035
cur table: 1040
epoch: 1000
next table: 2537
cur table: 2504
epoch: 1000
next table: 1036
cur table: 1035
epoch: 1000
next table: 2503
cur table: 2537
epoch: 1000
next table: 1036
cur table: 1036
epoch: 1000
next table: 2538
cur table: 2503
epoch: 1000
next table: 1039
cur table: 1036
epoch: 1000
next table: 2503
cur table: 2538
epoch: 1000
next table: 1034
cur table: 1039
epoch: 1000
next table: 2487
cur table: 2503
epoch: 1000
next table: 1036
cur table: 1034
epoch: 1000
next table: 2549
cur table: 2487
epoch: 1000
next table: 1035
cur table: 1036
epoch: 1000
next table: 2494
cur table: 2549
epoch: 1000
next table: 1040
cur table: 1035
epoch: 1000
next table: 2546
cur table: 2494
epoch: 1000
next table: 1033
cur table: 1040
epoch: 1000
next table: 2536
cur table: 2546
epoch: 1000
next table: 1037
cur table: 1033
epoch: 1000
next table: 2504
cur table: 2536
epoch: 1000
next table: 1035
cur table: 1037
epoch: 1000
next table: 2534
cur table: 2504
epoch: 1000
next table: 1041
cur table: 1035
epoch: 1000
next table: 2503
cur table: 2534
epoch: 1000
next table: 1034
cur table: 1041
epoch: 1000
next table: 2489
cur table: 2503
epoch: 1000
next table: 1033
cur table: 1034
epoch: 1000
next table: 2504
cur table: 2489
epoch: 1000
next table: 1034
cur table: 1033
epoch: 1000
next table: 2536
cur table: 2504
epoch: 1000
next table: 1044
cur table: 1034
epoch: 1000
next table: 2506
cur table: 2536
epoch: 1000
next table: 1035
cur table: 1044
epoch: 1000
next table: 2578
cur table: 2506
epoch: 1000
next table: 1035
cur table: 1035
epoch: 1000
next table: 2505
cur table: 2578
epoch: 1000
next table: 1034
cur table: 1035
epoch: 1000
next table: 2536
cur table: 2505
epoch: 1000
next table: 1042
cur table: 1034
epoch: 1000
next table: 2503
cur table: 2536
epoch: 1000
next table: 1035
cur table: 1042
epoch: 1000
next table: 2487
cur table: 2503
epoch: 1000
next table: 1035
cur table: 1035
epoch: 1000
next table: 2506
cur table: 2487
epoch: 1000
next table: 1033
cur table: 1035
epoch: 1000
next table: 2535
cur table: 2506
epoch: 1000
next table: 1040
cur table: 1033
epoch: 1000
next table: 2507
cur table: 2535
epoch: 1000
next table: 1035
cur table: 1040
epoch: 1000
next table: 2534
cur table: 2507
epoch: 1000
next table: 1036
cur table: 1035
epoch: 1000
next table: 2550
cur table: 2534
epoch: 1000
next table: 1034
cur table: 1036
epoch: 1000
next table: 2494
cur table: 2550
epoch: 1000
next table: 1042
cur table: 1034
epoch: 1000
next table: 2547
cur table: 2494
epoch: 1000
next table: 1035
cur table: 1042
epoch: 1000
next table: 2485
cur table: 2547
epoch: 1000
next table: 1033
cur table: 1035
epoch: 1000
next table: 2505
cur table: 2485
epoch: 1000
next table: 1035
cur table: 1033
epoch: 1000
next table: 2535
cur table: 2505
epoch: 1000
next table: 1038
cur table: 1035
epoch: 1000
next table: 2504
cur table: 2535
epoch: 1000
next table: 1033
cur table: 1038
epoch: 1000
next table: 2537
cur table: 2504
epoch: 1000
next table: 1035
cur table: 1033
epoch: 1000
next table: 2503
cur table: 2537
epoch: 1000
next table: 1035
cur table: 1035
epoch: 1000
next table: 2542
cur table: 2503
epoch: 1000
next table: 1038
cur table: 1035
epoch: 1000
next table: 2546
cur table: 2542
epoch: 1000
next table: 1034
cur table: 1038
epoch: 1000
next table: 2487
cur table: 2546
epoch: 1000
next table: 1033
cur table: 1034
epoch: 1000
next table: 2502
cur table: 2487
epoch: 1000
next table: 1035
cur table: 1033
epoch: 1000
next table: 2537
cur table: 2502
epoch: 1000
next table: 1037
cur table: 1035
epoch: 1000
next table: 2503
cur table: 2537
epoch: 1000
next table: 1035
cur table: 1037
epoch: 1000
next table: 2536
cur table: 2503
epoch: 1000
next table: 1036
cur table: 1035
epoch: 1000
next table: 2503
cur table: 2536
epoch: 1000
next table: 1033
cur table: 1036
epoch: 1000
next table: 2536
cur table: 2503
epoch: 1000
next table: 1040
cur table: 1033
epoch: 1000
next table: 2504
cur table: 2536
epoch: 1000
next table: 1035
cur table: 1040
epoch: 1000
next table: 2535
cur table: 2504
epoch: 1000
next table: 1035
cur table: 1035
epoch: 1000
next table: 2502
cur table: 2535
epoch: 1000
next table: 1034
cur table: 1035
epoch: 1000
next table: 2534
cur table: 2502
epoch: 1000
next table: 1038
cur table: 1034
epoch: 1000
next table: 2507
cur table: 2534
epoch: 1000
next table: 1035
cur table: 1038
epoch: 1000
next table: 2487
cur table: 2507
epoch: 1000
next table: 1036
cur table: 1035
epoch: 1000
next table: 2510
cur table: 2487
epoch: 1000
next table: 1036
cur table: 1036
epoch: 1000
next table: 2531
cur table: 2510
epoch: 1000
next table: 1039
cur table: 1036
epoch: 1000
next table: 2505
cur table: 2531
epoch: 1000
next table: 1034
cur table: 1039
epoch: 1000
next table: 2580
cur table: 2505
epoch: 1000
next table: 1035
cur table: 1034
epoch: 1000
next table: 2503
cur table: 2580
epoch: 1000
next table: 1035
cur table: 1035
epoch: 1000
next table: 2535
cur table: 2503
epoch: 1000
next table: 1039
cur table: 1035
epoch: 1000
next table: 2505
cur table: 2535
epoch: 1000
next table: 1035
cur table: 1039
epoch: 1000
next table: 2487
cur table: 2505
epoch: 1000
next table: 1036
cur table: 1035
epoch: 1000
next table: 2510
cur table: 2487
epoch: 1000
next table: 1035
cur table: 1036
epoch: 1000
next table: 2532
cur table: 2510
epoch: 1000
next table: 1040
cur table: 1035
epoch: 1000
next table: 2502
cur table: 2532
epoch: 1000
next table: 1034
cur table: 1040
epoch: 1000
next table: 2582
cur table: 2502
epoch: 1000
next table: 1034
cur table: 1034
epoch: 1000
next table: 2503
cur table: 2582
epoch: 1000
next table: 1036
cur table: 1034
epoch: 1000
next table: 2536
cur table: 2503
epoch: 1000
next table: 1040
cur table: 1036
epoch: 1000
next table: 2502
cur table: 2536
epoch: 1000
next table: 1034
cur table: 1040
epoch: 1000
next table: 2490
cur table: 2502
epoch: 1000
next table: 1032
cur table: 1034
epoch: 1000
next table: 2504
cur table: 2490
epoch: 1000
next table: 1033
cur table: 1032
epoch: 1000
next table: 2535
cur table: 2504
epoch: 1000
next table: 1041
cur table: 1033
epoch: 1000
next table: 2509
cur table: 2535
epoch: 1000
next table: 1036
cur table: 1041
epoch: 1000
next table: 2532
cur table: 2509
epoch: 1000
next table: 1034
cur table: 1036
epoch: 1000
next table: 2550
cur table: 2532
epoch: 1000
next table: 1034
cur table: 1034
epoch: 1000
next table: 2536
cur table: 2550
epoch: 1000
next table: 1035
cur table: 1034
epoch: 1000
next table: 2502
cur table: 2536
epoch: 1000
next table: 1035
cur table: 1035
epoch: 1000
next table: 2489
cur table: 2502
epoch: 1000
next table: 1039
cur table: 1035
epoch: 1000
next table: 2505
cur table: 2489
epoch: 1000
next table: 1040
cur table: 1039
epoch: 1000
next table: 2504
cur table: 2505
epoch: 1000
next table: 1039
cur table: 1040
epoch: 1000
next table: 2539
cur table: 2504
epoch: 1000
next table: 1034
cur table: 1039
epoch: 1000
next table: 2501
cur table: 2539
epoch: 1000
next table: 1035
cur table: 1034
epoch: 1000
next table: 2580
cur table: 2501
epoch: 1000
next table: 1035
cur table: 1035
epoch: 1000
next table: 2536
cur table: 2580
epoch: 1000
next table: 1037
cur table: 1035
epoch: 1000
next table: 2503
cur table: 2536
epoch: 1000
next table: 1033
cur table: 1037
epoch: 1000
next table: 2509
cur table: 2503
epoch: 1000
next table: 1034
cur table: 1033
epoch: 1000
next table: 2485
cur table: 2509
epoch: 1000
next table: 1035
cur table: 1034
epoch: 1000
next table: 2549
cur table: 2485
epoch: 1000
next table: 1038
cur table: 1035
epoch: 1000
next table: 2537
cur table: 2549
epoch: 1000
next table: 1035
cur table: 1038
epoch: 1000
next table: 2504
cur table: 2537
epoch: 1000
next table: 1034
cur table: 1035
epoch: 1000
next table: 2533
cur table: 2504
epoch: 1000
next table: 1035
cur table: 1034
epoch: 1000
next table: 2507
cur table: 2533
Heartbeat CPU 0 instructions: 80000002 cycles: 44510459 heartbeat IPC: 1.0018 cumulative IPC: 1.00143 (Simulation time: 0 hr 41 min 8 sec) 
epoch: 1000
next table: 1037
cur table: 1035
epoch: 1000
next table: 2534
cur table: 2507
epoch: 1000
next table: 1034
cur table: 1037
epoch: 1000
next table: 2508
cur table: 2534
epoch: 1000
next table: 1033
cur table: 1034
epoch: 1000
next table: 2488
cur table: 2508
epoch: 1000
next table: 1035
cur table: 1033
epoch: 1000
next table: 2547
cur table: 2488
epoch: 1000
next table: 1036
cur table: 1035
epoch: 1000
next table: 2533
cur table: 2547
epoch: 1000
next table: 1035
cur table: 1036
epoch: 1000
next table: 2505
cur table: 2533
epoch: 1000
next table: 1034
cur table: 1035
epoch: 1000
next table: 2538
cur table: 2505
epoch: 1000
next table: 1033
cur table: 1034
epoch: 1000
next table: 2502
cur table: 2538
epoch: 1000
next table: 1036
cur table: 1033
epoch: 1000
next table: 2535
cur table: 2502
epoch: 1000
next table: 1036
cur table: 1036
epoch: 1000
next table: 2504
cur table: 2535
epoch: 1000
next table: 1035
cur table: 1036
epoch: 1000
next table: 2534
cur table: 2504
epoch: 1000
next table: 1033
cur table: 1035
epoch: 1000
next table: 2505
cur table: 2534
epoch: 1000
next table: 1039
cur table: 1033
epoch: 1000
next table: 2535
cur table: 2505
epoch: 1000
next table: 1033
cur table: 1039
epoch: 1000
next table: 2503
cur table: 2535
epoch: 1000
next table: 1036
cur table: 1033
epoch: 1000
next table: 2537
cur table: 2503
epoch: 1000
next table: 1035
cur table: 1036
epoch: 1000
next table: 2508
cur table: 2537
epoch: 1000
next table: 1040
cur table: 1035
epoch: 1000
next table: 2531
cur table: 2508
epoch: 1000
next table: 1033
cur table: 1040
epoch: 1000
next table: 2510
cur table: 2531
epoch: 1000
next table: 1036
cur table: 1033
epoch: 1000
next table: 2528
cur table: 2510
epoch: 1000
next table: 1035
cur table: 1036
epoch: 1000
next table: 2504
cur table: 2528
epoch: 1000
next table: 1056
cur table: 1035
epoch: 1000
next table: 2497
cur table: 2504
epoch: 1000
next table: 1034
cur table: 1056
epoch: 1000
next table: 2503
cur table: 2497
epoch: 1000
next table: 1034
cur table: 1034
epoch: 1000
next table: 2582
cur table: 2503
epoch: 1000
next table: 1035
cur table: 1034
epoch: 1000
next table: 2503
cur table: 2582
epoch: 1000
next table: 1036
cur table: 1035
epoch: 1000
next table: 2534
cur table: 2503
epoch: 1000
next table: 1035
cur table: 1036
epoch: 1000
next table: 2505
cur table: 2534
epoch: 1000
next table: 1036
cur table: 1035
epoch: 1000
next table: 2489
cur table: 2505
epoch: 1000
next table: 1034
cur table: 1036
epoch: 1000
next table: 2507
cur table: 2489
epoch: 1000
next table: 1037
cur table: 1034
epoch: 1000
next table: 2536
cur table: 2507
epoch: 1000
next table: 1036
cur table: 1037
epoch: 1000
next table: 2501
cur table: 2536
epoch: 1000
next table: 1035
cur table: 1036
epoch: 1000
next table: 2580
cur table: 2501
epoch: 1000
next table: 1034
cur table: 1035
epoch: 1000
next table: 2504
cur table: 2580
epoch: 1000
next table: 1037
cur table: 1034
epoch: 1000
next table: 2533
cur table: 2504
epoch: 1000
next table: 1035
cur table: 1037
epoch: 1000
next table: 2507
cur table: 2533
epoch: 1000
next table: 1036
cur table: 1035
epoch: 1000
next table: 2488
cur table: 2507
epoch: 1000
next table: 1034
cur table: 1036
epoch: 1000
next table: 2506
cur table: 2488
epoch: 1000
next table: 1034
cur table: 1034
epoch: 1000
next table: 2579
cur table: 2506
epoch: 1000
next table: 1035
cur table: 1034
epoch: 1000
next table: 2505
cur table: 2579
epoch: 1000
next table: 1038
cur table: 1035
epoch: 1000
next table: 2535
cur table: 2505
epoch: 1000
next table: 1035
cur table: 1038
epoch: 1000
next table: 2504
cur table: 2535
epoch: 1000
next table: 1038
cur table: 1035
epoch: 1000
next table: 2536
cur table: 2504
epoch: 1000
next table: 1035
cur table: 1038
epoch: 1000
next table: 2509
cur table: 2536
epoch: 1000
next table: 1035
cur table: 1035
epoch: 1000
next table: 2485
cur table: 2509
epoch: 1000
next table: 1035
cur table: 1035
epoch: 1000
next table: 2549
cur table: 2485
epoch: 1000
next table: 1037
cur table: 1035
epoch: 1000
next table: 2537
cur table: 2549
epoch: 1000
next table: 1033
cur table: 1037
epoch: 1000
next table: 2504
cur table: 2537
epoch: 1000
next table: 1034
cur table: 1033
epoch: 1000
next table: 2533
cur table: 2504
epoch: 1000
next table: 1034
cur table: 1034
epoch: 1000
next table: 2511
cur table: 2533
epoch: 1000
next table: 1039
cur table: 1034
epoch: 1000
next table: 2530
cur table: 2511
epoch: 1000
next table: 1033
cur table: 1039
epoch: 1000
next table: 2510
cur table: 2530
epoch: 1000
next table: 1033
cur table: 1033
epoch: 1000
next table: 2529
cur table: 2510
epoch: 1000
next table: 1033
cur table: 1033
epoch: 1000
next table: 2504
cur table: 2529
epoch: 1000
next table: 1040
cur table: 1033
epoch: 1000
next table: 2533
cur table: 2504
epoch: 1000
next table: 1036
cur table: 1040
epoch: 1000
next table: 2505
cur table: 2533
epoch: 1000
next table: 1034
cur table: 1036
epoch: 1000
next table: 2539
cur table: 2505
epoch: 1000
next table: 1034
cur table: 1034
epoch: 1000
next table: 2502
cur table: 2539
epoch: 1000
next table: 1038
cur table: 1034
epoch: 1000
next table: 2535
cur table: 2502
epoch: 1000
next table: 1035
cur table: 1038
epoch: 1000
next table: 2549
cur table: 2535
epoch: 1000
next table: 1038
cur table: 1035
epoch: 1000
next table: 2489
cur table: 2549
epoch: 1000
next table: 1035
cur table: 1038
epoch: 1000
next table: 2505
cur table: 2489
epoch: 1000
next table: 1039
cur table: 1035
epoch: 1000
next table: 2533
cur table: 2505
epoch: 1000
next table: 1034
cur table: 1039
epoch: 1000
next table: 2508
cur table: 2533
epoch: 1000
next table: 1035
cur table: 1034
epoch: 1000
next table: 2533
cur table: 2508
epoch: 1000
next table: 1035
cur table: 1035
epoch: 1000
next table: 2507
cur table: 2533
epoch: 1000
next table: 1034
cur table: 1035
epoch: 1000
next table: 2578
cur table: 2507
epoch: 1000
next table: 1034
cur table: 1034
epoch: 1000
next table: 2502
cur table: 2578
epoch: 1000
next table: 1035
cur table: 1034
epoch: 1000
next table: 2491
cur table: 2502
epoch: 1000
next table: 1035
cur table: 1035
epoch: 1000
next table: 2503
cur table: 2491
epoch: 1000
next table: 1036
cur table: 1035
epoch: 1000
next table: 2535
cur table: 2503
epoch: 1000
next table: 1034
cur table: 1036
epoch: 1000
next table: 2509
cur table: 2535
epoch: 1000
next table: 1034
cur table: 1034
epoch: 1000
next table: 2576
cur table: 2509
epoch: 1000
next table: 1035
cur table: 1034
epoch: 1000
next table: 2505
cur table: 2576
epoch: 1000
next table: 1038
cur table: 1035
epoch: 1000
next table: 2536
cur table: 2505
epoch: 1000
next table: 1034
cur table: 1038
epoch: 1000
next table: 2503
cur table: 2536
epoch: 1000
next table: 1035
cur table: 1034
epoch: 1000
next table: 2493
cur table: 2503
epoch: 1000
next table: 1035
cur table: 1035
epoch: 1000
next table: 2501
cur table: 2493
epoch: 1000
next table: 1039
cur table: 1035
epoch: 1000
next table: 2537
cur table: 2501
epoch: 1000
next table: 1035
cur table: 1039
epoch: 1000
next table: 2550
cur table: 2537
epoch: 1000
next table: 1036
cur table: 1035
epoch: 1000
next table: 2535
cur table: 2550
epoch: 1000
next table: 1033
cur table: 1036
epoch: 1000
next table: 2502
cur table: 2535
epoch: 1000
next table: 1038
cur table: 1033
epoch: 1000
next table: 2537
cur table: 2502
epoch: 1000
next table: 1035
cur table: 1038
epoch: 1000
next table: 2503
cur table: 2537
epoch: 1000
next table: 1034
cur table: 1035
epoch: 1000
next table: 2491
cur table: 2503
epoch: 1000
next table: 1035
cur table: 1034
epoch: 1000
next table: 2505
cur table: 2491
epoch: 1000
next table: 1037
cur table: 1035
epoch: 1000
next table: 2532
cur table: 2505
epoch: 1000
next table: 1034
cur table: 1037
epoch: 1000
next table: 2549
cur table: 2532
epoch: 1000
next table: 1036
cur table: 1034
epoch: 1000
next table: 2490
cur table: 2549
epoch: 1000
next table: 1035
cur table: 1036
epoch: 1000
next table: 2505
cur table: 2490
Heartbeat CPU 0 instructions: 90000003 cycles: 54493402 heartbeat IPC: 1.00171 cumulative IPC: 1.0015 (Simulation time: 0 hr 46 min 19 sec) 
epoch: 1000
next table: 1036
cur table: 1035
epoch: 1000
next table: 2534
cur table: 2505
epoch: 1000
next table: 1033
cur table: 1036
epoch: 1000
next table: 2507
cur table: 2534
epoch: 1000
next table: 1035
cur table: 1033
epoch: 1000
next table: 2531
cur table: 2507
epoch: 1000
next table: 1035
cur table: 1035
epoch: 1000
next table: 2510
cur table: 2531
epoch: 1000
next table: 1037
cur table: 1035
epoch: 1000
next table: 2530
cur table: 2510
epoch: 1000
next table: 1035
cur table: 1037
epoch: 1000
next table: 2549
cur table: 2530
epoch: 1000
next table: 1034
cur table: 1035
epoch: 1000
next table: 2486
cur table: 2549
epoch: 1000
next table: 1036
cur table: 1034
epoch: 1000
next table: 2505
cur table: 2486
epoch: 1000
next table: 1038
cur table: 1036
epoch: 1000
next table: 2535
cur table: 2505
epoch: 1000
next table: 1035
cur table: 1038
epoch: 1000
next table: 2504
cur table: 2535
epoch: 1000
next table: 1034
cur table: 1035
epoch: 1000
next table: 2535
cur table: 2504
epoch: 1000
next table: 1035
cur table: 1034
epoch: 1000
next table: 2506
cur table: 2535
epoch: 1000
next table: 1039
cur table: 1035
epoch: 1000
next table: 2538
cur table: 2506
epoch: 1000
next table: 1035
cur table: 1039
epoch: 1000
next table: 2547
cur table: 2538
epoch: 1000
next table: 1033
cur table: 1035
epoch: 1000
next table: 2486
cur table: 2547
epoch: 1000
next table: 1033
cur table: 1033
epoch: 1000
next table: 2506
cur table: 2486
epoch: 1000
next table: 1041
cur table: 1033
epoch: 1000
next table: 2536
cur table: 2506
epoch: 1000
next table: 1045
cur table: 1041
epoch: 1000
next table: 2504
cur table: 2536
epoch: 1000
next table: 1037
cur table: 1045
epoch: 1000
next table: 2537
cur table: 2504
epoch: 1000
next table: 1034
cur table: 1037
epoch: 1000
next table: 2504
cur table: 2537
epoch: 1000
next table: 1036
cur table: 1034
epoch: 1000
next table: 2539
cur table: 2504
epoch: 1000
next table: 1035
cur table: 1036
epoch: 1000
next table: 2547
cur table: 2539
epoch: 1000
next table: 1035
cur table: 1035
epoch: 1000
next table: 2486
cur table: 2547
epoch: 1000
next table: 1036
cur table: 1035
epoch: 1000
next table: 2503
cur table: 2486
epoch: 1000
next table: 1035
cur table: 1036
epoch: 1000
next table: 2537
cur table: 2503
epoch: 1000
next table: 1034
cur table: 1035
epoch: 1000
next table: 2509
cur table: 2537
epoch: 1000
next table: 1036
cur table: 1034
epoch: 1000
next table: 2532
cur table: 2509
epoch: 1000
next table: 1033
cur table: 1036
epoch: 1000
next table: 2549
cur table: 2532
epoch: 1000
next table: 1039
cur table: 1033
epoch: 1000
next table: 2535
cur table: 2549
epoch: 1000
next table: 1034
cur table: 1039
epoch: 1000
next table: 2504
cur table: 2535
epoch: 1000
next table: 1034
cur table: 1034
epoch: 1000
next table: 2488
cur table: 2504
epoch: 1000
next table: 1034
cur table: 1034
epoch: 1000
next table: 2508
cur table: 2488
epoch: 1000
next table: 1035
cur table: 1034
epoch: 1000
next table: 2530
cur table: 2508
epoch: 1000
next table: 1041
cur table: 1035
epoch: 1000
next table: 2507
cur table: 2530
epoch: 1000
next table: 1033
cur table: 1041
epoch: 1000
next table: 2538
cur table: 2507
epoch: 1000
next table: 1033
cur table: 1033
epoch: 1000
next table: 2503
cur table: 2538
epoch: 1000
next table: 1042
cur table: 1033
epoch: 1000
next table: 2533
cur table: 2503
epoch: 1000
next table: 1035
cur table: 1042
epoch: 1000
next table: 2550
cur table: 2533
epoch: 1000
next table: 1034
cur table: 1035
epoch: 1000
next table: 2486
cur table: 2550
epoch: 1000
next table: 1034
cur table: 1034
epoch: 1000
next table: 2504
cur table: 2486
epoch: 1000
next table: 1035
cur table: 1034
epoch: 1000
next table: 2533
cur table: 2504
epoch: 1000
next table: 1037
cur table: 1035
epoch: 1000
next table: 2507
cur table: 2533
epoch: 1000
next table: 1034
cur table: 1037
epoch: 1000
next table: 2538
cur table: 2507
epoch: 1000
next table: 1034
cur table: 1034
epoch: 1000
next table: 2505
cur table: 2538
epoch: 1000
next table: 1034
cur table: 1034
epoch: 1000
next table: 2532
cur table: 2505
epoch: 1000
next table: 1040
cur table: 1034
epoch: 1000
next table: 2549
cur table: 2532
epoch: 1000
next table: 1035
cur table: 1040
epoch: 1000
next table: 2489
cur table: 2549
epoch: 1000
next table: 1036
cur table: 1035
epoch: 1000
next table: 2504
cur table: 2489
epoch: 1000
next table: 1033
cur table: 1036
epoch: 1000
next table: 2535
cur table: 2504
epoch: 1000
next table: 1037
cur table: 1033
epoch: 1000
next table: 2509
cur table: 2535
epoch: 1000
next table: 1035
cur table: 1037
epoch: 1000
next table: 2532
cur table: 2509
epoch: 1000
next table: 1035
cur table: 1035
epoch: 1000
next table: 2509
cur table: 2532
epoch: 1000
next table: 1034
cur table: 1035
epoch: 1000
next table: 2579
cur table: 2509
epoch: 1000
next table: 1034
cur table: 1034
epoch: 1000
next table: 2502
cur table: 2579
epoch: 1000
next table: 1035
cur table: 1034
epoch: 1000
next table: 2486
cur table: 2502
epoch: 1000
next table: 1035
cur table: 1035
epoch: 1000
next table: 2510
cur table: 2486
epoch: 1000
next table: 1035
cur table: 1035
epoch: 1000
next table: 2530
cur table: 2510
epoch: 1000
next table: 1034
cur table: 1035
epoch: 1000
next table: 2510
cur table: 2530
epoch: 1000
next table: 1034
cur table: 1034
epoch: 1000
next table: 2576
cur table: 2510
epoch: 1000
next table: 1035
cur table: 1034
epoch: 1000
next table: 2505
cur table: 2576
epoch: 1000
next table: 1035
cur table: 1035
epoch: 1000
next table: 2536
cur table: 2505
epoch: 1000
next table: 1040
cur table: 1035
epoch: 1000
next table: 2503
cur table: 2536
epoch: 1000
next table: 1033
cur table: 1040
epoch: 1000
next table: 2491
cur table: 2503
epoch: 1000
next table: 1032
cur table: 1033
epoch: 1000
next table: 2502
cur table: 2491
epoch: 1000
next table: 1035
cur table: 1032
epoch: 1000
next table: 2534
cur table: 2502
epoch: 1000
next table: 1039
cur table: 1035
epoch: 1000
next table: 2505
cur table: 2534
epoch: 1000
next table: 1035
cur table: 1039
epoch: 1000
next table: 2582
cur table: 2505
epoch: 1000
next table: 1034
cur table: 1035
epoch: 1000
next table: 2502
cur table: 2582
epoch: 1000
next table: 1034
cur table: 1034
epoch: 1000
next table: 2537
cur table: 2502
epoch: 1000
next table: 1039
cur table: 1034
epoch: 1000
next table: 2503
cur table: 2537
epoch: 1000
next table: 1036
cur table: 1039
epoch: 1000
next table: 2487
cur table: 2503
epoch: 1000
next table: 1035
cur table: 1036
epoch: 1000
next table: 2508
cur table: 2487
epoch: 1000
next table: 1036
cur table: 1035
epoch: 1000
next table: 2531
cur table: 2508
epoch: 1000
next table: 1038
cur table: 1036
epoch: 1000
next table: 2504
cur table: 2531
epoch: 1000
next table: 1035
cur table: 1038
epoch: 1000
next table: 2583
cur table: 2504
epoch: 1000
next table: 1035
cur table: 1035
epoch: 1000
next table: 2502
cur table: 2583
epoch: 1000
next table: 1035
cur table: 1035
epoch: 1000
next table: 2536
cur table: 2502
epoch: 1000
next table: 1039
cur table: 1035
epoch: 1000
next table: 2504
cur table: 2536
epoch: 1000
next table: 1035
cur table: 1039
epoch: 1000
next table: 2488
cur table: 2504
epoch: 1000
next table: 1036
cur table: 1035
epoch: 1000
next table: 2509
cur table: 2488
epoch: 1000
next table: 1036
cur table: 1036
epoch: 1000
next table: 2535
cur table: 2509
epoch: 1000
next table: 1041
cur table: 1036
epoch: 1000
next table: 2502
cur table: 2535
epoch: 1000
next table: 1037
cur table: 1041
epoch: 1000
next table: 2538
cur table: 2502
epoch: 1000
next table: 1034
cur table: 1037
epoch: 1000
next table: 2547
cur table: 2538
epoch: 1000
next table: 1035
cur table: 1034
epoch: 1000
next table: 2536
cur table: 2547
epoch: 1000
next table: 1039
cur table: 1035
epoch: 1000
next table: 2504
cur table: 2536
epoch: 1000
next table: 1033
cur table: 1039
epoch: 1000
next table: 2486
cur table: 2504
epoch: 1000
next table: 1033
cur table: 1033
epoch: 1000
next table: 2510
cur table: 2486
Heartbeat CPU 0 instructions: 100000000 cycles: 64475332 heartbeat IPC: 1.00181 cumulative IPC: 1.00156 (Simulation time: 0 hr 51 min 14 sec) 
Finished CPU 0 instructions: 50000003 cycles: 49922124 cumulative IPC: 1.00156 (Simulation time: 0 hr 51 min 14 sec) 

ChampSim completed all CPUs

Region of Interest Statistics

CPU 0 cumulative IPC: 1.00156 instructions: 50000003 cycles: 49922124
ITLB TOTAL     ACCESS:    7017790  HIT:    7017790  MISS:          0  HIT %:        100  MISS %:          0   MPKI: 0
ITLB LOAD TRANSLATION ACCESS:    7017790  HIT:    7017790  MISS:          0  HIT %:        100  MISS %:          0   MPKI: 0
ITLB PREFETCH  REQUESTED:          0  ISSUED:          0  USEFUL:          0  USELESS:          0
ITLB USEFUL LOAD PREFETCHES:          0 PREFETCH ISSUED TO LOWER LEVEL:          0  ACCURACY: -nan
ITLB TIMELY PREFETCHES:          0 LATE PREFETCHES: 0 DROPPED PREFETCHES: 0
ITLB PREFETCHES SAME FILL-ORIGIN LEVEL: 0 DIFFERENT FILL-ORIGIN LEVEL: 0
ITLB AVERAGE MISS LATENCY: -nan cycles
ITLB RQ	ACCESS:    8772851	FORWARD:          0	MERGED:    1755061	TO_CACHE:    7017790

Revised Interactions: positive negative neutral
ITLB_interactions 0 0 0 -nan -nan -nan
DTLB TOTAL     ACCESS:    7788502  HIT:    7776797  MISS:      11705  HIT %:    99.8497  MISS %:   0.150286   MPKI: 0.2341
DTLB LOAD TRANSLATION ACCESS:    7788502  HIT:    7776797  MISS:      11705  HIT %:    99.8497  MISS %:   0.150286   MPKI: 0.2341
DTLB PREFETCH  REQUESTED:          0  ISSUED:          0  USEFUL:          0  USELESS:          0
DTLB USEFUL LOAD PREFETCHES:          0 PREFETCH ISSUED TO LOWER LEVEL:          0  ACCURACY: -nan
DTLB TIMELY PREFETCHES:          0 LATE PREFETCHES: 0 DROPPED PREFETCHES: 0
DTLB PREFETCHES SAME FILL-ORIGIN LEVEL: 0 DIFFERENT FILL-ORIGIN LEVEL: 0
DTLB AVERAGE MISS LATENCY: 89.5303 cycles
DTLB RQ	ACCESS:   12243500	FORWARD:          0	MERGED:    4454298	TO_CACHE:    7789202

Revised Interactions: positive negative neutral
DTLB_interactions 0 0 0 -nan -nan -nan
STLB TOTAL     ACCESS:      11705  HIT:       4844  MISS:       6861  HIT %:     41.384  MISS %:     58.616   MPKI: 0.13722
STLB LOAD TRANSLATION ACCESS:      11705  HIT:       4844  MISS:       6861  HIT %:     41.384  MISS %:     58.616   MPKI: 0.13722
STLB PREFETCH  REQUESTED:          0  ISSUED:          0  USEFUL:          0  USELESS:          0
STLB USEFUL LOAD PREFETCHES:          0 PREFETCH ISSUED TO LOWER LEVEL:          0  ACCURACY: -nan
STLB TIMELY PREFETCHES:          0 LATE PREFETCHES: 0 DROPPED PREFETCHES: 0
STLB PREFETCHES SAME FILL-ORIGIN LEVEL: 0 DIFFERENT FILL-ORIGIN LEVEL: 0
STLB AVERAGE MISS LATENCY: 137.05 cycles
STLB RQ	ACCESS:      11705	FORWARD:          0	MERGED:          0	TO_CACHE:      11705

Revised Interactions: positive negative neutral
STLB_interactions 0 0 0 -nan -nan -nan
STLB Hit, L1D data hit: 0
STLB Hit, L2C data hit: 0
STLB Hit, LLC data hit: 0
STLB Hit, LLC data miss: 0
STLB STLB hints to L2: 0
L1D TOTAL     ACCESS:   12171392  HIT:   11509718  MISS:     661674  HIT %:    94.5637  MISS %:    5.43631   MPKI: 13.2335
L1D LOAD      ACCESS:    8662577  HIT:    8001558  MISS:     661019  HIT %:    92.3693  MISS %:    7.63074   MPKI: 13.2204
L1D RFO       ACCESS:    3508815  HIT:    3508160  MISS:        655  HIT %:    99.9813  MISS %:  0.0186673   MPKI: 0.0131
L1D PREFETCH  REQUESTED:          0  ISSUED:          0  USEFUL:          0  USELESS:          0
L1D USEFUL LOAD PREFETCHES:          0 PREFETCH ISSUED TO LOWER LEVEL:          0  ACCURACY: -nan
L1D TIMELY PREFETCHES:          0 LATE PREFETCHES: 0 DROPPED PREFETCHES: 0
L1D PREFETCHES SAME FILL-ORIGIN LEVEL: 0 DIFFERENT FILL-ORIGIN LEVEL: 0
L1D AVERAGE MISS LATENCY: 20.9627 cycles
L1D RQ	ACCESS:   17541470	FORWARD:          0	MERGED:    8808158	TO_CACHE:    8733234
L1D WQ	ACCESS:    3510266	FORWARD:         78	MERGED:          0	TO_CACHE:    3510266

Revised Interactions: positive negative neutral
L1D_interactions 0 0 0 -nan -nan -nan
L1D UNIQUE REGIONS ACCESSED: 0
L1D REGIONS CONFLICTS: 0
L1D Cross Page Prefetch Requests: 0
L1D Same Page Prefetch Requests: 0
L1D ROI Sum of L1D PQ occupancy: 0
L1D PREFETCHES PUSHED FROM L2C: 0
L1I TOTAL     ACCESS:    8772850  HIT:    8772850  MISS:          0  HIT %:        100  MISS %:          0   MPKI: 0
L1I LOAD      ACCESS:    8772850  HIT:    8772850  MISS:          0  HIT %:        100  MISS %:          0   MPKI: 0
L1I PREFETCH  REQUESTED:          0  ISSUED:          0  USEFUL:          0  USELESS:          0
L1I USEFUL LOAD PREFETCHES:          0 PREFETCH ISSUED TO LOWER LEVEL:          0  ACCURACY: -nan
L1I TIMELY PREFETCHES:          0 LATE PREFETCHES: 0 DROPPED PREFETCHES: 0
L1I PREFETCHES SAME FILL-ORIGIN LEVEL: 0 DIFFERENT FILL-ORIGIN LEVEL: 0
L1I AVERAGE MISS LATENCY: -nan cycles
L1I RQ	ACCESS:   11407420	FORWARD:          0	MERGED:    2634569	TO_CACHE:    8772851

Revised Interactions: positive negative neutral
L1I_interactions 0 0 0 -nan -nan -nan
BTB TOTAL     ACCESS:     877288  HIT:     877279  MISS:          9  HIT %:     99.999  MISS %: 0.00102589   MPKI: 0.00018
BTB BRANCH_DIRECT_JUMP	ACCESS:        218  HIT:        216  MISS:          2
BTB BRANCH_INDIRECT	ACCESS:          0  HIT:          0  MISS:          0
BTB BRANCH_CONDITIONAL	ACCESS:     876634  HIT:     876631  MISS:          3
BTB BRANCH_DIRECT_CALL	ACCESS:        218  HIT:        216  MISS:          2
BTB BRANCH_INDIRECT_CALL	ACCESS:          0  HIT:          0  MISS:          0
BTB BRANCH_RETURN	ACCESS:        218  HIT:        216  MISS:          2
BTB BRANCH_OTHER ACCESS:          0  HIT:          0  MISS:          0

L2C TOTAL     ACCESS:    1736656  HIT:    1296568  MISS:     440088  HIT %:    74.6589  MISS %:    25.3411   MPKI: 8.80176
L2C LOAD      ACCESS:     661018  HIT:     637502  MISS:      23516  HIT %:    96.4425  MISS %:    3.55754   MPKI: 0.47032
L2C DATA LOAD MPKI: 0.47032
L2C INSTRUCTION LOAD MPKI: 0
L2C RFO       ACCESS:        655  HIT:        522  MISS:        133  HIT %:    79.6947  MISS %:    20.3053   MPKI: 0.00266
L2C PREFETCH  ACCESS:     628761  HIT:     213290  MISS:     415471  HIT %:    33.9223  MISS %:    66.0777   MPKI: 8.30942
L2C DATA PREFETCH MPKI: 8.30942
L2C INSTRUCTION PREFETCH MPKI: 0
L2C WRITEBACK ACCESS:     439354  HIT:     439279  MISS:         75  HIT %:    99.9829  MISS %:  0.0170705   MPKI: 0.0015
L2C LOAD TRANSLATION ACCESS:       6868  HIT:       5975  MISS:        893  HIT %:    86.9977  MISS %:    13.0023   MPKI: 0.01786
L2C PREFETCH  REQUESTED:     638144  ISSUED:     638144  USEFUL:     415126  USELESS:        336
L2C USEFUL LOAD PREFETCHES:     415126 PREFETCH ISSUED TO LOWER LEVEL:     424193  ACCURACY: 97.8625
L2C TIMELY PREFETCHES:     415126 LATE PREFETCHES: 8722 DROPPED PREFETCHES: 0
L2C PREFETCHES SAME FILL-ORIGIN LEVEL: 424193 DIFFERENT FILL-ORIGIN LEVEL: 0
L2C AVERAGE MISS LATENCY: 220.75 cycles
L2C RQ	ACCESS:     668542	FORWARD:          0	MERGED:          0	TO_CACHE:     668542
L2C WQ	ACCESS:     439354	FORWARD:          0	MERGED:          0	TO_CACHE:     439354
L2C PQ	ACCESS:     638144	FORWARD:          0	MERGED:          0	TO_CACHE:     638144

Revised Interactions: positive negative neutral
L2C_interactions 410572 3568 387 99.0459 0.86074 0.0933594
L2C Instructions Evicting Data 0
L2C Translations Evicting Data 893
L2C Data Evicting Data 438230
L2C Instructions Evicting Instructions 0
L2C Translations Evicting Instructions 0
L2C Data Evicting Instructions 0
L2C Instructions Evicting Translations 0
L2C Translations Evicting Translations 0
L2C Data Evicting Translations 890
L2C Dense regions hint from L2: 0
PSCL5 TOTAL     ACCESS:       6861  HIT:       6861  MISS:          0  HIT %:        100  MISS %:          0   MPKI: 0
PSCL5 LOAD TRANSLATION ACCESS:       6861  HIT:       6861  MISS:          0  HIT %:        100  MISS %:          0   MPKI: 0
PSCL5 PREFETCH  REQUESTED:          0  ISSUED:          0  USEFUL:          0  USELESS:          0
PSCL5 USEFUL LOAD PREFETCHES:          0 PREFETCH ISSUED TO LOWER LEVEL:          0  ACCURACY: -nan
PSCL5 TIMELY PREFETCHES:          0 LATE PREFETCHES: 0 DROPPED PREFETCHES: 0
PSCL5 PREFETCHES SAME FILL-ORIGIN LEVEL: 0 DIFFERENT FILL-ORIGIN LEVEL: 0

Revised Interactions: positive negative neutral
PSCL5_interactions 0 0 0 -nan -nan -nan
PSCL4 TOTAL     ACCESS:       6861  HIT:       6861  MISS:          0  HIT %:        100  MISS %:          0   MPKI: 0
PSCL4 LOAD TRANSLATION ACCESS:       6861  HIT:       6861  MISS:          0  HIT %:        100  MISS %:          0   MPKI: 0
PSCL4 PREFETCH  REQUESTED:          0  ISSUED:          0  USEFUL:          0  USELESS:          0
PSCL4 USEFUL LOAD PREFETCHES:          0 PREFETCH ISSUED TO LOWER LEVEL:          0  ACCURACY: -nan
PSCL4 TIMELY PREFETCHES:          0 LATE PREFETCHES: 0 DROPPED PREFETCHES: 0
PSCL4 PREFETCHES SAME FILL-ORIGIN LEVEL: 0 DIFFERENT FILL-ORIGIN LEVEL: 0

Revised Interactions: positive negative neutral
PSCL4_interactions 0 0 0 -nan -nan -nan
PSCL3 TOTAL     ACCESS:       6710  HIT:       6705  MISS:          5  HIT %:    99.9255  MISS %:  0.0745156   MPKI: 0.0001
PSCL3 LOAD TRANSLATION ACCESS:       6710  HIT:       6705  MISS:          5  HIT %:    99.9255  MISS %:  0.0745156   MPKI: 0.0001
PSCL3 PREFETCH  REQUESTED:          0  ISSUED:          0  USEFUL:          0  USELESS:          0
PSCL3 USEFUL LOAD PREFETCHES:          0 PREFETCH ISSUED TO LOWER LEVEL:          0  ACCURACY: -nan
PSCL3 TIMELY PREFETCHES:          0 LATE PREFETCHES: 0 DROPPED PREFETCHES: 0
PSCL3 PREFETCHES SAME FILL-ORIGIN LEVEL: 0 DIFFERENT FILL-ORIGIN LEVEL: 0

Revised Interactions: positive negative neutral
PSCL3_interactions 0 0 0 -nan -nan -nan
PSCL2 TOTAL     ACCESS:       6861  HIT:       6837  MISS:         24  HIT %:    99.6502  MISS %:   0.349803   MPKI: 0.00048
PSCL2 LOAD TRANSLATION ACCESS:       6861  HIT:       6837  MISS:         24  HIT %:    99.6502  MISS %:   0.349803   MPKI: 0.00048
PSCL2 PREFETCH  REQUESTED:          0  ISSUED:          0  USEFUL:          0  USELESS:          0
PSCL2 USEFUL LOAD PREFETCHES:          0 PREFETCH ISSUED TO LOWER LEVEL:          0  ACCURACY: -nan
PSCL2 TIMELY PREFETCHES:          0 LATE PREFETCHES: 0 DROPPED PREFETCHES: 0
PSCL2 PREFETCHES SAME FILL-ORIGIN LEVEL: 0 DIFFERENT FILL-ORIGIN LEVEL: 0

Revised Interactions: positive negative neutral
PSCL2_interactions 0 0 0 -nan -nan -nan
LLC TOTAL     ACCESS:     878492  HIT:     432465  MISS:     446027  HIT %:    49.2281  MISS %:    50.7719   MPKI: 8.92054
LLC LOAD      ACCESS:      14794  HIT:        241  MISS:      14553  HIT %:    1.62904  MISS %:     98.371   MPKI: 0.29106
LLC RFO       ACCESS:        133  HIT:        133  MISS:          0  HIT %:        100  MISS %:          0   MPKI: 0
LLC PREFETCH  ACCESS:     424193  HIT:        219  MISS:     423974  HIT %:  0.0516274  MISS %:    99.9484   MPKI: 8.47948
LLC WRITEBACK ACCESS:     438479  HIT:     431871  MISS:       6608  HIT %:     98.493  MISS %:    1.50703   MPKI: 0.13216
LLC LOAD TRANSLATION ACCESS:        893  HIT:          1  MISS:        892  HIT %:   0.111982  MISS %:     99.888   MPKI: 0.01784
LLC PREFETCH  REQUESTED:          0  ISSUED:          0  USEFUL:         77  USELESS:     423920
LLC USEFUL LOAD PREFETCHES:         77 PREFETCH ISSUED TO LOWER LEVEL:     423974  ACCURACY: 0.0181615
LLC TIMELY PREFETCHES:         77 LATE PREFETCHES: 0 DROPPED PREFETCHES: 0
LLC PREFETCHES SAME FILL-ORIGIN LEVEL: 0 DIFFERENT FILL-ORIGIN LEVEL: 0
LLC AVERAGE MISS LATENCY: 189.696 cycles
LLC RQ	ACCESS:      15820	FORWARD:          0	MERGED:          0	TO_CACHE:      15820
LLC WQ	ACCESS:     438479	FORWARD:          0	MERGED:          0	TO_CACHE:     438479
LLC PQ	ACCESS:     424193	FORWARD:          0	MERGED:          0	TO_CACHE:     424193

Revised Interactions: positive negative neutral
LLC_interactions 1 422603 1594 0.000235739 99.624 0.375768
LLC Dense regions hint to LLC: 0

RAW hits: 788
Loads Generated: 17542260
Loads sent to L1D: 17541470
Stores Generated: 3510260
Stores sent to L1D: 3510266
Major fault: 0 Minor fault: 13836
Allocated PAGES: 13836
[Bingo] PHT Access: 21268
[Bingo] PHT Hit PC+Addr: 3719
[Bingo] PHT Hit PC+Offs: 17327
[Bingo] PHT Miss: 222
[Bingo] Prefetch PC+Addr: 0
[Bingo] Prefetch PC+Offs: 0
[Bingo] Useful PC+Addr: 0
[Bingo] Useful PC+Offs: 0
[Bingo] Useless PC+Addr: 0
[Bingo] Useless PC+Offs: 0
[Bingo] L1 Prefetch per Region: 0
[Bingo] L2 Prefetch per Region: 31.326
[Bingo] L3 Prefetch per Region: 0
[Bingo] No Prefetch per Region: 0.674047
[Bingo] Number of Voters Mean: 15.6459
[Bingo] Number of Voters SD: 15.9168
PHT read accesses: 301808
PHT write accesses: 20911
AT read accesses: 639413
AT write accesses: 659820
FT read accesses: 64776
FT write accesses: 21268
PS read accesses: 72539
PS write accesses: 21046
PHT tag read accesses: 973069
PHT tag write accesses: 24630
AT tag read accesses: 18617596
AT tag write accesses: 660324
FT tag read accesses: 8464506
FT tag write accesses: 64292
PS tag read accesses: 11270929
PS tag write accesses: 93579

DRAM Statistics
 CHANNEL 0
 RQ ROW_BUFFER_HIT:     284255  ROW_BUFFER_MISS:     155164
 DBUS_CONGESTED:        584
 WQ ROW_BUFFER_HIT:     265653  ROW_BUFFER_MISS:     172637  FULL:          0

 AVG_CONGESTED_CYCLE: 4
 All warmup complete: 2
Channel 0 Bank busy for read cycles: 0
Channel 0 Bank busy for write cycles: 0
Channel 0
Rank 0
0banks busy for read cycles: 37335434
0banks busy for write cycles: 14773
1banks busy for read cycles: 1285806
1banks busy for write cycles: 683330
2banks busy for read cycles: 58397
2banks busy for write cycles: 316616
3banks busy for read cycles: 39426
3banks busy for write cycles: 226673
4banks busy for read cycles: 38814
4banks busy for write cycles: 164269
5banks busy for read cycles: 38131
5banks busy for write cycles: 141034
6banks busy for read cycles: 93547
6banks busy for write cycles: 159456
7banks busy for read cycles: 859353
7banks busy for write cycles: 494186
8banks busy for read cycles: 3630807
8banks busy for write cycles: 4342073

CPU 0 Branch Prediction Accuracy: 99.9751% MPKI: 0.00438 Average ROB Occupancy at Mispredict: 64.2146
Branch types
NOT_BRANCH: 49121639 98.2433%
BRANCH_DIRECT_JUMP: 218 0.000436%
BRANCH_INDIRECT: 0 0%
BRANCH_CONDITIONAL: 877398 1.7548%
BRANCH_DIRECT_CALL: 218 0.000436%
BRANCH_INDIRECT_CALL: 0 0%
BRANCH_RETURN: 218 0.000436%
BRANCH_OTHER: 0 0%

@sumon_overall_L1D         0         0         0         0         0         0         0
@Sumon_Early_by_class_L1D         0         0         0         0
@Sumon_Late_by_class_L1D         0         0         0         0

@Sumon_Early_by_cycle_L1D         0         0         0         0         0         0         0         0         0         0         0         0
@Sumon_Late_by_cycle_L1D         0         0         0         0         0         0
@Sumon_Early_stream_L1D         0         0         0         0         0         0         0         0         0         0         0         0
@Sumon_Early_CS_L1D         0         0         0         0         0         0         0         0         0         0         0         0
@Sumon_Early_CPLX_L1D         0         0         0         0         0         0         0         0         0         0         0         0
@Sumon_Late_stream_L1D         0         0         0         0         0         0
@Sumon_Late_CS_L1D         0         0         0         0         0         0
@Sumon_Late_CPLX_L1D         0         0         0         0         0         0
@sumon_overall_L2C    415126      8722         0       336    415471    638144    638144
@Sumon_Early_by_class_L2C         0         0         0         0
@Sumon_Late_by_class_L2C         0         0         0         0

@Sumon_Early_by_cycle_L2C      8717     31290     33593     38836     28976    200698     69793         0         0         0         0      3223
@Sumon_Late_by_cycle_L2C        19         0         2      3070      5631         0
@Sumon_Early_stream_L2C         0         0         0         0         0         0         0         0         0         0         0         0
@Sumon_Early_CS_L2C         0         0         0         0         0         0         0         0         0         0         0         0
@Sumon_Early_CPLX_L2C         0         0         0         0         0         0         0         0         0         0         0         0
@Sumon_Late_stream_L2C         0         0         0         0         0         0
@Sumon_Late_CS_L2C         0         0         0         0         0         0
@Sumon_Late_CPLX_L2C         0         0         0         0         0         0
DRAM PAGES: 1048576
Allocated PAGES: 13836
