
*** ChampSim Multicore Out-of-Order Simulator ***

Warmup Instructions: 50000000
Simulation Instructions: 50000000
Number of CPUs: 1
LLC sets: 2048
LLC ways: 16
Off-chip DRAM Size: 4096 MB Channels: 1 Width: 64-bit Data Rate: 6400 MT/s
CPU 0 runs ../../biswa/SPEC2017Traces/654.roms_s-294B.champsimtrace.xz
.xz
CPU 0 Bimodal branch predictor
BTB has LRU replacement policy
ITLB has LRU replacement policy
DTLB has LRU replacement policy
STLB has LRU replacement policy
L1I has LRU replacement policy
L1D has LRU replacement policy
Bingo PHT WAYS: 16 and PHT_SIZE: 16384
Initialize DRRIP state for L2C
Initialize DRRIP state for LLC
epoch: 1000
next table: 2137
cur table: 8280
epoch: 1000
next table: 1944
cur table: 2137
epoch: 1000
next table: 1749
cur table: 1944
epoch: 1000
next table: 1795
cur table: 1749
epoch: 1000
next table: 1990
cur table: 1795
epoch: 1000
next table: 2029
cur table: 1990
epoch: 1000
next table: 1870
cur table: 2029
epoch: 1000
next table: 1837
cur table: 1870
epoch: 1000
next table: 1813
cur table: 1837
epoch: 1000
next table: 1706
cur table: 1813
epoch: 1000
next table: 1906
cur table: 1706
epoch: 1000
next table: 1864
cur table: 1906
epoch: 1000
next table: 1949
cur table: 1864
epoch: 1000
next table: 1816
cur table: 1949
epoch: 1000
next table: 1766
cur table: 1816
epoch: 1000
next table: 1822
cur table: 1766
epoch: 1000
next table: 1817
cur table: 1822
epoch: 1000
next table: 1872
cur table: 1817
epoch: 1000
next table: 1871
cur table: 1872
epoch: 1000
next table: 1844
cur table: 1871
epoch: 1000
next table: 1851
cur table: 1844
epoch: 1000
next table: 1826
cur table: 1851
epoch: 1000
next table: 1699
cur table: 1826
epoch: 1000
next table: 1803
cur table: 1699
epoch: 1000
next table: 1419
cur table: 6699
epoch: 1000
next table: 2013
cur table: 1803
epoch: 1000
next table: 1880
cur table: 2013
epoch: 1000
next table: 1196
cur table: 1419
epoch: 1000
next table: 1846
cur table: 1880
epoch: 1000
next table: 1839
cur table: 1846
epoch: 1000
next table: 1150
cur table: 1196
epoch: 1000
next table: 1829
cur table: 1839
epoch: 1000
next table: 1702
cur table: 1829
epoch: 1000
next table: 1283
cur table: 1150
epoch: 1000
next table: 1918
cur table: 1702
epoch: 1000
next table: 1857
cur table: 1918
epoch: 1000
next table: 1103
cur table: 1283
epoch: 1000
next table: 2011
cur table: 1857
epoch: 1000
next table: 1112
cur table: 1103
epoch: 1000
next table: 1831
cur table: 2011
epoch: 1000
next table: 1685
cur table: 1831
epoch: 1000
next table: 1099
cur table: 1112
epoch: 1000
next table: 1809
cur table: 1685
epoch: 1000
next table: 1088
cur table: 1099
epoch: 1000
next table: 1691
cur table: 1809
epoch: 1000
next table: 1089
cur table: 1088
epoch: 1000
next table: 2013
cur table: 1691
epoch: 1000
next table: 1073
cur table: 1089
epoch: 1000
next table: 1867
cur table: 2013
epoch: 1000
next table: 1931
cur table: 1867
epoch: 1000
next table: 1082
cur table: 1073
epoch: 1000
next table: 1823
cur table: 1931
epoch: 1000
next table: 1102
cur table: 1082
epoch: 1000
next table: 1770
cur table: 1823
epoch: 1000
next table: 1124
cur table: 1102
epoch: 1000
next table: 1809
cur table: 1770
epoch: 1000
next table: 1075
cur table: 1124
epoch: 1000
next table: 1833
cur table: 1809
epoch: 1000
next table: 1883
cur table: 1833
epoch: 1000
next table: 1094
cur table: 1075
epoch: 1000
next table: 1861
cur table: 1883
epoch: 1000
next table: 1085
cur table: 1094
epoch: 1000
next table: 1857
cur table: 1861
epoch: 1000
next table: 1076
cur table: 1085
epoch: 1000
next table: 1829
cur table: 1857
epoch: 1000
next table: 1087
cur table: 1076
epoch: 1000
next table: 1819
cur table: 1829
epoch: 1000
next table: 1737
cur table: 1819
epoch: 1000
next table: 1244
cur table: 1087
epoch: 1000
next table: 1879
cur table: 1737
epoch: 1000
next table: 1096
cur table: 1244
epoch: 1000
next table: 1979
cur table: 1879
epoch: 1000
next table: 1082
cur table: 1096
epoch: 1000
next table: 1830
cur table: 1979
epoch: 1000
next table: 1071
cur table: 1082
epoch: 1000
next table: 1811
cur table: 1830
epoch: 1000
next table: 1092
cur table: 1071
epoch: 1000
next table: 1806
cur table: 1811
epoch: 1000
next table: 1791
cur table: 1806
epoch: 1000
next table: 1108
cur table: 1092
epoch: 1000
next table: 1818
cur table: 1791
epoch: 1000
next table: 1127
cur table: 1108
epoch: 1000
next table: 1883
cur table: 1818
epoch: 1000
next table: 1091
cur table: 1127
epoch: 1000
next table: 1852
cur table: 1883
epoch: 1000
next table: 1102
cur table: 1091
epoch: 1000
next table: 1851
cur table: 1852
epoch: 1000
next table: 1848
cur table: 1851
epoch: 1000
next table: 1073
cur table: 1102
epoch: 1000
next table: 1822
cur table: 1848
epoch: 1000
next table: 1083
cur table: 1073
epoch: 1000
next table: 1673
cur table: 1822
epoch: 1000
next table: 1080
cur table: 1083
epoch: 1000
next table: 1834
cur table: 1673
epoch: 1000
next table: 1077
cur table: 1080
epoch: 1000
next table: 2017
cur table: 1834
epoch: 1000
next table: 1089
cur table: 1077
epoch: 1000
next table: 1874
cur table: 2017
epoch: 1000
next table: 1853
cur table: 1874
epoch: 1000
next table: 1132
cur table: 1089
epoch: 1000
next table: 1836
cur table: 1853
epoch: 1000
next table: 1078
cur table: 1132
epoch: 1000
next table: 1824
cur table: 1836
epoch: 1000
next table: 1235
cur table: 1078
epoch: 1000
next table: 1755
cur table: 1824
epoch: 1000
next table: 1090
cur table: 1235
epoch: 1000
next table: 2017
cur table: 1755
epoch: 1000
next table: 1088
cur table: 1090
epoch: 1000
next table: 1875
cur table: 2017
epoch: 1000
next table: 1061
cur table: 1088
epoch: 1000
next table: 1853
cur table: 1875
epoch: 1000
next table: 1830
cur table: 1853
epoch: 1000
next table: 1095
cur table: 1061
epoch: 1000
next table: 1817
cur table: 1830
epoch: 1000
next table: 1093
cur table: 1095
epoch: 1000
next table: 1669
cur table: 1817
epoch: 1000
next table: 1071
cur table: 1093
epoch: 1000
next table: 1841
cur table: 1669
epoch: 1000
next table: 1086
cur table: 1071
epoch: 1000
next table: 1993
cur table: 1841
epoch: 1000
next table: 1095
cur table: 1086
epoch: 1000
next table: 1896
cur table: 1993
epoch: 1000
next table: 1845
cur table: 1896
epoch: 1000
next table: 1075
cur table: 1095
epoch: 1000
next table: 1747
cur table: 1845
epoch: 1000
next table: 1074
cur table: 1075
epoch: 1000
next table: 1797
cur table: 1747
epoch: 1000
next table: 1071
cur table: 1074
epoch: 1000
next table: 1787
cur table: 1797
epoch: 1000
next table: 1077
cur table: 1071
epoch: 1000
next table: 1848
cur table: 1787
epoch: 1000
next table: 1075
cur table: 1077
epoch: 1000
next table: 1878
cur table: 1848
epoch: 1000
next table: 2011
cur table: 1878
epoch: 1000
next table: 1087
cur table: 1075
epoch: 1000
next table: 1848
cur table: 2011
epoch: 1000
next table: 1101
cur table: 1087
epoch: 1000
next table: 1689
cur table: 1848
epoch: 1000
next table: 1074
cur table: 1101
epoch: 1000
next table: 1837
cur table: 1689
epoch: 1000
next table: 1219
cur table: 1074
epoch: 1000
next table: 1884
cur table: 1837
epoch: 1000
next table: 1091
cur table: 1219
epoch: 1000
next table: 1889
cur table: 1884
epoch: 1000
next table: 1082
cur table: 1091
epoch: 1000
next table: 1865
cur table: 1889
epoch: 1000
next table: 1848
cur table: 1865
epoch: 1000
next table: 1076
cur table: 1082
epoch: 1000
next table: 1821
cur table: 1848
epoch: 1000
next table: 1064
cur table: 1076
epoch: 1000
next table: 1688
cur table: 1821
epoch: 1000
next table: 1070
cur table: 1064
epoch: 1000
next table: 1810
cur table: 1688
epoch: 1000
next table: 1074
cur table: 1070
epoch: 1000
next table: 1842
cur table: 1810
epoch: 1000
next table: 1071
cur table: 1074
epoch: 1000
next table: 2005
cur table: 1842
epoch: 1000
next table: 1095
cur table: 1071
epoch: 1000
next table: 1849
cur table: 2005
epoch: 1000
next table: 1850
cur table: 1849
epoch: 1000
next table: 1084
cur table: 1095
epoch: 1000
next table: 1833
cur table: 1850
epoch: 1000
next table: 1065
cur table: 1084
epoch: 1000
next table: 1675
cur table: 1833
epoch: 1000
next table: 1096
cur table: 1065
epoch: 1000
next table: 1822
cur table: 1675
epoch: 1000
next table: 1086
cur table: 1096
epoch: 1000
next table: 1853
cur table: 1822
epoch: 1000
next table: 1078
cur table: 1086
epoch: 1000
next table: 1866
cur table: 1853
epoch: 1000
next table: 1965
cur table: 1866
epoch: 1000
next table: 1083
cur table: 1078
epoch: 1000
next table: 1815
cur table: 1965
epoch: 1000
next table: 1065
cur table: 1083
epoch: 1000
next table: 1813
cur table: 1815
epoch: 1000
next table: 1073
cur table: 1065
epoch: 1000
next table: 1820
cur table: 1813
epoch: 1000
next table: 1221
cur table: 1073
epoch: 1000
next table: 1882
cur table: 1820
epoch: 1000
next table: 1085
cur table: 1221
epoch: 1000
next table: 1876
cur table: 1882
epoch: 1000
next table: 1069
cur table: 1085
epoch: 1000
next table: 1968
cur table: 1876
epoch: 1000
next table: 1819
cur table: 1968
epoch: 1000
next table: 1080
cur table: 1069
epoch: 1000
next table: 1749
cur table: 1819
epoch: 1000
next table: 1069
cur table: 1080
epoch: 1000
next table: 1829
cur table: 1749
epoch: 1000
next table: 1122
cur table: 1069
epoch: 1000
next table: 1662
cur table: 1829
epoch: 1000
next table: 1077
cur table: 1122
epoch: 1000
next table: 1841
cur table: 1662
epoch: 1000
next table: 1086
cur table: 1077
epoch: 1000
next table: 2031
cur table: 1841
epoch: 1000
next table: 1081
cur table: 1086
epoch: 1000
next table: 1855
cur table: 2031
epoch: 1000
next table: 1849
cur table: 1855
epoch: 1000
next table: 1074
cur table: 1081
epoch: 1000
next table: 1831
cur table: 1849
epoch: 1000
next table: 1062
cur table: 1074
epoch: 1000
next table: 1692
cur table: 1831
epoch: 1000
next table: 1115
cur table: 1062
epoch: 1000
next table: 1804
cur table: 1692
epoch: 1000
next table: 1084
cur table: 1115
epoch: 1000
next table: 1856
cur table: 1804
epoch: 1000
next table: 1093
cur table: 1084
epoch: 1000
next table: 2010
cur table: 1856
epoch: 1000
next table: 1079
cur table: 1093
epoch: 1000
next table: 1874
cur table: 2010
epoch: 1000
next table: 1848
cur table: 1874
epoch: 1000
next table: 1080
cur table: 1079
epoch: 1000
next table: 1824
cur table: 1848
epoch: 1000
next table: 1230
cur table: 1080
epoch: 1000
next table: 1768
cur table: 1824
epoch: 1000
next table: 1113
cur table: 1230
epoch: 1000
next table: 1856
cur table: 1768
epoch: 1000
next table: 1080
cur table: 1113
epoch: 1000
next table: 2021
cur table: 1856
epoch: 1000
next table: 1080
cur table: 1080
epoch: 1000
next table: 1869
cur table: 2021
epoch: 1000
next table: 1844
cur table: 1869
epoch: 1000
next table: 1076
cur table: 1080
epoch: 1000
next table: 1816
cur table: 1844
epoch: 1000
next table: 1066
cur table: 1076
epoch: 1000
next table: 1669
cur table: 1816
epoch: 1000
next table: 1067
cur table: 1066
epoch: 1000
next table: 1807
cur table: 1669
epoch: 1000
next table: 1075
cur table: 1067
epoch: 1000
next table: 1861
cur table: 1807
epoch: 1000
next table: 1093
cur table: 1075
epoch: 1000
next table: 1870
cur table: 1861
epoch: 1000
next table: 1946
cur table: 1870
epoch: 1000
next table: 1090
cur table: 1093
epoch: 1000
next table: 1827
cur table: 1946
epoch: 1000
next table: 1066
cur table: 1090
epoch: 1000
next table: 1768
cur table: 1827
epoch: 1000
next table: 1080
cur table: 1066
epoch: 1000
next table: 1796
cur table: 1768
epoch: 1000
next table: 1073
cur table: 1080
epoch: 1000
next table: 1679
cur table: 1796
epoch: 1000
next table: 1090
cur table: 1073
epoch: 1000
next table: 1864
cur table: 1679
epoch: 1000
next table: 1086
cur table: 1090
epoch: 1000
next table: 2022
cur table: 1864
epoch: 1000
next table: 1861
cur table: 2022
epoch: 1000
next table: 1069
cur table: 1086
epoch: 1000
next table: 1837
cur table: 1861
epoch: 1000
next table: 1085
cur table: 1069
epoch: 1000
next table: 1807
cur table: 1837
epoch: 1000
next table: 1238
cur table: 1085
epoch: 1000
next table: 1789
cur table: 1807
epoch: 1000
next table: 1085
cur table: 1238
epoch: 1000
next table: 1857
cur table: 1789
Heartbeat CPU 0 instructions: 10000001 cycles: 3210892 heartbeat IPC: 3.1144 cumulative IPC: 3.1144 (Simulation time: 0 hr 5 min 37 sec) 
epoch: 1000
next table: 1070
cur table: 1085
epoch: 1000
next table: 2024
cur table: 1857
epoch: 1000
next table: 1874
cur table: 2024
epoch: 1000
next table: 1085
cur table: 1070
epoch: 1000
next table: 1833
cur table: 1874
epoch: 1000
next table: 1073
cur table: 1085
epoch: 1000
next table: 1722
cur table: 1833
epoch: 1000
next table: 1081
cur table: 1073
epoch: 1000
next table: 1788
cur table: 1722
epoch: 1000
next table: 1066
cur table: 1081
epoch: 1000
next table: 1823
cur table: 1788
epoch: 1000
next table: 1074
cur table: 1066
epoch: 1000
next table: 1855
cur table: 1823
epoch: 1000
next table: 1093
cur table: 1074
epoch: 1000
next table: 2016
cur table: 1855
epoch: 1000
next table: 1842
cur table: 2016
epoch: 1000
next table: 1079
cur table: 1093
epoch: 1000
next table: 1849
cur table: 1842
epoch: 1000
next table: 1078
cur table: 1079
epoch: 1000
next table: 1676
cur table: 1849
epoch: 1000
next table: 1094
cur table: 1078
epoch: 1000
next table: 1805
cur table: 1676
epoch: 1000
next table: 1118
cur table: 1094
epoch: 1000
next table: 1694
cur table: 1805
epoch: 1000
next table: 1834
cur table: 1694
epoch: 1000
next table: 1095
cur table: 1118
epoch: 1000
next table: 1991
cur table: 1834
epoch: 1000
next table: 1082
cur table: 1095
epoch: 1000
next table: 1859
cur table: 1991
epoch: 1000
next table: 1099
cur table: 1082
epoch: 1000
next table: 1678
cur table: 1859
epoch: 1000
next table: 1077
cur table: 1099
epoch: 1000
next table: 1791
cur table: 1678
epoch: 1000
next table: 1204
cur table: 1077
epoch: 1000
next table: 1775
cur table: 1791
epoch: 1000
next table: 1848
cur table: 1775
epoch: 1000
next table: 1084
cur table: 1204
epoch: 1000
next table: 2021
cur table: 1848
epoch: 1000
next table: 1067
cur table: 1084
epoch: 1000
next table: 1876
cur table: 2021
epoch: 1000
next table: 1080
cur table: 1067
epoch: 1000
next table: 1832
cur table: 1876
epoch: 1000
next table: 1073
cur table: 1080
epoch: 1000
next table: 1717
cur table: 1832
epoch: 1000
next table: 1094
cur table: 1073
epoch: 1000
next table: 1801
cur table: 1717
epoch: 1000
next table: 1800
cur table: 1801
epoch: 1000
next table: 1111
cur table: 1094
epoch: 1000
next table: 1867
cur table: 1800
epoch: 1000
next table: 1067
cur table: 1111
epoch: 1000
next table: 1864
cur table: 1867
epoch: 1000
next table: 1129
cur table: 1067
epoch: 1000
next table: 2001
cur table: 1864
epoch: 1000
next table: 1076
cur table: 1129
epoch: 1000
next table: 1856
cur table: 2001
epoch: 1000
next table: 1077
cur table: 1076
epoch: 1000
next table: 1687
cur table: 1856
epoch: 1000
next table: 1803
cur table: 1687
epoch: 1000
next table: 1114
cur table: 1077
epoch: 1000
next table: 1685
cur table: 1803
epoch: 1000
next table: 1067
cur table: 1114
epoch: 1000
next table: 2001
cur table: 1685
epoch: 1000
next table: 1094
cur table: 1067
epoch: 1000
next table: 1873
cur table: 2001
epoch: 1000
next table: 1087
cur table: 1094
epoch: 1000
next table: 1959
cur table: 1873
epoch: 1000
next table: 1073
cur table: 1087
epoch: 1000
next table: 1820
cur table: 1959
epoch: 1000
next table: 1269
cur table: 1073
epoch: 1000
next table: 1812
cur table: 1820
epoch: 1000
next table: 1863
cur table: 1812
epoch: 1000
next table: 1074
cur table: 1269
epoch: 1000
next table: 1868
cur table: 1863
epoch: 1000
next table: 1090
cur table: 1074
epoch: 1000
next table: 1984
cur table: 1868
epoch: 1000
next table: 1079
cur table: 1090
epoch: 1000
next table: 1833
cur table: 1984
epoch: 1000
next table: 1073
cur table: 1079
epoch: 1000
next table: 1813
cur table: 1833
epoch: 1000
next table: 1067
cur table: 1073
epoch: 1000
next table: 1806
cur table: 1813
epoch: 1000
next table: 1787
cur table: 1806
epoch: 1000
next table: 1071
cur table: 1067
epoch: 1000
next table: 1817
cur table: 1787
epoch: 1000
next table: 1077
cur table: 1071
epoch: 1000
next table: 1867
cur table: 1817
epoch: 1000
next table: 1093
cur table: 1077
epoch: 1000
next table: 1867
cur table: 1867
epoch: 1000
next table: 1077
cur table: 1093
epoch: 1000
next table: 1849
cur table: 1867
epoch: 1000
next table: 1075
cur table: 1077
epoch: 1000
next table: 1849
cur table: 1849
epoch: 1000
next table: 1096
cur table: 1075
epoch: 1000
next table: 1826
cur table: 1849
epoch: 1000
next table: 1671
cur table: 1826
epoch: 1000
next table: 1069
cur table: 1096
epoch: 1000
next table: 1831
cur table: 1671
epoch: 1000
next table: 1085
cur table: 1069
epoch: 1000
next table: 2009
cur table: 1831
epoch: 1000
next table: 1082
cur table: 1085
epoch: 1000
next table: 1878
cur table: 2009
epoch: 1000
next table: 1088
cur table: 1082
epoch: 1000
next table: 1852
cur table: 1878
epoch: 1000
next table: 1072
cur table: 1088
epoch: 1000
next table: 1839
cur table: 1852
epoch: 1000
next table: 1765
cur table: 1839
epoch: 1000
next table: 1226
cur table: 1072
epoch: 1000
next table: 1826
cur table: 1765
epoch: 1000
next table: 1067
cur table: 1226
epoch: 1000
next table: 2020
cur table: 1826
epoch: 1000
next table: 1094
cur table: 1067
epoch: 1000
next table: 1877
cur table: 2020
epoch: 1000
next table: 1083
cur table: 1094
epoch: 1000
next table: 1848
cur table: 1877
epoch: 1000
next table: 1075
cur table: 1083
epoch: 1000
next table: 1836
cur table: 1848
epoch: 1000
next table: 1067
cur table: 1075
epoch: 1000
next table: 1818
cur table: 1836
epoch: 1000
next table: 1672
cur table: 1818
epoch: 1000
next table: 1070
cur table: 1067
epoch: 1000
next table: 1812
cur table: 1672
epoch: 1000
next table: 1083
cur table: 1070
epoch: 1000
next table: 1871
cur table: 1812
epoch: 1000
next table: 1098
cur table: 1083
epoch: 1000
next table: 1977
cur table: 1871
epoch: 1000
next table: 1070
cur table: 1098
epoch: 1000
next table: 1892
cur table: 1977
epoch: 1000
next table: 1088
cur table: 1070
epoch: 1000
next table: 1753
cur table: 1892
epoch: 1000
next table: 1803
cur table: 1753
epoch: 1000
next table: 1068
cur table: 1088
epoch: 1000
next table: 1784
cur table: 1803
epoch: 1000
next table: 1090
cur table: 1068
epoch: 1000
next table: 1835
cur table: 1784
epoch: 1000
next table: 1070
cur table: 1090
epoch: 1000
next table: 1877
cur table: 1835
epoch: 1000
next table: 1091
cur table: 1070
epoch: 1000
next table: 2011
cur table: 1877
epoch: 1000
next table: 1088
cur table: 1091
epoch: 1000
next table: 1807
cur table: 2011
epoch: 1000
next table: 1779
cur table: 1807
epoch: 1000
next table: 1228
cur table: 1088
epoch: 1000
next table: 1825
cur table: 1779
epoch: 1000
next table: 1083
cur table: 1228
epoch: 1000
next table: 1846
cur table: 1825
epoch: 1000
next table: 1091
cur table: 1083
epoch: 1000
next table: 1899
cur table: 1846
epoch: 1000
next table: 1089
cur table: 1091
epoch: 1000
next table: 2026
cur table: 1899
epoch: 1000
next table: 1091
cur table: 1089
epoch: 1000
next table: 1847
cur table: 2026
epoch: 1000
next table: 1830
cur table: 1847
epoch: 1000
next table: 1071
cur table: 1091
epoch: 1000
next table: 1673
cur table: 1830
epoch: 1000
next table: 1089
cur table: 1071
epoch: 1000
next table: 1679
cur table: 1673
epoch: 1000
next table: 1113
cur table: 1089
epoch: 1000
next table: 1975
cur table: 1679
epoch: 1000
next table: 1069
cur table: 1113
epoch: 1000
next table: 1884
cur table: 1975
epoch: 1000
next table: 1082
cur table: 1069
epoch: 1000
next table: 1957
cur table: 1884
epoch: 1000
next table: 1076
cur table: 1082
epoch: 1000
next table: 1826
cur table: 1957
epoch: 1000
next table: 1764
cur table: 1826
epoch: 1000
next table: 1081
cur table: 1076
epoch: 1000
next table: 1824
cur table: 1764
epoch: 1000
next table: 1097
cur table: 1081
epoch: 1000
next table: 1658
cur table: 1824
epoch: 1000
next table: 1068
cur table: 1097
epoch: 1000
next table: 1856
cur table: 1658
epoch: 1000
next table: 1089
cur table: 1068
epoch: 1000
next table: 2015
cur table: 1856
epoch: 1000
next table: 1086
cur table: 1089
epoch: 1000
next table: 1880
cur table: 2015
epoch: 1000
next table: 1841
cur table: 1880
epoch: 1000
next table: 1074
cur table: 1086
epoch: 1000
next table: 1900
cur table: 1841
epoch: 1000
next table: 1240
cur table: 1074
epoch: 1000
next table: 1676
cur table: 1900
epoch: 1000
next table: 1092
cur table: 1240
epoch: 1000
next table: 1845
cur table: 1676
epoch: 1000
next table: 1077
cur table: 1092
epoch: 1000
next table: 1988
cur table: 1845
epoch: 1000
next table: 1093
cur table: 1077
epoch: 1000
next table: 1890
cur table: 1988
epoch: 1000
next table: 1090
cur table: 1093
epoch: 1000
next table: 1842
cur table: 1890
epoch: 1000
next table: 1734
cur table: 1842
epoch: 1000
next table: 1070
cur table: 1090
epoch: 1000
next table: 1769
cur table: 1734
epoch: 1000
next table: 1081
cur table: 1070
epoch: 1000
next table: 1796
cur table: 1769
epoch: 1000
next table: 1071
cur table: 1081
epoch: 1000
next table: 1841
cur table: 1796
epoch: 1000
next table: 1092
cur table: 1071
epoch: 1000
next table: 1882
cur table: 1841
epoch: 1000
next table: 1083
cur table: 1092
epoch: 1000
next table: 1862
cur table: 1882
epoch: 1000
next table: 1060
cur table: 1083
epoch: 1000
next table: 1852
cur table: 1862
epoch: 1000
next table: 1838
cur table: 1852
epoch: 1000
next table: 1075
cur table: 1060
epoch: 1000
next table: 1693
cur table: 1838
epoch: 1000
next table: 1076
cur table: 1075
epoch: 1000
next table: 1804
cur table: 1693
epoch: 1000
next table: 1083
cur table: 1076
epoch: 1000
next table: 1847
cur table: 1804
epoch: 1000
next table: 1071
cur table: 1083
epoch: 1000
next table: 2035
cur table: 1847
epoch: 1000
next table: 1089
cur table: 1071
epoch: 1000
next table: 1853
cur table: 2035
epoch: 1000
next table: 1853
cur table: 1853
epoch: 1000
next table: 1074
cur table: 1089
epoch: 1000
next table: 1774
cur table: 1853
epoch: 1000
next table: 1238
cur table: 1074
epoch: 1000
next table: 1789
cur table: 1774
epoch: 1000
next table: 1075
cur table: 1238
epoch: 1000
next table: 1840
cur table: 1789
epoch: 1000
next table: 1086
cur table: 1075
epoch: 1000
next table: 1881
cur table: 1840
epoch: 1000
next table: 1072
cur table: 1086
epoch: 1000
next table: 2011
cur table: 1881
epoch: 1000
next table: 1087
cur table: 1072
epoch: 1000
next table: 1849
cur table: 2011
epoch: 1000
next table: 1823
cur table: 1849
epoch: 1000
next table: 1070
cur table: 1087
epoch: 1000
next table: 1682
cur table: 1823
epoch: 1000
next table: 1081
cur table: 1070
epoch: 1000
next table: 1668
cur table: 1682
epoch: 1000
next table: 1072
cur table: 1081
epoch: 1000
next table: 1989
cur table: 1668
epoch: 1000
next table: 1085
cur table: 1072
epoch: 1000
next table: 1873
cur table: 1989
epoch: 1000
next table: 1071
cur table: 1085
epoch: 1000
next table: 1956
cur table: 1873
epoch: 1000
next table: 1832
cur table: 1956
epoch: 1000
next table: 1081
cur table: 1071
epoch: 1000
next table: 1812
cur table: 1832
epoch: 1000
next table: 1064
cur table: 1081
epoch: 1000
next table: 1774
cur table: 1812
epoch: 1000
next table: 1093
cur table: 1064
epoch: 1000
next table: 1812
cur table: 1774
epoch: 1000
next table: 1067
cur table: 1093
epoch: 1000
next table: 1868
cur table: 1812
epoch: 1000
next table: 1085
cur table: 1067
epoch: 1000
next table: 1870
cur table: 1868
epoch: 1000
next table: 1085
cur table: 1085
epoch: 1000
next table: 1875
cur table: 1870
epoch: 1000
next table: 1222
cur table: 1085
epoch: 1000
next table: 1914
cur table: 1875
epoch: 1000
next table: 1824
cur table: 1914
epoch: 1000
next table: 1092
cur table: 1222
epoch: 1000
next table: 1664
cur table: 1824
epoch: 1000
next table: 1069
cur table: 1092
epoch: 1000
next table: 1856
cur table: 1664
epoch: 1000
next table: 1074
cur table: 1069
epoch: 1000
next table: 2031
cur table: 1856
epoch: 1000
next table: 1088
cur table: 1074
epoch: 1000
next table: 1872
cur table: 2031
epoch: 1000
next table: 1066
cur table: 1088
epoch: 1000
next table: 1831
cur table: 1872
epoch: 1000
next table: 1083
cur table: 1066
epoch: 1000
next table: 1815
cur table: 1831
epoch: 1000
next table: 1699
cur table: 1815
epoch: 1000
next table: 1098
cur table: 1083
epoch: 1000
next table: 1823
cur table: 1699
epoch: 1000
next table: 1092
cur table: 1098
epoch: 1000
next table: 1854
cur table: 1823
epoch: 1000
next table: 1109
cur table: 1092
epoch: 1000
next table: 2010
cur table: 1854
epoch: 1000
next table: 1062
cur table: 1109
epoch: 1000
next table: 1843
cur table: 2010
epoch: 1000
next table: 1085
cur table: 1062
epoch: 1000
next table: 1857
cur table: 1843
epoch: 1000
next table: 1071
cur table: 1085
epoch: 1000
next table: 1676
cur table: 1857
epoch: 1000
next table: 1815
cur table: 1676
epoch: 1000
next table: 1123
cur table: 1071
epoch: 1000
next table: 1793
cur table: 1815
epoch: 1000
next table: 1108
cur table: 1123
epoch: 1000
next table: 1892
cur table: 1793
epoch: 1000
next table: 1075
cur table: 1108
epoch: 1000
next table: 1870
cur table: 1892
epoch: 1000
next table: 1087
cur table: 1075
epoch: 1000
next table: 1954
cur table: 1870
epoch: 1000
next table: 1237
cur table: 1087
epoch: 1000
next table: 1811
cur table: 1954
epoch: 1000
next table: 1727
cur table: 1811
epoch: 1000
next table: 1085
cur table: 1237
epoch: 1000
next table: 1795
cur table: 1727
epoch: 1000
next table: 1078
cur table: 1085
epoch: 1000
next table: 1899
cur table: 1795
epoch: 1000
next table: 1089
cur table: 1078
Heartbeat CPU 0 instructions: 20000000 cycles: 6421617 heartbeat IPC: 3.11456 cumulative IPC: 3.11448 (Simulation time: 0 hr 10 min 57 sec) 
epoch: 1000
next table: 1978
cur table: 1899
epoch: 1000
next table: 1090
cur table: 1089
epoch: 1000
next table: 1853
cur table: 1978
epoch: 1000
next table: 1074
cur table: 1090
epoch: 1000
next table: 1846
cur table: 1853
epoch: 1000
next table: 1828
cur table: 1846
epoch: 1000
next table: 1079
cur table: 1074
epoch: 1000
next table: 1668
cur table: 1828
epoch: 1000
next table: 1095
cur table: 1079
epoch: 1000
next table: 1825
cur table: 1668
epoch: 1000
next table: 1071
cur table: 1095
epoch: 1000
next table: 1859
cur table: 1825
epoch: 1000
next table: 1090
cur table: 1071
epoch: 1000
next table: 2026
cur table: 1859
epoch: 1000
next table: 1084
cur table: 1090
epoch: 1000
next table: 1856
cur table: 2026
epoch: 1000
next table: 1850
cur table: 1856
epoch: 1000
next table: 1066
cur table: 1084
epoch: 1000
next table: 1722
cur table: 1850
epoch: 1000
next table: 1081
cur table: 1066
epoch: 1000
next table: 1776
cur table: 1722
epoch: 1000
next table: 1069
cur table: 1081
epoch: 1000
next table: 1816
cur table: 1776
epoch: 1000
next table: 1085
cur table: 1069
epoch: 1000
next table: 1879
cur table: 1816
epoch: 1000
next table: 1094
cur table: 1085
epoch: 1000
next table: 2015
cur table: 1879
epoch: 1000
next table: 1844
cur table: 2015
epoch: 1000
next table: 1076
cur table: 1094
epoch: 1000
next table: 1772
cur table: 1844
epoch: 1000
next table: 1218
cur table: 1076
epoch: 1000
next table: 1818
cur table: 1772
epoch: 1000
next table: 1073
cur table: 1218
epoch: 1000
next table: 1814
cur table: 1818
epoch: 1000
next table: 1083
cur table: 1073
epoch: 1000
next table: 1882
cur table: 1814
epoch: 1000
next table: 1072
cur table: 1083
epoch: 1000
next table: 1873
cur table: 1882
epoch: 1000
next table: 1083
cur table: 1072
epoch: 1000
next table: 1854
cur table: 1873
epoch: 1000
next table: 1836
cur table: 1854
epoch: 1000
next table: 1066
cur table: 1083
epoch: 1000
next table: 1825
cur table: 1836
epoch: 1000
next table: 1072
cur table: 1066
epoch: 1000
next table: 1685
cur table: 1825
epoch: 1000
next table: 1077
cur table: 1072
epoch: 1000
next table: 1820
cur table: 1685
epoch: 1000
next table: 1080
cur table: 1077
epoch: 1000
next table: 2002
cur table: 1820
epoch: 1000
next table: 1090
cur table: 1080
epoch: 1000
next table: 1876
cur table: 2002
epoch: 1000
next table: 1080
cur table: 1090
epoch: 1000
next table: 1852
cur table: 1876
epoch: 1000
next table: 1857
cur table: 1852
epoch: 1000
next table: 1084
cur table: 1080
epoch: 1000
next table: 1824
cur table: 1857
epoch: 1000
next table: 1080
cur table: 1084
epoch: 1000
next table: 1658
cur table: 1824
epoch: 1000
next table: 1071
cur table: 1080
epoch: 1000
next table: 1832
cur table: 1658
epoch: 1000
next table: 1088
cur table: 1071
epoch: 1000
next table: 2000
cur table: 1832
epoch: 1000
next table: 1072
cur table: 1088
epoch: 1000
next table: 1891
cur table: 2000
epoch: 1000
next table: 1919
cur table: 1891
epoch: 1000
next table: 1237
cur table: 1072
epoch: 1000
next table: 1844
cur table: 1919
epoch: 1000
next table: 1087
cur table: 1237
epoch: 1000
next table: 1670
cur table: 1844
epoch: 1000
next table: 1066
cur table: 1087
epoch: 1000
next table: 1834
cur table: 1670
epoch: 1000
next table: 1078
cur table: 1066
epoch: 1000
next table: 1869
cur table: 1834
epoch: 1000
next table: 1085
cur table: 1078
epoch: 1000
next table: 1986
cur table: 1869
epoch: 1000
next table: 1083
cur table: 1085
epoch: 1000
next table: 1888
cur table: 1986
epoch: 1000
next table: 1750
cur table: 1888
epoch: 1000
next table: 1074
cur table: 1083
epoch: 1000
next table: 1797
cur table: 1750
epoch: 1000
next table: 1108
cur table: 1074
epoch: 1000
next table: 1791
cur table: 1797
epoch: 1000
next table: 1095
cur table: 1108
epoch: 1000
next table: 1833
cur table: 1791
epoch: 1000
next table: 1087
cur table: 1095
epoch: 1000
next table: 1872
cur table: 1833
epoch: 1000
next table: 1089
cur table: 1087
epoch: 1000
next table: 1855
cur table: 1872
epoch: 1000
next table: 1854
cur table: 1855
epoch: 1000
next table: 1073
cur table: 1089
epoch: 1000
next table: 1845
cur table: 1854
epoch: 1000
next table: 1094
cur table: 1073
epoch: 1000
next table: 1826
cur table: 1845
epoch: 1000
next table: 1102
cur table: 1094
epoch: 1000
next table: 1670
cur table: 1826
epoch: 1000
next table: 1065
cur table: 1102
epoch: 1000
next table: 1834
cur table: 1670
epoch: 1000
next table: 1090
cur table: 1065
epoch: 1000
next table: 2017
cur table: 1834
epoch: 1000
next table: 1067
cur table: 1090
epoch: 1000
next table: 1882
cur table: 2017
epoch: 1000
next table: 1898
cur table: 1882
epoch: 1000
next table: 1234
cur table: 1067
epoch: 1000
next table: 1819
cur table: 1898
epoch: 1000
next table: 1096
cur table: 1234
epoch: 1000
next table: 1709
cur table: 1819
epoch: 1000
next table: 1080
cur table: 1096
epoch: 1000
next table: 1836
cur table: 1709
epoch: 1000
next table: 1070
cur table: 1080
epoch: 1000
next table: 2009
cur table: 1836
epoch: 1000
next table: 1084
cur table: 1070
epoch: 1000
next table: 1875
cur table: 2009
epoch: 1000
next table: 1850
cur table: 1875
epoch: 1000
next table: 1087
cur table: 1084
epoch: 1000
next table: 1840
cur table: 1850
epoch: 1000
next table: 1071
cur table: 1087
epoch: 1000
next table: 1808
cur table: 1840
epoch: 1000
next table: 1069
cur table: 1071
epoch: 1000
next table: 1678
cur table: 1808
epoch: 1000
next table: 1066
cur table: 1069
epoch: 1000
next table: 1839
cur table: 1678
epoch: 1000
next table: 1087
cur table: 1066
epoch: 1000
next table: 2000
cur table: 1839
epoch: 1000
next table: 1886
cur table: 2000
epoch: 1000
next table: 1082
cur table: 1087
epoch: 1000
next table: 1847
cur table: 1886
epoch: 1000
next table: 1067
cur table: 1082
epoch: 1000
next table: 1746
cur table: 1847
epoch: 1000
next table: 1074
cur table: 1067
epoch: 1000
next table: 1798
cur table: 1746
epoch: 1000
next table: 1063
cur table: 1074
epoch: 1000
next table: 1787
cur table: 1798
epoch: 1000
next table: 1080
cur table: 1063
epoch: 1000
next table: 1854
cur table: 1787
epoch: 1000
next table: 1095
cur table: 1080
epoch: 1000
next table: 1872
cur table: 1854
epoch: 1000
next table: 2013
cur table: 1872
epoch: 1000
next table: 1127
cur table: 1095
epoch: 1000
next table: 1818
cur table: 2013
epoch: 1000
next table: 1197
cur table: 1127
epoch: 1000
next table: 1780
cur table: 1818
epoch: 1000
next table: 1081
cur table: 1197
epoch: 1000
next table: 1801
cur table: 1780
epoch: 1000
next table: 1070
cur table: 1081
epoch: 1000
next table: 1846
cur table: 1801
epoch: 1000
next table: 1880
cur table: 1846
epoch: 1000
next table: 1089
cur table: 1070
epoch: 1000
next table: 1858
cur table: 1880
epoch: 1000
next table: 1067
cur table: 1089
epoch: 1000
next table: 1758
cur table: 1858
epoch: 1000
next table: 1089
cur table: 1067
epoch: 1000
next table: 1794
cur table: 1758
epoch: 1000
next table: 1071
cur table: 1089
epoch: 1000
next table: 1768
cur table: 1794
epoch: 1000
next table: 1072
cur table: 1071
epoch: 1000
next table: 1659
cur table: 1768
epoch: 1000
next table: 1829
cur table: 1659
epoch: 1000
next table: 1085
cur table: 1072
epoch: 1000
next table: 1996
cur table: 1829
epoch: 1000
next table: 1083
cur table: 1085
epoch: 1000
next table: 1886
cur table: 1996
epoch: 1000
next table: 1092
cur table: 1083
epoch: 1000
next table: 1853
cur table: 1886
epoch: 1000
next table: 1070
cur table: 1092
epoch: 1000
next table: 1846
cur table: 1853
epoch: 1000
next table: 1073
cur table: 1070
epoch: 1000
next table: 1700
cur table: 1846
epoch: 1000
next table: 1797
cur table: 1700
epoch: 1000
next table: 1116
cur table: 1073
epoch: 1000
next table: 1820
cur table: 1797
epoch: 1000
next table: 1075
cur table: 1116
epoch: 1000
next table: 1873
cur table: 1820
epoch: 1000
next table: 1089
cur table: 1075
epoch: 1000
next table: 2015
cur table: 1873
epoch: 1000
next table: 1222
cur table: 1089
epoch: 1000
next table: 1768
cur table: 2015
epoch: 1000
next table: 1066
cur table: 1222
epoch: 1000
next table: 1835
cur table: 1768
epoch: 1000
next table: 1084
cur table: 1066
epoch: 1000
next table: 1803
cur table: 1835
epoch: 1000
next table: 1686
cur table: 1803
epoch: 1000
next table: 1090
cur table: 1084
epoch: 1000
next table: 2024
cur table: 1686
epoch: 1000
next table: 1074
cur table: 1090
epoch: 1000
next table: 1868
cur table: 2024
epoch: 1000
next table: 1090
cur table: 1074
epoch: 1000
next table: 1856
cur table: 1868
epoch: 1000
next table: 1071
cur table: 1090
epoch: 1000
next table: 1834
cur table: 1856
epoch: 1000
next table: 1089
cur table: 1071
epoch: 1000
next table: 1700
cur table: 1834
epoch: 1000
next table: 1802
cur table: 1700
epoch: 1000
next table: 1114
cur table: 1089
epoch: 1000
next table: 1829
cur table: 1802
epoch: 1000
next table: 1071
cur table: 1114
epoch: 1000
next table: 1911
cur table: 1829
epoch: 1000
next table: 1093
cur table: 1071
epoch: 1000
next table: 1953
cur table: 1911
epoch: 1000
next table: 1086
cur table: 1093
epoch: 1000
next table: 1866
cur table: 1953
epoch: 1000
next table: 1059
cur table: 1086
epoch: 1000
next table: 1691
cur table: 1866
epoch: 1000
next table: 1807
cur table: 1691
epoch: 1000
next table: 1079
cur table: 1059
epoch: 1000
next table: 1670
cur table: 1807
epoch: 1000
next table: 1095
cur table: 1079
epoch: 1000
next table: 1831
cur table: 1670
epoch: 1000
next table: 1091
cur table: 1095
epoch: 1000
next table: 2020
cur table: 1831
epoch: 1000
next table: 1088
cur table: 1091
epoch: 1000
next table: 1970
cur table: 2020
epoch: 1000
next table: 1208
cur table: 1088
epoch: 1000
next table: 1823
cur table: 1970
epoch: 1000
next table: 1085
cur table: 1208
epoch: 1000
next table: 1710
cur table: 1823
epoch: 1000
next table: 1789
cur table: 1710
epoch: 1000
next table: 1115
cur table: 1085
epoch: 1000
next table: 1832
cur table: 1789
epoch: 1000
next table: 1070
cur table: 1115
epoch: 1000
next table: 1872
cur table: 1832
epoch: 1000
next table: 1097
cur table: 1070
epoch: 1000
next table: 2015
cur table: 1872
epoch: 1000
next table: 1081
cur table: 1097
epoch: 1000
next table: 1850
cur table: 2015
epoch: 1000
next table: 1081
cur table: 1081
epoch: 1000
next table: 1671
cur table: 1850
epoch: 1000
next table: 1815
cur table: 1671
epoch: 1000
next table: 1067
cur table: 1081
epoch: 1000
next table: 1672
cur table: 1815
epoch: 1000
next table: 1104
cur table: 1067
epoch: 1000
next table: 1830
cur table: 1672
epoch: 1000
next table: 1072
cur table: 1104
epoch: 1000
next table: 2007
cur table: 1830
epoch: 1000
next table: 1085
cur table: 1072
epoch: 1000
next table: 1867
cur table: 2007
epoch: 1000
next table: 1853
cur table: 1867
epoch: 1000
next table: 1074
cur table: 1085
epoch: 1000
next table: 1835
cur table: 1853
epoch: 1000
next table: 1092
cur table: 1074
epoch: 1000
next table: 1673
cur table: 1835
epoch: 1000
next table: 1068
cur table: 1092
epoch: 1000
next table: 1803
cur table: 1673
epoch: 1000
next table: 1074
cur table: 1068
epoch: 1000
next table: 1844
cur table: 1803
epoch: 1000
next table: 1089
cur table: 1074
epoch: 1000
next table: 1866
cur table: 1844
epoch: 1000
next table: 2022
cur table: 1866
epoch: 1000
next table: 1168
cur table: 1089
epoch: 1000
next table: 1790
cur table: 2022
epoch: 1000
next table: 1130
cur table: 1168
epoch: 1000
next table: 1819
cur table: 1790
epoch: 1000
next table: 1099
cur table: 1130
epoch: 1000
next table: 1670
cur table: 1819
epoch: 1000
next table: 1076
cur table: 1099
epoch: 1000
next table: 1828
cur table: 1670
epoch: 1000
next table: 1095
cur table: 1076
epoch: 1000
next table: 2012
cur table: 1828
epoch: 1000
next table: 1068
cur table: 1095
epoch: 1000
next table: 1874
cur table: 2012
epoch: 1000
next table: 1859
cur table: 1874
epoch: 1000
next table: 1087
cur table: 1068
epoch: 1000
next table: 1837
cur table: 1859
epoch: 1000
next table: 1074
cur table: 1087
epoch: 1000
next table: 1823
cur table: 1837
epoch: 1000
next table: 1069
cur table: 1074
epoch: 1000
next table: 1657
cur table: 1823
epoch: 1000
next table: 1084
cur table: 1069
epoch: 1000
next table: 1840
cur table: 1657
epoch: 1000
next table: 1068
cur table: 1084
epoch: 1000
next table: 1993
cur table: 1840
epoch: 1000
next table: 1890
cur table: 1993
epoch: 1000
next table: 1084
cur table: 1068
epoch: 1000
next table: 1847
cur table: 1890
epoch: 1000
next table: 1065
cur table: 1084
epoch: 1000
next table: 1758
cur table: 1847
epoch: 1000
next table: 1086
cur table: 1065
epoch: 1000
next table: 1798
cur table: 1758
epoch: 1000
next table: 1109
cur table: 1086
epoch: 1000
next table: 1783
cur table: 1798
epoch: 1000
next table: 1088
cur table: 1109
epoch: 1000
next table: 1834
cur table: 1783
epoch: 1000
next table: 1877
cur table: 1834
epoch: 1000
next table: 1104
cur table: 1088
epoch: 1000
next table: 1970
cur table: 1877
epoch: 1000
next table: 1225
cur table: 1104
epoch: 1000
next table: 1806
cur table: 1970
epoch: 1000
next table: 1069
cur table: 1225
epoch: 1000
next table: 1821
cur table: 1806
epoch: 1000
next table: 1088
cur table: 1069
epoch: 1000
next table: 1663
cur table: 1821
epoch: 1000
next table: 1064
cur table: 1088
epoch: 1000
next table: 1836
cur table: 1663
epoch: 1000
next table: 2003
cur table: 1836
epoch: 1000
next table: 1089
cur table: 1064
Heartbeat CPU 0 instructions: 30000003 cycles: 9632431 heartbeat IPC: 3.11448 cumulative IPC: 3.11448 (Simulation time: 0 hr 16 min 16 sec) 
epoch: 1000
next table: 1893
cur table: 2003
epoch: 1000
next table: 1178
cur table: 1089
epoch: 1000
next table: 1852
cur table: 1893
epoch: 1000
next table: 1108
cur table: 1178
epoch: 1000
next table: 1828
cur table: 1852
epoch: 1000
next table: 1075
cur table: 1108
epoch: 1000
next table: 1712
cur table: 1828
epoch: 1000
next table: 1114
cur table: 1075
epoch: 1000
next table: 1802
cur table: 1712
epoch: 1000
next table: 1076
cur table: 1114
epoch: 1000
next table: 1827
cur table: 1802
epoch: 1000
next table: 1867
cur table: 1827
epoch: 1000
next table: 1095
cur table: 1076
epoch: 1000
next table: 1989
cur table: 1867
epoch: 1000
next table: 1087
cur table: 1095
epoch: 1000
next table: 1855
cur table: 1989
epoch: 1000
next table: 1073
cur table: 1087
epoch: 1000
next table: 1690
cur table: 1855
epoch: 1000
next table: 1077
cur table: 1073
epoch: 1000
next table: 1819
cur table: 1690
epoch: 1000
next table: 1661
cur table: 1819
epoch: 1000
next table: 1122
cur table: 1077
epoch: 1000
next table: 1829
cur table: 1661
epoch: 1000
next table: 1071
cur table: 1122
epoch: 1000
next table: 2013
cur table: 1829
epoch: 1000
next table: 1085
cur table: 1071
epoch: 1000
next table: 1857
cur table: 2013
epoch: 1000
next table: 1218
cur table: 1085
epoch: 1000
next table: 1846
cur table: 1857
epoch: 1000
next table: 1077
cur table: 1218
epoch: 1000
next table: 1803
cur table: 1846
epoch: 1000
next table: 1116
cur table: 1077
epoch: 1000
next table: 1781
cur table: 1803
epoch: 1000
next table: 1076
cur table: 1116
epoch: 1000
next table: 1826
cur table: 1781
epoch: 1000
next table: 1856
cur table: 1826
epoch: 1000
next table: 1082
cur table: 1076
epoch: 1000
next table: 1870
cur table: 1856
epoch: 1000
next table: 1099
cur table: 1082
epoch: 1000
next table: 1857
cur table: 1870
epoch: 1000
next table: 1118
cur table: 1099
epoch: 1000
next table: 1832
cur table: 1857
epoch: 1000
next table: 1067
cur table: 1118
epoch: 1000
next table: 1813
cur table: 1832
epoch: 1000
next table: 1092
cur table: 1067
epoch: 1000
next table: 1690
cur table: 1813
epoch: 1000
next table: 1827
cur table: 1690
epoch: 1000
next table: 1083
cur table: 1092
epoch: 1000
next table: 1857
cur table: 1827
epoch: 1000
next table: 1091
cur table: 1083
epoch: 1000
next table: 2005
cur table: 1857
epoch: 1000
next table: 1078
cur table: 1091
epoch: 1000
next table: 1863
cur table: 2005
epoch: 1000
next table: 1082
cur table: 1078
epoch: 1000
next table: 1840
cur table: 1863
epoch: 1000
next table: 1091
cur table: 1082
epoch: 1000
next table: 1683
cur table: 1840
epoch: 1000
next table: 1787
cur table: 1683
epoch: 1000
next table: 1071
cur table: 1091
epoch: 1000
next table: 1847
cur table: 1787
epoch: 1000
next table: 1099
cur table: 1071
epoch: 1000
next table: 1871
cur table: 1847
epoch: 1000
next table: 1073
cur table: 1099
epoch: 1000
next table: 1899
cur table: 1871
epoch: 1000
next table: 1207
cur table: 1073
epoch: 1000
next table: 1894
cur table: 1899
epoch: 1000
next table: 1092
cur table: 1207
epoch: 1000
next table: 1713
cur table: 1894
epoch: 1000
next table: 1804
cur table: 1713
epoch: 1000
next table: 1077
cur table: 1092
epoch: 1000
next table: 1820
cur table: 1804
epoch: 1000
next table: 1068
cur table: 1077
epoch: 1000
next table: 1869
cur table: 1820
epoch: 1000
next table: 1091
cur table: 1068
epoch: 1000
next table: 1858
cur table: 1869
epoch: 1000
next table: 1071
cur table: 1091
epoch: 1000
next table: 2003
cur table: 1858
epoch: 1000
next table: 1087
cur table: 1071
epoch: 1000
next table: 1835
cur table: 2003
epoch: 1000
next table: 1081
cur table: 1087
epoch: 1000
next table: 1681
cur table: 1835
epoch: 1000
next table: 1805
cur table: 1681
epoch: 1000
next table: 1065
cur table: 1081
epoch: 1000
next table: 1698
cur table: 1805
epoch: 1000
next table: 1082
cur table: 1065
epoch: 1000
next table: 2012
cur table: 1698
epoch: 1000
next table: 1068
cur table: 1082
epoch: 1000
next table: 1973
cur table: 2012
epoch: 1000
next table: 1086
cur table: 1068
epoch: 1000
next table: 1825
cur table: 1973
epoch: 1000
next table: 1074
cur table: 1086
epoch: 1000
next table: 1824
cur table: 1825
epoch: 1000
next table: 1768
cur table: 1824
epoch: 1000
next table: 1093
cur table: 1074
epoch: 1000
next table: 1814
cur table: 1768
epoch: 1000
next table: 1120
cur table: 1093
epoch: 1000
next table: 1824
cur table: 1814
epoch: 1000
next table: 1088
cur table: 1120
epoch: 1000
next table: 1888
cur table: 1824
epoch: 1000
next table: 1221
cur table: 1088
epoch: 1000
next table: 1913
cur table: 1888
epoch: 1000
next table: 1077
cur table: 1221
epoch: 1000
next table: 1868
cur table: 1913
epoch: 1000
next table: 1678
cur table: 1868
epoch: 1000
next table: 1069
cur table: 1077
epoch: 1000
next table: 1812
cur table: 1678
epoch: 1000
next table: 1085
cur table: 1069
epoch: 1000
next table: 1836
cur table: 1812
epoch: 1000
next table: 1073
cur table: 1085
epoch: 1000
next table: 1867
cur table: 1836
epoch: 1000
next table: 1079
cur table: 1073
epoch: 1000
next table: 1981
cur table: 1867
epoch: 1000
next table: 1074
cur table: 1079
epoch: 1000
next table: 1896
cur table: 1981
epoch: 1000
next table: 1744
cur table: 1896
epoch: 1000
next table: 1081
cur table: 1074
epoch: 1000
next table: 1806
cur table: 1744
epoch: 1000
next table: 1097
cur table: 1081
epoch: 1000
next table: 1790
cur table: 1806
epoch: 1000
next table: 1098
cur table: 1097
epoch: 1000
next table: 1835
cur table: 1790
epoch: 1000
next table: 1083
cur table: 1098
epoch: 1000
next table: 1875
cur table: 1835
epoch: 1000
next table: 1079
cur table: 1083
epoch: 1000
next table: 1858
cur table: 1875
epoch: 1000
next table: 1080
cur table: 1079
epoch: 1000
next table: 1995
cur table: 1858
epoch: 1000
next table: 1694
cur table: 1995
epoch: 1000
next table: 1070
cur table: 1080
epoch: 1000
next table: 1829
cur table: 1694
epoch: 1000
next table: 1076
cur table: 1070
epoch: 1000
next table: 1669
cur table: 1829
epoch: 1000
next table: 1091
cur table: 1076
epoch: 1000
next table: 1836
cur table: 1669
epoch: 1000
next table: 1091
cur table: 1091
epoch: 1000
next table: 2016
cur table: 1836
epoch: 1000
next table: 1223
cur table: 1091
epoch: 1000
next table: 1938
cur table: 2016
epoch: 1000
next table: 1841
cur table: 1938
epoch: 1000
next table: 1065
cur table: 1223
epoch: 1000
next table: 1710
cur table: 1841
epoch: 1000
next table: 1106
cur table: 1065
epoch: 1000
next table: 1788
cur table: 1710
epoch: 1000
next table: 1090
cur table: 1106
epoch: 1000
next table: 1839
cur table: 1788
epoch: 1000
next table: 1088
cur table: 1090
epoch: 1000
next table: 1871
cur table: 1839
epoch: 1000
next table: 1088
cur table: 1088
epoch: 1000
next table: 2024
cur table: 1871
epoch: 1000
next table: 1849
cur table: 2024
epoch: 1000
next table: 1069
cur table: 1088
epoch: 1000
next table: 1818
cur table: 1849
epoch: 1000
next table: 1075
cur table: 1069
epoch: 1000
next table: 1671
cur table: 1818
epoch: 1000
next table: 1071
cur table: 1075
epoch: 1000
next table: 1683
cur table: 1671
epoch: 1000
next table: 1068
cur table: 1071
epoch: 1000
next table: 1820
cur table: 1683
epoch: 1000
next table: 1085
cur table: 1068
epoch: 1000
next table: 2016
cur table: 1820
epoch: 1000
next table: 1857
cur table: 2016
epoch: 1000
next table: 1092
cur table: 1085
epoch: 1000
next table: 1929
cur table: 1857
epoch: 1000
next table: 1083
cur table: 1092
epoch: 1000
next table: 1769
cur table: 1929
epoch: 1000
next table: 1080
cur table: 1083
epoch: 1000
next table: 1806
cur table: 1769
epoch: 1000
next table: 1068
cur table: 1080
epoch: 1000
next table: 1671
cur table: 1806
epoch: 1000
next table: 1089
cur table: 1068
epoch: 1000
next table: 1850
cur table: 1671
epoch: 1000
next table: 1995
cur table: 1850
epoch: 1000
next table: 1146
cur table: 1089
epoch: 1000
next table: 1812
cur table: 1995
epoch: 1000
next table: 1142
cur table: 1146
epoch: 1000
next table: 1859
cur table: 1812
epoch: 1000
next table: 1088
cur table: 1142
epoch: 1000
next table: 1815
cur table: 1859
epoch: 1000
next table: 1057
cur table: 1088
epoch: 1000
next table: 1680
cur table: 1815
epoch: 1000
next table: 1070
cur table: 1057
epoch: 1000
next table: 1832
cur table: 1680
epoch: 1000
next table: 1090
cur table: 1070
epoch: 1000
next table: 2019
cur table: 1832
epoch: 1000
next table: 1869
cur table: 2019
epoch: 1000
next table: 1092
cur table: 1090
epoch: 1000
next table: 1854
cur table: 1869
epoch: 1000
next table: 1074
cur table: 1092
epoch: 1000
next table: 1831
cur table: 1854
epoch: 1000
next table: 1067
cur table: 1074
epoch: 1000
next table: 1826
cur table: 1831
epoch: 1000
next table: 1093
cur table: 1067
epoch: 1000
next table: 1661
cur table: 1826
epoch: 1000
next table: 1081
cur table: 1093
epoch: 1000
next table: 1836
cur table: 1661
epoch: 1000
next table: 1999
cur table: 1836
epoch: 1000
next table: 1081
cur table: 1081
epoch: 1000
next table: 1886
cur table: 1999
epoch: 1000
next table: 1072
cur table: 1081
epoch: 1000
next table: 1851
cur table: 1886
epoch: 1000
next table: 1082
cur table: 1072
epoch: 1000
next table: 1844
cur table: 1851
epoch: 1000
next table: 1066
cur table: 1082
epoch: 1000
next table: 1697
cur table: 1844
epoch: 1000
next table: 1105
cur table: 1066
epoch: 1000
next table: 1799
cur table: 1697
epoch: 1000
next table: 1068
cur table: 1105
epoch: 1000
next table: 1834
cur table: 1799
epoch: 1000
next table: 1994
cur table: 1834
epoch: 1000
next table: 1227
cur table: 1068
epoch: 1000
next table: 1812
cur table: 1994
epoch: 1000
next table: 1091
cur table: 1227
epoch: 1000
next table: 1855
cur table: 1812
epoch: 1000
next table: 1072
cur table: 1091
epoch: 1000
next table: 1819
cur table: 1855
epoch: 1000
next table: 1075
cur table: 1072
epoch: 1000
next table: 1671
cur table: 1819
epoch: 1000
next table: 1071
cur table: 1075
epoch: 1000
next table: 1832
cur table: 1671
epoch: 1000
next table: 1072
cur table: 1071
epoch: 1000
next table: 2000
cur table: 1832
epoch: 1000
next table: 1885
cur table: 2000
epoch: 1000
next table: 1085
cur table: 1072
epoch: 1000
next table: 1844
cur table: 1885
epoch: 1000
next table: 1084
cur table: 1085
epoch: 1000
next table: 1783
cur table: 1844
epoch: 1000
next table: 1070
cur table: 1084
epoch: 1000
next table: 1760
cur table: 1783
epoch: 1000
next table: 1145
cur table: 1070
epoch: 1000
next table: 1790
cur table: 1760
epoch: 1000
next table: 1072
cur table: 1145
epoch: 1000
next table: 1837
cur table: 1790
epoch: 1000
next table: 1874
cur table: 1837
epoch: 1000
next table: 1088
cur table: 1072
epoch: 1000
next table: 1997
cur table: 1874
epoch: 1000
next table: 1083
cur table: 1088
epoch: 1000
next table: 1861
cur table: 1997
epoch: 1000
next table: 1070
cur table: 1083
epoch: 1000
next table: 1838
cur table: 1861
epoch: 1000
next table: 1060
cur table: 1070
epoch: 1000
next table: 1682
cur table: 1838
epoch: 1000
next table: 1099
cur table: 1060
epoch: 1000
next table: 1802
cur table: 1682
epoch: 1000
next table: 1080
cur table: 1099
epoch: 1000
next table: 1847
cur table: 1802
epoch: 1000
next table: 1914
cur table: 1847
epoch: 1000
next table: 1219
cur table: 1080
epoch: 1000
next table: 1897
cur table: 1914
epoch: 1000
next table: 1068
cur table: 1219
epoch: 1000
next table: 1844
cur table: 1897
epoch: 1000
next table: 1080
cur table: 1068
epoch: 1000
next table: 1711
cur table: 1844
epoch: 1000
next table: 1110
cur table: 1080
epoch: 1000
next table: 1796
cur table: 1711
epoch: 1000
next table: 1073
cur table: 1110
epoch: 1000
next table: 1833
cur table: 1796
epoch: 1000
next table: 1081
cur table: 1073
epoch: 1000
next table: 1874
cur table: 1833
epoch: 1000
next table: 2014
cur table: 1874
epoch: 1000
next table: 1073
cur table: 1081
epoch: 1000
next table: 1856
cur table: 2014
epoch: 1000
next table: 1081
cur table: 1073
epoch: 1000
next table: 1836
cur table: 1856
epoch: 1000
next table: 1067
cur table: 1081
epoch: 1000
next table: 1665
cur table: 1836
epoch: 1000
next table: 1092
cur table: 1067
epoch: 1000
next table: 1822
cur table: 1665
epoch: 1000
next table: 1079
cur table: 1092
epoch: 1000
next table: 1845
cur table: 1822
epoch: 1000
next table: 1070
cur table: 1079
epoch: 1000
next table: 1868
cur table: 1845
epoch: 1000
next table: 1967
cur table: 1868
epoch: 1000
next table: 1086
cur table: 1070
epoch: 1000
next table: 1902
cur table: 1967
epoch: 1000
next table: 1066
cur table: 1086
epoch: 1000
next table: 1741
cur table: 1902
epoch: 1000
next table: 1086
cur table: 1066
epoch: 1000
next table: 1793
cur table: 1741
epoch: 1000
next table: 1062
cur table: 1086
epoch: 1000
next table: 1788
cur table: 1793
epoch: 1000
next table: 1075
cur table: 1062
epoch: 1000
next table: 1852
cur table: 1788
epoch: 1000
next table: 1222
cur table: 1075
epoch: 1000
next table: 1927
cur table: 1852
epoch: 1000
next table: 1875
cur table: 1927
epoch: 1000
next table: 1066
cur table: 1222
epoch: 1000
next table: 1855
cur table: 1875
epoch: 1000
next table: 1080
cur table: 1066
epoch: 1000
next table: 1675
cur table: 1855
epoch: 1000
next table: 1073
cur table: 1080
epoch: 1000
next table: 1810
cur table: 1675
epoch: 1000
next table: 1068
cur table: 1073
epoch: 1000
next table: 1843
cur table: 1810
epoch: 1000
next table: 1090
cur table: 1068
epoch: 1000
next table: 1873
cur table: 1843
epoch: 1000
next table: 1082
cur table: 1090
epoch: 1000
next table: 1973
cur table: 1873
Heartbeat CPU 0 instructions: 40000001 cycles: 12842959 heartbeat IPC: 3.11475 cumulative IPC: 3.11455 (Simulation time: 0 hr 22 min 0 sec) 
epoch: 1000
next table: 1822
cur table: 1973
epoch: 1000
next table: 1077
cur table: 1082
epoch: 1000
next table: 1805
cur table: 1822
epoch: 1000
next table: 1065
cur table: 1077
epoch: 1000
next table: 1778
cur table: 1805
epoch: 1000
next table: 1074
cur table: 1065
epoch: 1000
next table: 1808
cur table: 1778
epoch: 1000
next table: 1079
cur table: 1074
epoch: 1000
next table: 1831
cur table: 1808
epoch: 1000
next table: 1092
cur table: 1079
epoch: 1000
next table: 1884
cur table: 1831
epoch: 1000
next table: 1864
cur table: 1884
epoch: 1000
next table: 1073
cur table: 1092
epoch: 1000
next table: 1829
cur table: 1864
epoch: 1000
next table: 1088
cur table: 1073
epoch: 1000
next table: 1727
cur table: 1829
epoch: 1000
next table: 1067
cur table: 1088
epoch: 1000
next table: 1791
cur table: 1727
epoch: 1000
next table: 1098
cur table: 1067
epoch: 1000
next table: 1789
cur table: 1791
epoch: 1000
next table: 1081
cur table: 1098
epoch: 1000
next table: 1822
cur table: 1789
epoch: 1000
next table: 1764
cur table: 1822
epoch: 1000
next table: 1230
cur table: 1081
epoch: 1000
next table: 1881
cur table: 1764
epoch: 1000
next table: 1086
cur table: 1230
epoch: 1000
next table: 1853
cur table: 1881
epoch: 1000
next table: 1068
cur table: 1086
epoch: 1000
next table: 1817
cur table: 1853
epoch: 1000
next table: 1078
cur table: 1068
epoch: 1000
next table: 1682
cur table: 1817
epoch: 1000
next table: 1079
cur table: 1078
epoch: 1000
next table: 1820
cur table: 1682
epoch: 1000
next table: 1857
cur table: 1820
epoch: 1000
next table: 1085
cur table: 1079
epoch: 1000
next table: 2023
cur table: 1857
epoch: 1000
next table: 1088
cur table: 1085
epoch: 1000
next table: 1862
cur table: 2023
epoch: 1000
next table: 1064
cur table: 1088
epoch: 1000
next table: 1837
cur table: 1862
epoch: 1000
next table: 1089
cur table: 1064
epoch: 1000
next table: 1820
cur table: 1837
epoch: 1000
next table: 1119
cur table: 1089
epoch: 1000
next table: 1667
cur table: 1820
epoch: 1000
next table: 1819
cur table: 1667
epoch: 1000
next table: 1074
cur table: 1119
epoch: 1000
next table: 1867
cur table: 1819
epoch: 1000
next table: 1085
cur table: 1074
epoch: 1000
next table: 1969
cur table: 1867
epoch: 1000
next table: 1086
cur table: 1085
epoch: 1000
next table: 1813
cur table: 1969
epoch: 1000
next table: 1081
cur table: 1086
epoch: 1000
next table: 1756
cur table: 1813
epoch: 1000
next table: 1068
cur table: 1081
epoch: 1000
next table: 1820
cur table: 1756
epoch: 1000
next table: 1668
cur table: 1820
epoch: 1000
next table: 1119
cur table: 1068
epoch: 1000
next table: 1812
cur table: 1668
epoch: 1000
next table: 1092
cur table: 1119
epoch: 1000
next table: 1907
cur table: 1812
epoch: 1000
next table: 1231
cur table: 1092
epoch: 1000
next table: 1713
cur table: 1907
epoch: 1000
next table: 1078
cur table: 1231
epoch: 1000
next table: 1932
cur table: 1713
epoch: 1000
next table: 1069
cur table: 1078
epoch: 1000
next table: 1767
cur table: 1932
epoch: 1000
next table: 1827
cur table: 1767
epoch: 1000
next table: 1070
cur table: 1069
epoch: 1000
next table: 1656
cur table: 1827
epoch: 1000
next table: 1111
cur table: 1070
epoch: 1000
next table: 1998
cur table: 1656
epoch: 1000
next table: 1084
cur table: 1111
epoch: 1000
next table: 1891
cur table: 1998
epoch: 1000
next table: 1077
cur table: 1084
epoch: 1000
next table: 1861
cur table: 1891
epoch: 1000
next table: 1082
cur table: 1077
epoch: 1000
next table: 1849
cur table: 1861
epoch: 1000
next table: 1825
cur table: 1849
epoch: 1000
next table: 1066
cur table: 1082
epoch: 1000
next table: 1696
cur table: 1825
epoch: 1000
next table: 1071
cur table: 1066
epoch: 1000
next table: 1805
cur table: 1696
epoch: 1000
next table: 1078
cur table: 1071
epoch: 1000
next table: 1849
cur table: 1805
epoch: 1000
next table: 1075
cur table: 1078
epoch: 1000
next table: 2008
cur table: 1849
epoch: 1000
next table: 1084
cur table: 1075
epoch: 1000
next table: 1861
cur table: 2008
epoch: 1000
next table: 1066
cur table: 1084
epoch: 1000
next table: 1854
cur table: 1861
epoch: 1000
next table: 1839
cur table: 1854
epoch: 1000
next table: 1083
cur table: 1066
epoch: 1000
next table: 1804
cur table: 1839
epoch: 1000
next table: 1063
cur table: 1083
epoch: 1000
next table: 1687
cur table: 1804
epoch: 1000
next table: 1073
cur table: 1063
epoch: 1000
next table: 1904
cur table: 1687
epoch: 1000
next table: 1247
cur table: 1073
epoch: 1000
next table: 1882
cur table: 1904
epoch: 1000
next table: 1069
cur table: 1247
epoch: 1000
next table: 1862
cur table: 1882
epoch: 1000
next table: 1077
cur table: 1069
epoch: 1000
next table: 1834
cur table: 1862
epoch: 1000
next table: 1698
cur table: 1834
epoch: 1000
next table: 1095
cur table: 1077
epoch: 1000
next table: 1804
cur table: 1698
epoch: 1000
next table: 1072
cur table: 1095
epoch: 1000
next table: 1854
cur table: 1804
epoch: 1000
next table: 1087
cur table: 1072
epoch: 1000
next table: 2013
cur table: 1854
epoch: 1000
next table: 1081
cur table: 1087
epoch: 1000
next table: 1872
cur table: 2013
epoch: 1000
next table: 1072
cur table: 1081
epoch: 1000
next table: 1844
cur table: 1872
epoch: 1000
next table: 1819
cur table: 1844
epoch: 1000
next table: 1068
cur table: 1072
epoch: 1000
next table: 1676
cur table: 1819
epoch: 1000
next table: 1069
cur table: 1068
epoch: 1000
next table: 1813
cur table: 1676
epoch: 1000
next table: 1079
cur table: 1069
epoch: 1000
next table: 1862
cur table: 1813
epoch: 1000
next table: 1088
cur table: 1079
epoch: 1000
next table: 1992
cur table: 1862
epoch: 1000
next table: 1071
cur table: 1088
epoch: 1000
next table: 1884
cur table: 1992
epoch: 1000
next table: 1773
cur table: 1884
epoch: 1000
next table: 1092
cur table: 1071
epoch: 1000
next table: 1802
cur table: 1773
epoch: 1000
next table: 1062
cur table: 1092
epoch: 1000
next table: 1773
cur table: 1802
epoch: 1000
next table: 1101
cur table: 1062
epoch: 1000
next table: 1817
cur table: 1773
epoch: 1000
next table: 1100
cur table: 1101
epoch: 1000
next table: 1804
cur table: 1817
epoch: 1000
next table: 1214
cur table: 1100
epoch: 1000
next table: 1979
cur table: 1804
epoch: 1000
next table: 1081
cur table: 1214
epoch: 1000
next table: 1865
cur table: 1979
epoch: 1000
next table: 1684
cur table: 1865
epoch: 1000
next table: 1069
cur table: 1081
epoch: 1000
next table: 1826
cur table: 1684
epoch: 1000
next table: 1074
cur table: 1069
epoch: 1000
next table: 1680
cur table: 1826
epoch: 1000
next table: 1078
cur table: 1074
epoch: 1000
next table: 1975
cur table: 1680
epoch: 1000
next table: 1070
cur table: 1078
epoch: 1000
next table: 1875
cur table: 1975
epoch: 1000
next table: 1085
cur table: 1070
epoch: 1000
next table: 1965
cur table: 1875
epoch: 1000
next table: 1066
cur table: 1085
epoch: 1000
next table: 1820
cur table: 1965
epoch: 1000
next table: 1801
cur table: 1820
epoch: 1000
next table: 1083
cur table: 1066
epoch: 1000
next table: 1789
cur table: 1801
epoch: 1000
next table: 1119
cur table: 1083
epoch: 1000
next table: 1659
cur table: 1789
epoch: 1000
next table: 1077
cur table: 1119
epoch: 1000
next table: 1995
cur table: 1659
epoch: 1000
next table: 1085
cur table: 1077
epoch: 1000
next table: 1883
cur table: 1995
epoch: 1000
next table: 1085
cur table: 1085
epoch: 1000
next table: 1859
cur table: 1883
epoch: 1000
next table: 1859
cur table: 1859
epoch: 1000
next table: 1072
cur table: 1085
epoch: 1000
next table: 1822
cur table: 1859
epoch: 1000
next table: 1066
cur table: 1072
epoch: 1000
next table: 1689
cur table: 1822
epoch: 1000
next table: 1132
cur table: 1066
epoch: 1000
next table: 1814
cur table: 1689
epoch: 1000
next table: 1208
cur table: 1132
epoch: 1000
next table: 1898
cur table: 1814
epoch: 1000
next table: 1114
cur table: 1208
epoch: 1000
next table: 1875
cur table: 1898
epoch: 1000
next table: 1076
cur table: 1114
epoch: 1000
next table: 1856
cur table: 1875
epoch: 1000
next table: 1844
cur table: 1856
epoch: 1000
next table: 1087
cur table: 1076
epoch: 1000
next table: 1802
cur table: 1844
epoch: 1000
next table: 1089
cur table: 1087
epoch: 1000
next table: 1671
cur table: 1802
epoch: 1000
next table: 1077
cur table: 1089
epoch: 1000
next table: 1850
cur table: 1671
epoch: 1000
next table: 1085
cur table: 1077
epoch: 1000
next table: 1994
cur table: 1850
epoch: 1000
next table: 1081
cur table: 1085
epoch: 1000
next table: 1891
cur table: 1994
epoch: 1000
next table: 1843
cur table: 1891
epoch: 1000
next table: 1077
cur table: 1081
epoch: 1000
next table: 1727
cur table: 1843
epoch: 1000
next table: 1065
cur table: 1077
epoch: 1000
next table: 1798
cur table: 1727
epoch: 1000
next table: 1104
cur table: 1065
epoch: 1000
next table: 1792
cur table: 1798
epoch: 1000
next table: 1066
cur table: 1104
epoch: 1000
next table: 1853
cur table: 1792
epoch: 1000
next table: 1088
cur table: 1066
epoch: 1000
next table: 1870
cur table: 1853
epoch: 1000
next table: 1857
cur table: 1870
epoch: 1000
next table: 1075
cur table: 1088
epoch: 1000
next table: 1997
cur table: 1857
epoch: 1000
next table: 1077
cur table: 1075
epoch: 1000
next table: 1693
cur table: 1997
epoch: 1000
next table: 1095
cur table: 1077
epoch: 1000
next table: 1800
cur table: 1693
epoch: 1000
next table: 1066
cur table: 1095
epoch: 1000
next table: 1688
cur table: 1800
epoch: 1000
next table: 1250
cur table: 1066
epoch: 1000
next table: 1894
cur table: 1688
epoch: 1000
next table: 1873
cur table: 1894
epoch: 1000
next table: 1087
cur table: 1250
epoch: 1000
next table: 1866
cur table: 1873
epoch: 1000
next table: 1071
cur table: 1087
epoch: 1000
next table: 1844
cur table: 1866
epoch: 1000
next table: 1075
cur table: 1071
epoch: 1000
next table: 1804
cur table: 1844
epoch: 1000
next table: 1074
cur table: 1075
epoch: 1000
next table: 1663
cur table: 1804
epoch: 1000
next table: 1086
cur table: 1074
epoch: 1000
next table: 1845
cur table: 1663
epoch: 1000
next table: 1085
cur table: 1086
epoch: 1000
next table: 1867
cur table: 1845
epoch: 1000
next table: 1969
cur table: 1867
epoch: 1000
next table: 1080
cur table: 1085
epoch: 1000
next table: 1824
cur table: 1969
epoch: 1000
next table: 1069
cur table: 1080
epoch: 1000
next table: 1811
cur table: 1824
epoch: 1000
next table: 1084
cur table: 1069
epoch: 1000
next table: 1802
cur table: 1811
epoch: 1000
next table: 1057
cur table: 1084
epoch: 1000
next table: 1795
cur table: 1802
epoch: 1000
next table: 1071
cur table: 1057
epoch: 1000
next table: 1823
cur table: 1795
epoch: 1000
next table: 1084
cur table: 1071
epoch: 1000
next table: 1884
cur table: 1823
epoch: 1000
next table: 1857
cur table: 1884
epoch: 1000
next table: 1076
cur table: 1084
epoch: 1000
next table: 1855
cur table: 1857
epoch: 1000
next table: 1091
cur table: 1076
epoch: 1000
next table: 1834
cur table: 1855
epoch: 1000
next table: 1064
cur table: 1091
epoch: 1000
next table: 1806
cur table: 1834
epoch: 1000
next table: 1100
cur table: 1064
epoch: 1000
next table: 1683
cur table: 1806
epoch: 1000
next table: 1242
cur table: 1100
epoch: 1000
next table: 1897
cur table: 1683
epoch: 1000
next table: 1878
cur table: 1897
epoch: 1000
next table: 1087
cur table: 1242
epoch: 1000
next table: 1925
cur table: 1878
epoch: 1000
next table: 1075
cur table: 1087
epoch: 1000
next table: 1779
cur table: 1925
epoch: 1000
next table: 1077
cur table: 1075
epoch: 1000
next table: 1830
cur table: 1779
epoch: 1000
next table: 1083
cur table: 1077
epoch: 1000
next table: 1671
cur table: 1830
epoch: 1000
next table: 1068
cur table: 1083
epoch: 1000
next table: 1812
cur table: 1671
epoch: 1000
next table: 2003
cur table: 1812
epoch: 1000
next table: 1085
cur table: 1068
epoch: 1000
next table: 1896
cur table: 2003
epoch: 1000
next table: 1084
cur table: 1085
epoch: 1000
next table: 1847
cur table: 1896
epoch: 1000
next table: 1066
cur table: 1084
epoch: 1000
next table: 1833
cur table: 1847
epoch: 1000
next table: 1092
cur table: 1066
epoch: 1000
next table: 1713
cur table: 1833
epoch: 1000
next table: 1799
cur table: 1713
epoch: 1000
next table: 1154
cur table: 1092
epoch: 1000
next table: 1826
cur table: 1799
epoch: 1000
next table: 1071
cur table: 1154
epoch: 1000
next table: 1872
cur table: 1826
epoch: 1000
next table: 1094
cur table: 1071
epoch: 1000
next table: 2002
cur table: 1872
epoch: 1000
next table: 1072
cur table: 1094
epoch: 1000
next table: 1867
cur table: 2002
epoch: 1000
next table: 1084
cur table: 1072
epoch: 1000
next table: 1839
cur table: 1867
epoch: 1000
next table: 1113
cur table: 1084
epoch: 1000
next table: 1679
cur table: 1839
epoch: 1000
next table: 1796
cur table: 1679
epoch: 1000
next table: 1094
cur table: 1113
epoch: 1000
next table: 1860
cur table: 1796
epoch: 1000
next table: 1244
cur table: 1094
epoch: 1000
next table: 1929
cur table: 1860
epoch: 1000
next table: 1084
cur table: 1244
epoch: 1000
next table: 1860
cur table: 1929
epoch: 1000
next table: 1071
cur table: 1084
epoch: 1000
next table: 1840
cur table: 1860
epoch: 1000
next table: 1077
cur table: 1071
epoch: 1000
next table: 1710
cur table: 1840
epoch: 1000
next table: 1781
cur table: 1710
epoch: 1000
next table: 1124
cur table: 1077
epoch: 1000
next table: 1830
cur table: 1781
epoch: 1000
next table: 1070
cur table: 1124
epoch: 1000
next table: 1879
cur table: 1830
epoch: 1000
next table: 1091
cur table: 1070
epoch: 1000
next table: 1870
cur table: 1879
epoch: 1000
next table: 1077
cur table: 1091
Heartbeat CPU 0 instructions: 50000001 cycles: 16053338 heartbeat IPC: 3.1149 cumulative IPC: 3.11462 (Simulation time: 0 hr 27 min 59 sec) 

Warmup complete CPU 0 instructions: 50000001 cycles: 16053338 (Simulation time: 0 hr 27 min 59 sec) 

epoch: 1000
next table: 1809
cur table: 1840
epoch: 1000
next table: 1071
cur table: 1089
epoch: 1000
next table: 1680
cur table: 1809
epoch: 1000
next table: 1073
cur table: 1071
epoch: 1000
next table: 1837
cur table: 1680
epoch: 1000
next table: 1076
cur table: 1073
epoch: 1000
next table: 2005
cur table: 1837
epoch: 1000
next table: 1088
cur table: 1076
epoch: 1000
next table: 1866
cur table: 2005
epoch: 1000
next table: 1071
cur table: 1088
epoch: 1000
next table: 1861
cur table: 1866
epoch: 1000
next table: 1847
cur table: 1861
epoch: 1000
next table: 1078
cur table: 1071
epoch: 1000
next table: 1823
cur table: 1847
epoch: 1000
next table: 1065
cur table: 1078
epoch: 1000
next table: 1663
cur table: 1823
epoch: 1000
next table: 1239
cur table: 1065
epoch: 1000
next table: 1922
cur table: 1663
epoch: 1000
next table: 1074
cur table: 1239
epoch: 1000
next table: 1867
cur table: 1922
epoch: 1000
next table: 1094
cur table: 1074
epoch: 1000
next table: 1853
cur table: 1867
epoch: 1000
next table: 1857
cur table: 1853
epoch: 1000
next table: 1070
cur table: 1094
epoch: 1000
next table: 1813
cur table: 1857
epoch: 1000
next table: 1069
cur table: 1070
epoch: 1000
next table: 1674
cur table: 1813
epoch: 1000
next table: 1069
cur table: 1069
epoch: 1000
next table: 1836
cur table: 1674
epoch: 1000
next table: 1088
cur table: 1069
epoch: 1000
next table: 2015
cur table: 1836
epoch: 1000
next table: 1093
cur table: 1088
epoch: 1000
next table: 1867
cur table: 2015
epoch: 1000
next table: 1076
cur table: 1093
epoch: 1000
next table: 1857
cur table: 1867
epoch: 1000
next table: 1835
cur table: 1857
epoch: 1000
next table: 1077
cur table: 1076
epoch: 1000
next table: 1819
cur table: 1835
epoch: 1000
next table: 1073
cur table: 1077
epoch: 1000
next table: 1667
cur table: 1819
epoch: 1000
next table: 1071
cur table: 1073
epoch: 1000
next table: 1824
cur table: 1667
epoch: 1000
next table: 1080
cur table: 1071
epoch: 1000
next table: 1869
cur table: 1824
epoch: 1000
next table: 1081
cur table: 1080
epoch: 1000
next table: 1964
cur table: 1869
epoch: 1000
next table: 1856
cur table: 1964
epoch: 1000
next table: 1076
cur table: 1081
epoch: 1000
next table: 1785
cur table: 1856
epoch: 1000
next table: 1069
cur table: 1076
epoch: 1000
next table: 1781
cur table: 1785
epoch: 1000
next table: 1096
cur table: 1069
epoch: 1000
next table: 1815
cur table: 1781
epoch: 1000
next table: 1263
cur table: 1096
epoch: 1000
next table: 1766
cur table: 1815
epoch: 1000
next table: 1098
cur table: 1263
epoch: 1000
next table: 1860
cur table: 1766
epoch: 1000
next table: 1072
cur table: 1098
epoch: 1000
next table: 1997
cur table: 1860
epoch: 1000
next table: 1705
cur table: 1997
epoch: 1000
next table: 1074
cur table: 1072
epoch: 1000
next table: 1813
cur table: 1705
epoch: 1000
next table: 1077
cur table: 1074
epoch: 1000
next table: 1663
cur table: 1813
epoch: 1000
next table: 1077
cur table: 1077
epoch: 1000
next table: 1826
cur table: 1663
epoch: 1000
next table: 1069
cur table: 1077
epoch: 1000
next table: 1853
cur table: 1826
epoch: 1000
next table: 1093
cur table: 1069
epoch: 1000
next table: 2003
cur table: 1853
epoch: 1000
next table: 1827
cur table: 2003
epoch: 1000
next table: 1090
cur table: 1093
epoch: 1000
next table: 1702
cur table: 1827
epoch: 1000
next table: 1067
cur table: 1090
epoch: 1000
next table: 1822
cur table: 1702
epoch: 1000
next table: 1091
cur table: 1067
epoch: 1000
next table: 1670
cur table: 1822
epoch: 1000
next table: 1122
cur table: 1091
epoch: 1000
next table: 1819
cur table: 1670
epoch: 1000
next table: 1121
cur table: 1122
epoch: 1000
next table: 1849
cur table: 1819
epoch: 1000
next table: 1122
cur table: 1121
epoch: 1000
next table: 2008
cur table: 1849
epoch: 1000
next table: 1851
cur table: 2008
epoch: 1000
next table: 1072
cur table: 1122
epoch: 1000
next table: 1846
cur table: 1851
epoch: 1000
next table: 1073
cur table: 1072
epoch: 1000
next table: 1691
cur table: 1846
epoch: 1000
next table: 1094
cur table: 1073
epoch: 1000
next table: 1809
cur table: 1691
epoch: 1000
next table: 1201
cur table: 1094
epoch: 1000
next table: 1733
cur table: 1809
epoch: 1000
next table: 1092
cur table: 1201
epoch: 1000
next table: 1998
cur table: 1733
epoch: 1000
next table: 1092
cur table: 1092
epoch: 1000
next table: 1903
cur table: 1998
epoch: 1000
next table: 1850
cur table: 1903
epoch: 1000
next table: 1105
cur table: 1092
epoch: 1000
next table: 1719
cur table: 1850
epoch: 1000
next table: 1074
cur table: 1105
epoch: 1000
next table: 1795
cur table: 1719
epoch: 1000
next table: 1087
cur table: 1074
epoch: 1000
next table: 1817
cur table: 1795
epoch: 1000
next table: 1084
cur table: 1087
epoch: 1000
next table: 1859
cur table: 1817
epoch: 1000
next table: 1081
cur table: 1084
epoch: 1000
next table: 2010
cur table: 1859
epoch: 1000
next table: 1079
cur table: 1081
epoch: 1000
next table: 1868
cur table: 2010
epoch: 1000
next table: 1847
cur table: 1868
epoch: 1000
next table: 1076
cur table: 1079
epoch: 1000
next table: 1817
cur table: 1847
epoch: 1000
next table: 1071
cur table: 1076
epoch: 1000
next table: 1675
cur table: 1817
epoch: 1000
next table: 1095
cur table: 1071
epoch: 1000
next table: 1819
cur table: 1675
epoch: 1000
next table: 1069
cur table: 1095
epoch: 1000
next table: 1862
cur table: 1819
epoch: 1000
next table: 1092
cur table: 1069
epoch: 1000
next table: 1970
cur table: 1862
epoch: 1000
next table: 1823
cur table: 1970
epoch: 1000
next table: 1086
cur table: 1092
epoch: 1000
next table: 1827
cur table: 1823
epoch: 1000
next table: 1072
cur table: 1086
epoch: 1000
next table: 1810
cur table: 1827
epoch: 1000
next table: 1065
cur table: 1072
epoch: 1000
next table: 1792
cur table: 1810
epoch: 1000
next table: 1212
cur table: 1065
epoch: 1000
next table: 1761
cur table: 1792
epoch: 1000
next table: 1093
cur table: 1212
epoch: 1000
next table: 2006
cur table: 1761
epoch: 1000
next table: 1076
cur table: 1093
epoch: 1000
next table: 1862
cur table: 2006
epoch: 1000
next table: 1858
cur table: 1862
epoch: 1000
next table: 1081
cur table: 1076
epoch: 1000
next table: 1838
cur table: 1858
epoch: 1000
next table: 1089
cur table: 1081
epoch: 1000
next table: 1667
cur table: 1838
epoch: 1000
next table: 1068
cur table: 1089
epoch: 1000
next table: 1826
cur table: 1667
epoch: 1000
next table: 1085
cur table: 1068
epoch: 1000
next table: 1856
cur table: 1826
epoch: 1000
next table: 1091
cur table: 1085
epoch: 1000
next table: 2032
cur table: 1856
epoch: 1000
next table: 1092
cur table: 1091
epoch: 1000
next table: 1864
cur table: 2032
epoch: 1000
next table: 1831
cur table: 1864
epoch: 1000
next table: 1067
cur table: 1092
epoch: 1000
next table: 1710
cur table: 1831
epoch: 1000
next table: 1074
cur table: 1067
epoch: 1000
next table: 1791
cur table: 1710
epoch: 1000
next table: 1075
cur table: 1074
epoch: 1000
next table: 1813
cur table: 1791
epoch: 1000
next table: 1084
cur table: 1075
epoch: 1000
next table: 1862
cur table: 1813
epoch: 1000
next table: 1867
cur table: 1862
epoch: 1000
next table: 1098
cur table: 1084
epoch: 1000
next table: 1993
cur table: 1867
epoch: 1000
next table: 1083
cur table: 1098
epoch: 1000
next table: 1709
cur table: 1993
epoch: 1000
next table: 1080
cur table: 1083
epoch: 1000
next table: 1828
cur table: 1709
epoch: 1000
next table: 1097
cur table: 1080
epoch: 1000
next table: 1784
cur table: 1828
epoch: 1000
next table: 1211
cur table: 1097
epoch: 1000
next table: 1792
cur table: 1784
epoch: 1000
next table: 2025
cur table: 1792
epoch: 1000
next table: 1093
cur table: 1211
epoch: 1000
next table: 1853
cur table: 2025
epoch: 1000
next table: 1073
cur table: 1093
epoch: 1000
next table: 1849
cur table: 1853
epoch: 1000
next table: 1083
cur table: 1073
epoch: 1000
next table: 1712
cur table: 1849
epoch: 1000
next table: 1068
cur table: 1083
epoch: 1000
next table: 1795
cur table: 1712
epoch: 1000
next table: 1069
cur table: 1068
epoch: 1000
next table: 1813
cur table: 1795
epoch: 1000
next table: 1087
cur table: 1069
epoch: 1000
next table: 1873
cur table: 1813
epoch: 1000
next table: 2007
cur table: 1873
epoch: 1000
next table: 1070
cur table: 1087
epoch: 1000
next table: 1867
cur table: 2007
epoch: 1000
next table: 1088
cur table: 1070
epoch: 1000
next table: 1825
cur table: 1867
epoch: 1000
next table: 1071
cur table: 1088
epoch: 1000
next table: 1832
cur table: 1825
epoch: 1000
next table: 1098
cur table: 1071
epoch: 1000
next table: 1673
cur table: 1832
epoch: 1000
next table: 1097
cur table: 1098
epoch: 1000
next table: 1823
cur table: 1673
epoch: 1000
next table: 1082
cur table: 1097
epoch: 1000
next table: 1863
cur table: 1823
epoch: 1000
next table: 1969
cur table: 1863
epoch: 1000
next table: 1083
cur table: 1082
epoch: 1000
next table: 1826
cur table: 1969
epoch: 1000
next table: 1076
cur table: 1083
epoch: 1000
next table: 1822
cur table: 1826
epoch: 1000
next table: 1070
cur table: 1076
epoch: 1000
next table: 1806
cur table: 1822
epoch: 1000
next table: 1188
cur table: 1070
epoch: 1000
next table: 1669
cur table: 1806
epoch: 1000
next table: 1135
cur table: 1188
epoch: 1000
next table: 1898
cur table: 1669
epoch: 1000
next table: 1083
cur table: 1135
epoch: 1000
next table: 1997
cur table: 1898
epoch: 1000
next table: 1872
cur table: 1997
epoch: 1000
next table: 1083
cur table: 1083
epoch: 1000
next table: 1842
cur table: 1872
epoch: 1000
next table: 1076
cur table: 1083
epoch: 1000
next table: 1827
cur table: 1842
epoch: 1000
next table: 1069
cur table: 1076
epoch: 1000
next table: 1668
cur table: 1827
epoch: 1000
next table: 1091
cur table: 1069
epoch: 1000
next table: 1830
cur table: 1668
epoch: 1000
next table: 1085
cur table: 1091
epoch: 1000
next table: 1859
cur table: 1830
epoch: 1000
next table: 1974
cur table: 1859
epoch: 1000
next table: 1091
cur table: 1085
epoch: 1000
next table: 1899
cur table: 1974
epoch: 1000
next table: 1076
cur table: 1091
epoch: 1000
next table: 1745
cur table: 1899
epoch: 1000
next table: 1078
cur table: 1076
epoch: 1000
next table: 1800
cur table: 1745
epoch: 1000
next table: 1072
cur table: 1078
epoch: 1000
next table: 1799
cur table: 1800
epoch: 1000
next table: 1068
cur table: 1072
epoch: 1000
next table: 1817
cur table: 1799
epoch: 1000
next table: 1095
cur table: 1068
epoch: 1000
next table: 1867
cur table: 1817
epoch: 1000
next table: 1861
cur table: 1867
epoch: 1000
next table: 1074
cur table: 1095
epoch: 1000
next table: 1998
cur table: 1861
epoch: 1000
next table: 1083
cur table: 1074
epoch: 1000
next table: 1706
cur table: 1998
epoch: 1000
next table: 1074
cur table: 1083
epoch: 1000
next table: 1822
cur table: 1706
epoch: 1000
next table: 1206
cur table: 1074
epoch: 1000
next table: 1832
cur table: 1822
epoch: 1000
next table: 1083
cur table: 1206
epoch: 1000
next table: 1909
cur table: 1832
epoch: 1000
next table: 1871
cur table: 1909
epoch: 1000
next table: 1087
cur table: 1083
epoch: 1000
next table: 1850
cur table: 1871
epoch: 1000
next table: 1074
cur table: 1087
epoch: 1000
next table: 1750
cur table: 1850
epoch: 1000
next table: 1081
cur table: 1074
epoch: 1000
next table: 1803
cur table: 1750
epoch: 1000
next table: 1064
cur table: 1081
epoch: 1000
next table: 1792
cur table: 1803
epoch: 1000
next table: 1068
cur table: 1064
epoch: 1000
next table: 1826
cur table: 1792
epoch: 1000
next table: 1097
cur table: 1068
epoch: 1000
next table: 1884
cur table: 1826
epoch: 1000
next table: 2004
cur table: 1884
epoch: 1000
next table: 1077
cur table: 1097
epoch: 1000
next table: 1856
cur table: 2004
epoch: 1000
next table: 1090
cur table: 1077
epoch: 1000
next table: 1834
cur table: 1856
epoch: 1000
next table: 1087
cur table: 1090
epoch: 1000
next table: 1686
cur table: 1834
epoch: 1000
next table: 1071
cur table: 1087
epoch: 1000
next table: 1800
cur table: 1686
epoch: 1000
next table: 1073
cur table: 1071
epoch: 1000
next table: 1686
cur table: 1800
epoch: 1000
next table: 2012
cur table: 1686
epoch: 1000
next table: 1092
cur table: 1073
epoch: 1000
next table: 1867
cur table: 2012
epoch: 1000
next table: 1073
cur table: 1092
epoch: 1000
next table: 1922
cur table: 1867
epoch: 1000
next table: 1083
cur table: 1073
epoch: 1000
next table: 1825
cur table: 1922
epoch: 1000
next table: 1073
cur table: 1083
epoch: 1000
next table: 1780
cur table: 1825
epoch: 1000
next table: 1199
cur table: 1073
epoch: 1000
next table: 1753
cur table: 1780
epoch: 1000
next table: 2004
cur table: 1753
epoch: 1000
next table: 1088
cur table: 1199
epoch: 1000
next table: 1874
cur table: 2004
epoch: 1000
next table: 1089
cur table: 1088
epoch: 1000
next table: 1846
cur table: 1874
epoch: 1000
next table: 1076
cur table: 1089
epoch: 1000
next table: 1850
cur table: 1846
epoch: 1000
next table: 1075
cur table: 1076
epoch: 1000
next table: 1823
cur table: 1850
epoch: 1000
next table: 1074
cur table: 1075
epoch: 1000
next table: 1659
cur table: 1823
epoch: 1000
next table: 1069
cur table: 1074
epoch: 1000
next table: 1832
cur table: 1659
epoch: 1000
next table: 1997
cur table: 1832
epoch: 1000
next table: 1085
cur table: 1069
epoch: 1000
next table: 1898
cur table: 1997
epoch: 1000
next table: 1076
cur table: 1085
epoch: 1000
next table: 1845
cur table: 1898
Heartbeat CPU 0 instructions: 60000002 cycles: 25756927 heartbeat IPC: 1.03055 cumulative IPC: 1.03055 (Simulation time: 0 hr 34 min 48 sec) 
epoch: 1000
next table: 1079
cur table: 1076
epoch: 1000
next table: 1830
cur table: 1845
epoch: 1000
next table: 1071
cur table: 1079
epoch: 1000
next table: 1699
cur table: 1830
epoch: 1000
next table: 1117
cur table: 1071
epoch: 1000
next table: 1804
cur table: 1699
epoch: 1000
next table: 1079
cur table: 1117
epoch: 1000
next table: 1825
cur table: 1804
epoch: 1000
next table: 1883
cur table: 1825
epoch: 1000
next table: 1085
cur table: 1079
epoch: 1000
next table: 1993
cur table: 1883
epoch: 1000
next table: 1087
cur table: 1085
epoch: 1000
next table: 1864
cur table: 1993
epoch: 1000
next table: 1080
cur table: 1087
epoch: 1000
next table: 1831
[...]
epoch: 1000
next table: 1677
cur table: 1824
epoch: 1000
next table: 1096
cur table: 1101
epoch: 1000
next table: 1818
cur table: 1677
epoch: 1000
next table: 1238
cur table: 1096
epoch: 1000
next table: 1770
cur table: 1818
epoch: 1000
next table: 1853
cur table: 1770
epoch: 1000
next table: 1099
cur table: 1238
epoch: 1000
next table: 1839
cur table: 1853
epoch: 1000
next table: 1068
cur table: 1099
epoch: 1000
next table: 1836
cur table: 1839
epoch: 1000
next table: 1063
cur table: 1068
epoch: 1000
next table: 1816
cur table: 1836
epoch: 1000
next table: 1078
cur table: 1063
epoch: 1000
next table: 1679
cur table: 1816
epoch: 1000
next table: 1074
cur table: 1078
epoch: 1000
next table: 1843
cur table: 1679
epoch: 1000
next table: 1974
cur table: 1843
epoch: 1000
next table: 1096
cur table: 1074
epoch: 1000
next table: 1829
cur table: 1974
epoch: 1000
next table: 1079
cur table: 1096
epoch: 1000
next table: 1825
cur table: 1829
epoch: 1000
next table: 1075
cur table: 1079
epoch: 1000
next table: 1816
cur table: 1825
epoch: 1000
next table: 1078
cur table: 1075
epoch: 1000
next table: 1782
cur table: 1816
epoch: 1000
next table: 1087
cur table: 1078
epoch: 1000
next table: 1813
cur table: 1782
epoch: 1000
next table: 1072
cur table: 1087
epoch: 1000
next table: 1872
cur table: 1813
epoch: 1000
next table: 1110
cur table: 1072
epoch: 1000
next table: 1865
cur table: 1872
epoch: 1000
next table: 2005
cur table: 1865
epoch: 1000
next table: 1068
cur table: 1110
epoch: 1000
next table: 1845
cur table: 2005
epoch: 1000
next table: 1081
cur table: 1068
epoch: 1000
next table: 1683
cur table: 1845
epoch: 1000
next table: 1069
cur table: 1081
epoch: 1000
next table: 1813
cur table: 1683
epoch: 1000
next table: 1091
cur table: 1069
epoch: 1000
next table: 1677
cur table: 1813
epoch: 1000
next table: 1206
cur table: 1091
epoch: 1000
next table: 1907
cur table: 1677
epoch: 1000
next table: 1974
cur table: 1907
epoch: 1000
next table: 1076
cur table: 1206
epoch: 1000
next table: 1824
cur table: 1974
epoch: 1000
next table: 1087
cur table: 1076
epoch: 1000
next table: 1806
cur table: 1824
epoch: 1000
next table: 1066
cur table: 1087
epoch: 1000
next table: 1792
cur table: 1806
epoch: 1000
next table: 1122
cur table: 1066
epoch: 1000
next table: 1807
cur table: 1792
epoch: 1000
next table: 1079
cur table: 1122
epoch: 1000
next table: 1841
cur table: 1807
epoch: 1000
next table: 1086
cur table: 1079
epoch: 1000
next table: 1873
cur table: 1841
epoch: 1000
next table: 1870
cur table: 1873
epoch: 1000
next table: 1084
cur table: 1086
epoch: 1000
next table: 1849
cur table: 1870
epoch: 1000
next table: 1090
cur table: 1084
epoch: 1000
next table: 1831
cur table: 1849
epoch: 1000
next table: 1093
cur table: 1090
epoch: 1000
next table: 1682
cur table: 1831
epoch: 1000
next table: 1069
cur table: 1093
epoch: 1000
next table: 1818
cur table: 1682
epoch: 1000
next table: 1089
cur table: 1069
epoch: 1000
next table: 1856
cur table: 1818
epoch: 1000
next table: 2020
cur table: 1856
epoch: 1000
next table: 1087
cur table: 1089
epoch: 1000
next table: 1862
cur table: 2020
epoch: 1000
next table: 1081
cur table: 1087
epoch: 1000
next table: 1847
cur table: 1862
epoch: 1000
next table: 1064
cur table: 1081
epoch: 1000
next table: 1821
cur table: 1847
epoch: 1000
next table: 1089
cur table: 1064
epoch: 1000
next table: 1669
cur table: 1821
Heartbeat CPU 0 instructions: 100000002 cycles: 64528107 heartbeat IPC: 1.0305 cumulative IPC: 1.03146 (Simulation time: 0 hr 59 min 53 sec) 
Finished CPU 0 instructions: 50000001 cycles: 48474769 cumulative IPC: 1.03146 (Simulation time: 0 hr 59 min 53 sec) 

ChampSim completed all CPUs

Region of Interest Statistics

CPU 0 cumulative IPC: 1.03146 instructions: 50000001 cycles: 48474769
ITLB TOTAL     ACCESS:    6698349  HIT:    6698349  MISS:          0  HIT %:        100  MISS %:          0   MPKI: 0
ITLB LOAD TRANSLATION ACCESS:    6698349  HIT:    6698349  MISS:          0  HIT %:        100  MISS %:          0   MPKI: 0
ITLB PREFETCH  REQUESTED:          0  ISSUED:          0  USEFUL:          0  USELESS:          0
ITLB USEFUL LOAD PREFETCHES:          0 PREFETCH ISSUED TO LOWER LEVEL:          0  ACCURACY: -nan
ITLB TIMELY PREFETCHES:          0 LATE PREFETCHES: 0 DROPPED PREFETCHES: 0
ITLB PREFETCHES SAME FILL-ORIGIN LEVEL: 0 DIFFERENT FILL-ORIGIN LEVEL: 0
ITLB AVERAGE MISS LATENCY: -nan cycles
ITLB RQ	ACCESS:    8362975	FORWARD:          0	MERGED:    1664627	TO_CACHE:    6698348

Revised Interactions: positive negative neutral
ITLB_interactions 0 0 0 -nan -nan -nan
DTLB TOTAL     ACCESS:   13273625  HIT:   13253782  MISS:      19843  HIT %:    99.8505  MISS %:   0.149492   MPKI: 0.39686
DTLB LOAD TRANSLATION ACCESS:   13273625  HIT:   13253782  MISS:      19843  HIT %:    99.8505  MISS %:   0.149492   MPKI: 0.39686
DTLB PREFETCH  REQUESTED:          0  ISSUED:          0  USEFUL:          0  USELESS:          0
DTLB USEFUL LOAD PREFETCHES:          0 PREFETCH ISSUED TO LOWER LEVEL:          0  ACCURACY: -nan
DTLB TIMELY PREFETCHES:          0 LATE PREFETCHES: 0 DROPPED PREFETCHES: 0
DTLB PREFETCHES SAME FILL-ORIGIN LEVEL: 0 DIFFERENT FILL-ORIGIN LEVEL: 0
DTLB AVERAGE MISS LATENCY: 420.039 cycles
DTLB RQ	ACCESS:   14364324	FORWARD:          0	MERGED:    1087917	TO_CACHE:   13276407

Revised Interactions: positive negative neutral
DTLB_interactions 0 0 0 -nan -nan -nan
STLB TOTAL     ACCESS:      19843  HIT:       3412  MISS:      16431  HIT %:     17.195  MISS %:     82.805   MPKI: 0.32862
STLB LOAD TRANSLATION ACCESS:      19843  HIT:       3412  MISS:      16431  HIT %:     17.195  MISS %:     82.805   MPKI: 0.32862
STLB PREFETCH  REQUESTED:          0  ISSUED:          0  USEFUL:          0  USELESS:          0
STLB USEFUL LOAD PREFETCHES:          0 PREFETCH ISSUED TO LOWER LEVEL:          0  ACCURACY: -nan
STLB TIMELY PREFETCHES:          0 LATE PREFETCHES: 0 DROPPED PREFETCHES: 0
STLB PREFETCHES SAME FILL-ORIGIN LEVEL: 0 DIFFERENT FILL-ORIGIN LEVEL: 0
STLB AVERAGE MISS LATENCY: 495.29 cycles
STLB RQ	ACCESS:      19843	FORWARD:          0	MERGED:          0	TO_CACHE:      19843

Revised Interactions: positive negative neutral
STLB_interactions 0 0 0 -nan -nan -nan
STLB Hit, L1D data hit: 0
STLB Hit, L2C data hit: 0
STLB Hit, LLC data hit: 0
STLB Hit, LLC data miss: 0
STLB STLB hints to L2: 0
L1D TOTAL     ACCESS:   14285350  HIT:   13638955  MISS:     646395  HIT %:    95.4751  MISS %:    4.52488   MPKI: 12.9279
L1D LOAD      ACCESS:   12610657  HIT:   11969472  MISS:     641185  HIT %:    94.9155  MISS %:    5.08447   MPKI: 12.8237
L1D RFO       ACCESS:    1674693  HIT:    1669483  MISS:       5210  HIT %:    99.6889  MISS %:   0.311102   MPKI: 0.1042
L1D PREFETCH  REQUESTED:          0  ISSUED:          0  USEFUL:          0  USELESS:          0
L1D USEFUL LOAD PREFETCHES:          0 PREFETCH ISSUED TO LOWER LEVEL:          0  ACCURACY: -nan
L1D TIMELY PREFETCHES:          0 LATE PREFETCHES: 0 DROPPED PREFETCHES: 0
L1D PREFETCHES SAME FILL-ORIGIN LEVEL: 0 DIFFERENT FILL-ORIGIN LEVEL: 0
L1D AVERAGE MISS LATENCY: 25.8846 cycles
L1D RQ	ACCESS:   19112567	FORWARD:          0	MERGED:    6448108	TO_CACHE:   12664456
L1D WQ	ACCESS:    1699868	FORWARD:          3	MERGED:          0	TO_CACHE:    1699868

Revised Interactions: positive negative neutral
L1D_interactions 0 0 0 -nan -nan -nan
L1D UNIQUE REGIONS ACCESSED: 0
L1D REGIONS CONFLICTS: 0
L1D Cross Page Prefetch Requests: 0
L1D Same Page Prefetch Requests: 0
L1D ROI Sum of L1D PQ occupancy: 0
L1D PREFETCHES PUSHED FROM L2C: 0
L1I TOTAL     ACCESS:    8362977  HIT:    8362977  MISS:          0  HIT %:        100  MISS %:          0   MPKI: 0
L1I LOAD      ACCESS:    8362977  HIT:    8362977  MISS:          0  HIT %:        100  MISS %:          0   MPKI: 0
L1I PREFETCH  REQUESTED:          0  ISSUED:          0  USEFUL:          0  USELESS:          0
L1I USEFUL LOAD PREFETCHES:          0 PREFETCH ISSUED TO LOWER LEVEL:          0  ACCURACY: -nan
L1I TIMELY PREFETCHES:          0 LATE PREFETCHES: 0 DROPPED PREFETCHES: 0
L1I PREFETCHES SAME FILL-ORIGIN LEVEL: 0 DIFFERENT FILL-ORIGIN LEVEL: 0
L1I AVERAGE MISS LATENCY: -nan cycles
L1I RQ	ACCESS:   13383713	FORWARD:          0	MERGED:    5020738	TO_CACHE:    8362975

Revised Interactions: positive negative neutral
L1I_interactions 0 0 0 -nan -nan -nan
BTB TOTAL     ACCESS:    2491689  HIT:    2491678  MISS:         11  HIT %:    99.9996  MISS %: 0.000441468   MPKI: 0.00022
BTB BRANCH_DIRECT_JUMP	ACCESS:         40  HIT:         39  MISS:          1
BTB BRANCH_INDIRECT	ACCESS:          0  HIT:          0  MISS:          0
BTB BRANCH_CONDITIONAL	ACCESS:    2491569  HIT:    2491561  MISS:          8
BTB BRANCH_DIRECT_CALL	ACCESS:         40  HIT:         39  MISS:          1
BTB BRANCH_INDIRECT_CALL	ACCESS:          0  HIT:          0  MISS:          0
BTB BRANCH_RETURN	ACCESS:         40  HIT:         39  MISS:          1
BTB BRANCH_OTHER ACCESS:          0  HIT:          0  MISS:          0

L2C TOTAL     ACCESS:    1488937  HIT:     681291  MISS:     807646  HIT %:    45.7569  MISS %:    54.2431   MPKI: 16.1529
L2C LOAD      ACCESS:     641184  HIT:     597722  MISS:      43462  HIT %:    93.2216  MISS %:     6.7784   MPKI: 0.86924
L2C DATA LOAD MPKI: 0.86924
L2C INSTRUCTION LOAD MPKI: 0
L2C RFO       ACCESS:       5210  HIT:         55  MISS:       5155  HIT %:    1.05566  MISS %:    98.9443   MPKI: 0.1031
L2C PREFETCH  ACCESS:     809814  HIT:      68944  MISS:     740870  HIT %:    8.51356  MISS %:    91.4864   MPKI: 14.8174
L2C DATA PREFETCH MPKI: 14.8174
L2C INSTRUCTION PREFETCH MPKI: 0
L2C WRITEBACK ACCESS:       8077  HIT:       3460  MISS:       4617  HIT %:    42.8377  MISS %:    57.1623   MPKI: 0.09234
L2C LOAD TRANSLATION ACCESS:      24652  HIT:      11110  MISS:      13542  HIT %:    45.0673  MISS %:    54.9327   MPKI: 0.27084
L2C PREFETCH  REQUESTED:     811881  ISSUED:     811881  USEFUL:     593702  USELESS:     147073
L2C USEFUL LOAD PREFETCHES:     593702 PREFETCH ISSUED TO LOWER LEVEL:     741331  ACCURACY: 80.086
L2C TIMELY PREFETCHES:     593702 LATE PREFETCHES: 462 DROPPED PREFETCHES: 0
L2C PREFETCHES SAME FILL-ORIGIN LEVEL: 741331 DIFFERENT FILL-ORIGIN LEVEL: 0
L2C AVERAGE MISS LATENCY: 132.59 cycles
L2C RQ	ACCESS:     671046	FORWARD:          0	MERGED:          0	TO_CACHE:     671046
L2C WQ	ACCESS:       8077	FORWARD:          0	MERGED:          0	TO_CACHE:       8077
L2C PQ	ACCESS:     811881	FORWARD:          0	MERGED:          0	TO_CACHE:     811881

Revised Interactions: positive negative neutral
L2C_interactions 594242 143136 9070 79.6093 19.1756 1.21509
L2C Instructions Evicting Data 0
L2C Translations Evicting Data 13330
L2C Data Evicting Data 776230
L2C Instructions Evicting Instructions 0
L2C Translations Evicting Instructions 0
L2C Data Evicting Instructions 0
L2C Instructions Evicting Translations 0
L2C Translations Evicting Translations 212
L2C Data Evicting Translations 13257
L2C Dense regions hint from L2: 0
PSCL5 TOTAL     ACCESS:      16431  HIT:      16431  MISS:          0  HIT %:        100  MISS %:          0   MPKI: 0
PSCL5 LOAD TRANSLATION ACCESS:      16431  HIT:      16431  MISS:          0  HIT %:        100  MISS %:          0   MPKI: 0
PSCL5 PREFETCH  REQUESTED:          0  ISSUED:          0  USEFUL:          0  USELESS:          0
PSCL5 USEFUL LOAD PREFETCHES:          0 PREFETCH ISSUED TO LOWER LEVEL:          0  ACCURACY: -nan
PSCL5 TIMELY PREFETCHES:          0 LATE PREFETCHES: 0 DROPPED PREFETCHES: 0
PSCL5 PREFETCHES SAME FILL-ORIGIN LEVEL: 0 DIFFERENT FILL-ORIGIN LEVEL: 0

Revised Interactions: positive negative neutral
PSCL5_interactions 0 0 0 -nan -nan -nan
PSCL4 TOTAL     ACCESS:      16431  HIT:      16431  MISS:          0  HIT %:        100  MISS %:          0   MPKI: 0
PSCL4 LOAD TRANSLATION ACCESS:      16431  HIT:      16431  MISS:          0  HIT %:        100  MISS %:          0   MPKI: 0
PSCL4 PREFETCH  REQUESTED:          0  ISSUED:          0  USEFUL:          0  USELESS:          0
PSCL4 USEFUL LOAD PREFETCHES:          0 PREFETCH ISSUED TO LOWER LEVEL:          0  ACCURACY: -nan
PSCL4 TIMELY PREFETCHES:          0 LATE PREFETCHES: 0 DROPPED PREFETCHES: 0
PSCL4 PREFETCHES SAME FILL-ORIGIN LEVEL: 0 DIFFERENT FILL-ORIGIN LEVEL: 0

Revised Interactions: positive negative neutral
PSCL4_interactions 0 0 0 -nan -nan -nan
PSCL3 TOTAL     ACCESS:      16431  HIT:      16419  MISS:         12  HIT %:     99.927  MISS %:  0.0730327   MPKI: 0.00024
PSCL3 LOAD TRANSLATION ACCESS:      16431  HIT:      16419  MISS:         12  HIT %:     99.927  MISS %:  0.0730327   MPKI: 0.00024
PSCL3 PREFETCH  REQUESTED:          0  ISSUED:          0  USEFUL:          0  USELESS:          0
PSCL3 USEFUL LOAD PREFETCHES:          0 PREFETCH ISSUED TO LOWER LEVEL:          0  ACCURACY: -nan
PSCL3 TIMELY PREFETCHES:          0 LATE PREFETCHES: 0 DROPPED PREFETCHES: 0
PSCL3 PREFETCHES SAME FILL-ORIGIN LEVEL: 0 DIFFERENT FILL-ORIGIN LEVEL: 0

Revised Interactions: positive negative neutral
PSCL3_interactions 0 0 0 -nan -nan -nan
PSCL2 TOTAL     ACCESS:      16431  HIT:       8156  MISS:       8275  HIT %:    49.6379  MISS %:    50.3621   MPKI: 0.1655
PSCL2 LOAD TRANSLATION ACCESS:      16431  HIT:       8156  MISS:       8275  HIT %:    49.6379  MISS %:    50.3621   MPKI: 0.1655
PSCL2 PREFETCH  REQUESTED:          0  ISSUED:          0  USEFUL:          0  USELESS:          0
PSCL2 USEFUL LOAD PREFETCHES:          0 PREFETCH ISSUED TO LOWER LEVEL:          0  ACCURACY: -nan
PSCL2 TIMELY PREFETCHES:          0 LATE PREFETCHES: 0 DROPPED PREFETCHES: 0
PSCL2 PREFETCHES SAME FILL-ORIGIN LEVEL: 0 DIFFERENT FILL-ORIGIN LEVEL: 0

Revised Interactions: positive negative neutral
PSCL2_interactions 0 0 0 -nan -nan -nan
LLC TOTAL     ACCESS:     808602  HIT:     128589  MISS:     680013  HIT %:    15.9026  MISS %:    84.0974   MPKI: 13.6003
LLC LOAD      ACCESS:      43000  HIT:       6420  MISS:      36580  HIT %:    14.9302  MISS %:    85.0698   MPKI: 0.7316
LLC RFO       ACCESS:       5155  HIT:        103  MISS:       5052  HIT %:    1.99806  MISS %:    98.0019   MPKI: 0.10104
LLC PREFETCH  ACCESS:     741332  HIT:     109677  MISS:     631655  HIT %:    14.7946  MISS %:    85.2054   MPKI: 12.6331
LLC WRITEBACK ACCESS:       5573  HIT:       3770  MISS:       1803  HIT %:    67.6476  MISS %:    32.3524   MPKI: 0.03606
LLC LOAD TRANSLATION ACCESS:      13542  HIT:       8619  MISS:       4923  HIT %:    63.6464  MISS %:    36.3536   MPKI: 0.09846
LLC PREFETCH  REQUESTED:          0  ISSUED:          0  USEFUL:       1601  USELESS:     629840
LLC USEFUL LOAD PREFETCHES:       1601 PREFETCH ISSUED TO LOWER LEVEL:     631654  ACCURACY: 0.253462
LLC TIMELY PREFETCHES:       1601 LATE PREFETCHES: 0 DROPPED PREFETCHES: 0
LLC PREFETCHES SAME FILL-ORIGIN LEVEL: 0 DIFFERENT FILL-ORIGIN LEVEL: 0
LLC AVERAGE MISS LATENCY: 118.122 cycles
LLC RQ	ACCESS:      61697	FORWARD:          0	MERGED:          0	TO_CACHE:      61697
LLC WQ	ACCESS:       5573	FORWARD:          0	MERGED:          0	TO_CACHE:       5573
LLC PQ	ACCESS:     741331	FORWARD:          0	MERGED:          0	TO_CACHE:     741331

Revised Interactions: positive negative neutral
LLC_interactions 457 630018 26459 0.0695656 95.9028 4.02765
LLC Dense regions hint to LLC: 0

RAW hits: 68
Loads Generated: 19112635
Loads sent to L1D: 19112567
Stores Generated: 1699868
Stores sent to L1D: 1699868
Major fault: 0 Minor fault: 33297
Allocated PAGES: 33297
[Bingo] PHT Access: 35840
[Bingo] PHT Hit PC+Addr: 501
[Bingo] PHT Hit PC+Offs: 34757
[Bingo] PHT Miss: 582
[Bingo] Prefetch PC+Addr: 0
[Bingo] Prefetch PC+Offs: 0
[Bingo] Useful PC+Addr: 0
[Bingo] Useful PC+Offs: 0
[Bingo] Useless PC+Addr: 0
[Bingo] Useless PC+Offs: 0
[Bingo] L1 Prefetch per Region: 0
[Bingo] L2 Prefetch per Region: 25.009
[Bingo] L3 Prefetch per Region: 0
[Bingo] No Prefetch per Region: 6.99095
[Bingo] Number of Voters Mean: 14.0963
[Bingo] Number of Voters SD: 14.4903
PHT read accesses: 561108
PHT write accesses: 31640
AT read accesses: 628255
AT write accesses: 636803
FT read accesses: 99443
FT write accesses: 35840
PS read accesses: 120815
PS write accesses: 35258
PHT tag read accesses: 1573704
PHT tag write accesses: 32141
AT tag read accesses: 24517899
AT tag write accesses: 659885
FT tag read accesses: 15160214
FT tag write accesses: 103482
PS tag read accesses: 11639282
PS tag write accesses: 154347

DRAM Statistics
 CHANNEL 0
 RQ ROW_BUFFER_HIT:     598989  ROW_BUFFER_MISS:      79220
 DBUS_CONGESTED:         43
 WQ ROW_BUFFER_HIT:        372  ROW_BUFFER_MISS:       4972  FULL:          0

 AVG_CONGESTED_CYCLE: 4
 All warmup complete: 2
Channel 0 Bank busy for read cycles: 0
Channel 0 Bank busy for write cycles: 0
Channel 0
Rank 0
0banks busy for read cycles: 39103675
0banks busy for write cycles: 2574
1banks busy for read cycles: 2525953
1banks busy for write cycles: 280353
2banks busy for read cycles: 832134
2banks busy for write cycles: 119318
3banks busy for read cycles: 419444
3banks busy for write cycles: 60293
4banks busy for read cycles: 366126
4banks busy for write cycles: 35605
5banks busy for read cycles: 362167
5banks busy for write cycles: 14707
6banks busy for read cycles: 347635
6banks busy for write cycles: 5975
7banks busy for read cycles: 942517
7banks busy for write cycles: 2335
8banks busy for read cycles: 3053601
8banks busy for write cycles: 358

CPU 0 Branch Prediction Accuracy: 99.9281% MPKI: 0.0361 Average ROB Occupancy at Mispredict: 84.3496
Branch types
NOT_BRANCH: 47488720 94.9774%
BRANCH_DIRECT_JUMP: 40 8e-05%
BRANCH_INDIRECT: 0 0%
BRANCH_CONDITIONAL: 2510857 5.02171%
BRANCH_DIRECT_CALL: 40 8e-05%
BRANCH_INDIRECT_CALL: 0 0%
BRANCH_RETURN: 40 8e-05%
BRANCH_OTHER: 0 0%

@sumon_overall_L1D         0         0         0         0         0         0         0
@Sumon_Early_by_class_L1D         0         0         0         0
@Sumon_Late_by_class_L1D         0         0         0         0

@Sumon_Early_by_cycle_L1D         0         0         0         0         0         0         0         0         0         0         0         0
@Sumon_Late_by_cycle_L1D         0         0         0         0         0         0
@Sumon_Early_stream_L1D         0         0         0         0         0         0         0         0         0         0         0         0
@Sumon_Early_CS_L1D         0         0         0         0         0         0         0         0         0         0         0         0
@Sumon_Early_CPLX_L1D         0         0         0         0         0         0         0         0         0         0         0         0
@Sumon_Late_stream_L1D         0         0         0         0         0         0
@Sumon_Late_CS_L1D         0         0         0         0         0         0
@Sumon_Late_CPLX_L1D         0         0         0         0         0         0
@sumon_overall_L2C    593702       462         0    147073    740870    811881    811881
@Sumon_Early_by_class_L2C         0         0         0         0
@Sumon_Late_by_class_L2C         0         0         0         0

@Sumon_Early_by_cycle_L2C       914      4873     18067     16382     12894     95473    139997    233662     71085       119       112       124
@Sumon_Late_by_cycle_L2C       156        62        65        77       102         0
@Sumon_Early_stream_L2C         0         0         0         0         0         0         0         0         0         0         0         0
@Sumon_Early_CS_L2C         0         0         0         0         0         0         0         0         0         0         0         0
@Sumon_Early_CPLX_L2C         0         0         0         0         0         0         0         0         0         0         0         0
@Sumon_Late_stream_L2C         0         0         0         0         0         0
@Sumon_Late_CS_L2C         0         0         0         0         0         0
@Sumon_Late_CPLX_L2C         0         0         0         0         0         0
DRAM PAGES: 1048576
Allocated PAGES: 33297
