
*** ChampSim Multicore Out-of-Order Simulator ***

Warmup Instructions: 10000000
Simulation Instructions: 50000000
Number of CPUs: 1
LLC sets: 2048
LLC ways: 16
Off-chip DRAM Size: 4096 MB Channels: 1 Width: 64-bit Data Rate: 533 MT/s
CPU 0 runs traces/SPEC2017/607.cactuBSSN_s-2421B.champsimtrace.xz
.xz
CPU 0 Bimodal branch predictor
BTB has LRU replacement policy
ITLB has LRU replacement policy
DTLB has LRU replacement policy
STLB has LRU replacement policy
L1I has LRU replacement policy
IP Table Entries: 256
L1D has LRU replacement policy
IP_Table L2 entries: 256
L2C has LRU replacement policy
LLC has LRU replacement policy
Heartbeat CPU 0 instructions: 10000002 cycles: 3586561 heartbeat IPC: 2.78819 cumulative IPC: 2.78819 (Simulation time: 0 hr 30 min 33 sec) 

Warmup complete CPU 0 instructions: 10000002 cycles: 3586561 (Simulation time: 0 hr 30 min 33 sec) 

Heartbeat CPU 0 instructions: 20000001 cycles: 14882694 heartbeat IPC: 0.885259 cumulative IPC: 0.885259 (Simulation time: 0 hr 51 min 57 sec) 
Heartbeat CPU 0 instructions: 30000000 cycles: 26128399 heartbeat IPC: 0.889228 cumulative IPC: 0.887239 (Simulation time: 1 hr 13 min 1 sec) 
Heartbeat CPU 0 instructions: 40000001 cycles: 37353331 heartbeat IPC: 0.890874 cumulative IPC: 0.888447 (Simulation time: 1 hr 34 min 8 sec) 
Heartbeat CPU 0 instructions: 50000000 cycles: 48607544 heartbeat IPC: 0.888556 cumulative IPC: 0.888475 (Simulation time: 1 hr 54 min 14 sec) 
Heartbeat CPU 0 instructions: 60000003 cycles: 60925570 heartbeat IPC: 0.811819 cumulative IPC: 0.872007 (Simulation time: 2 hr 8 min 55 sec) 
Finished CPU 0 instructions: 50000001 cycles: 57339009 cumulative IPC: 0.872007 (Simulation time: 2 hr 8 min 55 sec) 

ChampSim completed all CPUs

Region of Interest Statistics

CPU 0 cumulative IPC: 0.872007 instructions: 50000001 cycles: 57339009
ITLB TOTAL     ACCESS:    6921646  HIT:    6921586  MISS:         60  HIT %:    99.9991  MISS %: 0.000866846   MPKI: 0.0012
ITLB LOAD TRANSLATION ACCESS:    6921646  HIT:    6921586  MISS:         60  HIT %:    99.9991  MISS %: 0.000866846   MPKI: 0.0012
ITLB PREFETCH  REQUESTED:          0  ISSUED:          0  USEFUL:          0  USELESS:          0
ITLB USEFUL LOAD PREFETCHES:          0 PREFETCH ISSUED TO LOWER LEVEL:          0  ACCURACY: -nan
ITLB TIMELY PREFETCHES:          0 LATE PREFETCHES: 0 DROPPED PREFETCHES: 0
ITLB PREFETCHES SAME FILL-ORIGIN LEVEL: 0 DIFFERENT FILL-ORIGIN LEVEL: 0
ITLB AVERAGE MISS LATENCY: 411.883 cycles
ITLB RQ	ACCESS:    8515289	FORWARD:          0	MERGED:    1593631	TO_CACHE:    6921658

DTLB TOTAL     ACCESS:   13507408  HIT:   11288429  MISS:    2218979  HIT %:    83.5721  MISS %:    16.4279   MPKI: 44.3796
DTLB LOAD TRANSLATION ACCESS:   13507408  HIT:   11288429  MISS:    2218979  HIT %:    83.5721  MISS %:    16.4279   MPKI: 44.3796
DTLB PREFETCH  REQUESTED:          0  ISSUED:          0  USEFUL:          0  USELESS:          0
DTLB USEFUL LOAD PREFETCHES:          0 PREFETCH ISSUED TO LOWER LEVEL:          0  ACCURACY: -nan
DTLB TIMELY PREFETCHES:          0 LATE PREFETCHES: 0 DROPPED PREFETCHES: 0
DTLB PREFETCHES SAME FILL-ORIGIN LEVEL: 0 DIFFERENT FILL-ORIGIN LEVEL: 0
DTLB AVERAGE MISS LATENCY: 10.272 cycles
DTLB RQ	ACCESS:   18953133	FORWARD:          0	MERGED:    5235799	TO_CACHE:   13717334

STLB TOTAL     ACCESS:    2247410  HIT:    2244352  MISS:       3058  HIT %:    99.8639  MISS %:   0.136068   MPKI: 0.06116
STLB LOAD TRANSLATION ACCESS:    2219039  HIT:    2215981  MISS:       3058  HIT %:    99.8622  MISS %:   0.137807   MPKI: 0.06116
STLB TRANSLATION FROM L1D PREFETCHER ACCESS:      28371  HIT:      28371  MISS:          0  HIT %:        100  MISS %:          0   MPKI: 0
STLB PREFETCH  REQUESTED:          0  ISSUED:          0  USEFUL:          0  USELESS:          0
STLB USEFUL LOAD PREFETCHES:          0 PREFETCH ISSUED TO LOWER LEVEL:          0  ACCURACY: -nan
STLB TIMELY PREFETCHES:          0 LATE PREFETCHES: 0 DROPPED PREFETCHES: 0
STLB PREFETCHES SAME FILL-ORIGIN LEVEL: 0 DIFFERENT FILL-ORIGIN LEVEL: 0
STLB AVERAGE MISS LATENCY: 687.448 cycles
STLB RQ	ACCESS:    2248592	FORWARD:          0	MERGED:       1182	TO_CACHE:    2247410

STLB Hit, L1D data hit: 0
STLB Hit, L2C data hit: 0
STLB Hit, LLC data hit: 0
STLB Hit, LLC data miss: 0
STLB STLB hints to L2: 0
L1D TOTAL     ACCESS:   18860653  HIT:   14822060  MISS:    4038593  HIT %:    78.5872  MISS %:    21.4128   MPKI: 80.7719
L1D LOAD      ACCESS:   14560448  HIT:   10867646  MISS:    3692802  HIT %:    74.6381  MISS %:    25.3619   MPKI: 73.856
L1D RFO       ACCESS:    4270671  HIT:    3951344  MISS:     319327  HIT %:    92.5228  MISS %:    7.47721   MPKI: 6.38654
L1D PREFETCH  ACCESS:      29534  HIT:       3070  MISS:      26464  HIT %:    10.3948  MISS %:    89.6052   MPKI: 0.52928
L1D PREFETCH  REQUESTED:      59107  ISSUED:      59106  USEFUL:       3334  USELESS:      23083
L1D USEFUL LOAD PREFETCHES:       3334 PREFETCH ISSUED TO LOWER LEVEL:     173526  ACCURACY: 1.92133
L1D TIMELY PREFETCHES:       3334 LATE PREFETCHES: 2 DROPPED PREFETCHES: 0
L1D PREFETCHES SAME FILL-ORIGIN LEVEL: 173526 DIFFERENT FILL-ORIGIN LEVEL: 0
L1D AVERAGE MISS LATENCY: 29.5749 cycles
L1D RQ	ACCESS:   18622457	FORWARD:          0	MERGED:    3957820	TO_CACHE:   14656276
L1D WQ	ACCESS:    4319711	FORWARD:       8361	MERGED:      22854	TO_CACHE:    4296857
L1D PQ	ACCESS:      29553	FORWARD:          0	MERGED:          0	TO_CACHE:      29553

L1D UNIQUE REGIONS ACCESSED: 0
L1D REGIONS CONFLICTS: 0
L1D Cross Page Prefetch Requests: 0
L1D Same Page Prefetch Requests: 30877
L1D ROI Sum of L1D PQ occupancy: 2678799
L1D PREFETCHES PUSHED FROM L2C: 0
L1I TOTAL     ACCESS:    7959544  HIT:    6869787  MISS:    1089757  HIT %:    86.3088  MISS %:    13.6912   MPKI: 21.7951
L1I LOAD      ACCESS:    7959544  HIT:    6869787  MISS:    1089757  HIT %:    86.3088  MISS %:    13.6912   MPKI: 21.7951
L1I PREFETCH  REQUESTED:          0  ISSUED:          0  USEFUL:          0  USELESS:          0
L1I USEFUL LOAD PREFETCHES:          0 PREFETCH ISSUED TO LOWER LEVEL:          0  ACCURACY: -nan
L1I TIMELY PREFETCHES:          0 LATE PREFETCHES: 0 DROPPED PREFETCHES: 0
L1I PREFETCHES SAME FILL-ORIGIN LEVEL: 0 DIFFERENT FILL-ORIGIN LEVEL: 0
L1I AVERAGE MISS LATENCY: 14.3068 cycles
L1I RQ	ACCESS:   12033325	FORWARD:          0	MERGED:    3518036	TO_CACHE:    8515289

BTB TOTAL     ACCESS:     280550  HIT:     262606  MISS:      17944  HIT %:     93.604  MISS %:    6.39601   MPKI: 0.35888
BTB BRANCH_DIRECT_JUMP	ACCESS:      48856  HIT:      48796  MISS:         60
BTB BRANCH_INDIRECT	ACCESS:      10100  HIT:      10021  MISS:         79
BTB BRANCH_CONDITIONAL	ACCESS:     122188  HIT:     121715  MISS:        473
BTB BRANCH_DIRECT_CALL	ACCESS:      49700  HIT:      49036  MISS:        664
BTB BRANCH_INDIRECT_CALL	ACCESS:          3  HIT:          0  MISS:          3
BTB BRANCH_RETURN	ACCESS:      49703  HIT:      33038  MISS:      16665
BTB BRANCH_OTHER ACCESS:          0  HIT:          0  MISS:          0

L2C TOTAL     ACCESS:    7948479  HIT:    7611087  MISS:     337392  HIT %:    95.7553  MISS %:    4.24474   MPKI: 6.74784
L2C LOAD      ACCESS:    4767457  HIT:    4689353  MISS:      78104  HIT %:    98.3617  MISS %:    1.63827   MPKI: 1.56208
L2C DATA LOAD MPKI: 1.53174
L2C INSTRUCTION LOAD MPKI: 0.03034
L2C RFO       ACCESS:     319051  HIT:     291893  MISS:      27158  HIT %:    91.4879  MISS %:    8.51212   MPKI: 0.54316
L2C PREFETCH  ACCESS:    2512268  HIT:    2284094  MISS:     228174  HIT %:    90.9176  MISS %:    9.08239   MPKI: 4.56348
L2C DATA PREFETCH MPKI: 4.56348
L2C INSTRUCTION PREFETCH MPKI: 0
L2C WRITEBACK ACCESS:     345232  HIT:     345228  MISS:          4  HIT %:    99.9988  MISS %: 0.00115864   MPKI: 8e-05
L2C LOAD TRANSLATION ACCESS:       4471  HIT:        519  MISS:       3952  HIT %:    11.6081  MISS %:    88.3919   MPKI: 0.07904
L2C PREFETCH  REQUESTED:    2531122  ISSUED:    2491600  USEFUL:     221338  USELESS:       6766
L2C USEFUL LOAD PREFETCHES:     221338 PREFETCH ISSUED TO LOWER LEVEL:     228239  ACCURACY: 96.9764
L2C TIMELY PREFETCHES:     221338 LATE PREFETCHES: 65 DROPPED PREFETCHES: 0
L2C PREFETCHES SAME FILL-ORIGIN LEVEL: 210489 DIFFERENT FILL-ORIGIN LEVEL: 0
L2C AVERAGE MISS LATENCY: 385.531 cycles
L2C RQ	ACCESS:    5106357	FORWARD:          0	MERGED:          0	TO_CACHE:    5090979
L2C WQ	ACCESS:     345232	FORWARD:      15409	MERGED:          0	TO_CACHE:     345232
L2C PQ	ACCESS:    2518064	FORWARD:          0	MERGED:       3362	TO_CACHE:    2514671

L2C Instructions Evicting Data 1486
L2C Translations Evicting Data 3881
L2C Data Evicting Data 326446
L2C Instructions Evicting Instructions 19
L2C Translations Evicting Instructions 13
L2C Data Evicting Instructions 1637
L2C Instructions Evicting Translations 12
L2C Translations Evicting Translations 58
L2C Data Evicting Translations 3836
L2C Dense regions hint from L2: 0
PSCL5 TOTAL     ACCESS:       3058  HIT:       3058  MISS:          0  HIT %:        100  MISS %:          0   MPKI: 0
PSCL5 LOAD TRANSLATION ACCESS:       3058  HIT:       3058  MISS:          0  HIT %:        100  MISS %:          0   MPKI: 0
PSCL5 PREFETCH  REQUESTED:          0  ISSUED:          0  USEFUL:          0  USELESS:          0
PSCL5 USEFUL LOAD PREFETCHES:          0 PREFETCH ISSUED TO LOWER LEVEL:          0  ACCURACY: -nan
PSCL5 TIMELY PREFETCHES:          0 LATE PREFETCHES: 0 DROPPED PREFETCHES: 0
PSCL5 PREFETCHES SAME FILL-ORIGIN LEVEL: 0 DIFFERENT FILL-ORIGIN LEVEL: 0

PSCL4 TOTAL     ACCESS:       3058  HIT:       3058  MISS:          0  HIT %:        100  MISS %:          0   MPKI: 0
PSCL4 LOAD TRANSLATION ACCESS:       3058  HIT:       3058  MISS:          0  HIT %:        100  MISS %:          0   MPKI: 0
PSCL4 PREFETCH  REQUESTED:          0  ISSUED:          0  USEFUL:          0  USELESS:          0
PSCL4 USEFUL LOAD PREFETCHES:          0 PREFETCH ISSUED TO LOWER LEVEL:          0  ACCURACY: -nan
PSCL4 TIMELY PREFETCHES:          0 LATE PREFETCHES: 0 DROPPED PREFETCHES: 0
PSCL4 PREFETCHES SAME FILL-ORIGIN LEVEL: 0 DIFFERENT FILL-ORIGIN LEVEL: 0

PSCL3 TOTAL     ACCESS:       3058  HIT:       3053  MISS:          5  HIT %:    99.8365  MISS %:   0.163506   MPKI: 0.0001
PSCL3 LOAD TRANSLATION ACCESS:       3058  HIT:       3053  MISS:          5  HIT %:    99.8365  MISS %:   0.163506   MPKI: 0.0001
PSCL3 PREFETCH  REQUESTED:          0  ISSUED:          0  USEFUL:          0  USELESS:          0
PSCL3 USEFUL LOAD PREFETCHES:          0 PREFETCH ISSUED TO LOWER LEVEL:          0  ACCURACY: -nan
PSCL3 TIMELY PREFETCHES:          0 LATE PREFETCHES: 0 DROPPED PREFETCHES: 0
PSCL3 PREFETCHES SAME FILL-ORIGIN LEVEL: 0 DIFFERENT FILL-ORIGIN LEVEL: 0

PSCL2 TOTAL     ACCESS:       3058  HIT:       1588  MISS:       1470  HIT %:    51.9294  MISS %:    48.0706   MPKI: 0.0294
PSCL2 LOAD TRANSLATION ACCESS:       3058  HIT:       1588  MISS:       1470  HIT %:    51.9294  MISS %:    48.0706   MPKI: 0.0294
PSCL2 PREFETCH  REQUESTED:          0  ISSUED:          0  USEFUL:          0  USELESS:          0
PSCL2 USEFUL LOAD PREFETCHES:          0 PREFETCH ISSUED TO LOWER LEVEL:          0  ACCURACY: -nan
PSCL2 TIMELY PREFETCHES:          0 LATE PREFETCHES: 0 DROPPED PREFETCHES: 0
PSCL2 PREFETCHES SAME FILL-ORIGIN LEVEL: 0 DIFFERENT FILL-ORIGIN LEVEL: 0

LLC TOTAL     ACCESS:     371848  HIT:     195212  MISS:     176636  HIT %:    52.4978  MISS %:    47.5022   MPKI: 3.53272
LLC LOAD      ACCESS:      78037  HIT:      45277  MISS:      32760  HIT %:    58.0199  MISS %:    41.9801   MPKI: 0.6552
LLC RFO       ACCESS:      27041  HIT:       2377  MISS:      24664  HIT %:    8.79036  MISS %:    91.2096   MPKI: 0.49328
LLC PREFETCH  ACCESS:     228239  HIT:     109701  MISS:     118538  HIT %:    48.0641  MISS %:    51.9359   MPKI: 2.37076
LLC WRITEBACK ACCESS:      34579  HIT:      34538  MISS:         41  HIT %:    99.8814  MISS %:   0.118569   MPKI: 0.00082
LLC LOAD TRANSLATION ACCESS:       3952  HIT:       3319  MISS:        633  HIT %:    83.9828  MISS %:    16.0172   MPKI: 0.01266
LLC PREFETCH  REQUESTED:          0  ISSUED:          0  USEFUL:      18294  USELESS:      90300
LLC USEFUL LOAD PREFETCHES:      18294 PREFETCH ISSUED TO LOWER LEVEL:     118538  ACCURACY: 15.433
LLC TIMELY PREFETCHES:      18294 LATE PREFETCHES: 0 DROPPED PREFETCHES: 0
LLC PREFETCHES SAME FILL-ORIGIN LEVEL: 0 DIFFERENT FILL-ORIGIN LEVEL: 0
LLC AVERAGE MISS LATENCY: 677.723 cycles
LLC RQ	ACCESS:     109149	FORWARD:          0	MERGED:          0	TO_CACHE:     109030
LLC WQ	ACCESS:      34579	FORWARD:        119	MERGED:          0	TO_CACHE:      34579
LLC PQ	ACCESS:     228239	FORWARD:          0	MERGED:          0	TO_CACHE:     228239

LLC Dense regions hint to LLC: 0

RAW hits: 104660
Loads Generated: 18727117
Loads sent to L1D: 18622457
Stores Generated: 4319811
Stores sent to L1D: 4319809
Major fault: 0 Minor fault: 3837
Allocated PAGES: 3837

stream: 
stream:times selected: 36920
stream:pref_filled: 23142
stream:pref_useful: 3091
stream:pref_late: 2
stream:misses: 513
stream:misses_by_poll: 0

CS: 
CS:times selected: 18738
CS:pref_filled: 338
CS:pref_useful: 35
CS:pref_late: 2
CS:misses: 2492
CS:misses_by_poll: 0

CPLX: 
CPLX:times selected: 35023
CPLX:pref_filled: 571
CPLX:pref_useful: 152
CPLX:pref_late: 0
CPLX:misses: 147646
CPLX:misses_by_poll: 0

NL_L1: 
NL:times selected: 4
NL:pref_filled: 3
NL:pref_useful: 1
NL:pref_late: 0
NL:misses: 17
NL:misses_by_poll: 0

total selections: 90685
total_filled: 26464
total_useful: 3334
total_late: 4
total_polluted: 0
total_misses_after_warmup: 3788638
conflicts: 7002982
Degree Incremented Times: 0
Degree Decremented Times: 379497

L1 IP Table Write Accesses: 7403919
L1 IP Table Read Accesses: 400937
L1 RST Write Accesses: 34712
L1 RST Read Accesses: 69424
L1 CSPT Write Accesses: 34712
L1 CSPT Read Accesses: 69220
L1 RR Filter Tag Write Accesses: 29554
L1 RR Filter Tag Read Accesses: 2519671
L1 IP Table Tag Write Accesses: 14656284
L1 IP Table Tag Read Accesses: 14656284
L1 RST Tag Write Accesses: 0
L1 RST Tag Read Accesses: 295173
L1 RR Filter Write Accesses: 0
L1 RR Filter Read Accesses: 83900
test: 2386
L2 IP Table Read Accesses: 4831718
L2 IP Table Write Accesses: 5978370
L2 IP Table Tag Read Accesses: 3700559
L2 IP Table Tag Write Accesses: 3700559

DRAM Statistics
 CHANNEL 0
 RQ ROW_BUFFER_HIT:     104087  ROW_BUFFER_MISS:      72508
 DBUS_CONGESTED:     169514
 WQ ROW_BUFFER_HIT:      12947  ROW_BUFFER_MISS:      21539  FULL:          0

 AVG_CONGESTED_CYCLE: 41
 All warmup complete: 2
Channel 0 Bank busy for read cycles: 0
Channel 0 Bank busy for write cycles: 0
Channel 0
Rank 0
0banks busy for read cycles: 42210299
0banks busy for write cycles: 10205
1banks busy for read cycles: 4871558
1banks busy for write cycles: 1348851
2banks busy for read cycles: 2041013
2banks busy for write cycles: 475531
3banks busy for read cycles: 1734953
3banks busy for write cycles: 354063
4banks busy for read cycles: 1109709
4banks busy for write cycles: 345368
5banks busy for read cycles: 978846
5banks busy for write cycles: 274829
6banks busy for read cycles: 773418
6banks busy for write cycles: 246818
7banks busy for read cycles: 345742
7banks busy for write cycles: 150844
8banks busy for read cycles: 21580
8banks busy for write cycles: 45383

CPU 0 Branch Prediction Accuracy: 99.2795% MPKI: 0.0593 Average ROB Occupancy at Mispredict: 16.4273
Branch types
NOT_BRANCH: 49588170 99.1763%
BRANCH_DIRECT_JUMP: 48856 0.097712%
BRANCH_INDIRECT: 10100 0.0202%
BRANCH_CONDITIONAL: 253148 0.506296%
BRANCH_DIRECT_CALL: 49700 0.0994%
BRANCH_INDIRECT_CALL: 3 6e-06%
BRANCH_RETURN: 49703 0.099406%
BRANCH_OTHER: 0 0%

@sumon_overall_L1D      3334         2     23083     26464     59106     59107
@Sumon_Early_by_class_L1D      2935        15        62         0
@Sumon_Late_by_class_L1D         0         2         0         0

@Sumon_Early_by_cycle_L1D        20        14        18        11         7        19        11        35       192      2961        27        19
@Sumon_Late_by_cycle_L1D         1         1         0         0         0         0         0         0         0         0         0         0
@Sumon_Early_stream_L1D        18        10        18         8         5        16         7        27       170      2632        15         9
@Sumon_Early_CS_L1D         1         0         0         1         1         1         0         0         0        11         0         0
@Sumon_Early_CPLX_L1D         0         3         0         2         1         2         1         3         5        28         7        10
@Sumon_Late_stream_L1D         0         0         0         0         0         0         0         0         0         0         0         0
@Sumon_Late_CS_L1D         1         1         0         0         0         0         0         0         0         0         0         0
@Sumon_Late_CPLX_L1D         0         0         0         0         0         0         0         0         0         0         0         0
@sumon_overall_L2C    221338        65      6766    228174   2491600   2531122
@Sumon_Early_by_class_L2C     14522        31        25         0
@Sumon_Late_by_class_L2C         0         0         0         0

@Sumon_Early_by_cycle_L2C        48         1         2         3         3         6       350       848      7066    200454     12275       282
@Sumon_Late_by_cycle_L2C        62         3         0         0         0         0         0         0         0         0         0         0
@Sumon_Early_stream_L2C         0         0         0         0         0         0         0        31       559     13818       113         1
@Sumon_Early_CS_L2C         0         0         0         0         0         0         0         0         0        31         0         0
@Sumon_Early_CPLX_L2C         0         0         0         0         0         0         0         0         3        10         2        10
@Sumon_Late_stream_L2C         0         0         0         0         0         0         0         0         0         0         0         0
@Sumon_Late_CS_L2C         0         0         0         0         0         0         0         0         0         0         0         0
@Sumon_Late_CPLX_L2C         0         0         0         0         0         0         0         0         0         0         0         0
DRAM PAGES: 1048576
Allocated PAGES: 3837
