
*** ChampSim Multicore Out-of-Order Simulator ***

Warmup Instructions: 10000000
Simulation Instructions: 50000000
Number of CPUs: 1
LLC sets: 2048
LLC ways: 16
Off-chip DRAM Size: 4096 MB Channels: 1 Width: 64-bit Data Rate: 533 MT/s
CPU 0 runs traces/SPEC2017/621.wrf_s-8065B.champsimtrace.xz
.xz
CPU 0 Bimodal branch predictor
BTB has LRU replacement policy
ITLB has LRU replacement policy
DTLB has LRU replacement policy
STLB has LRU replacement policy
L1I has LRU replacement policy
IP Table Entries: 256
L1D has LRU replacement policy
IP_Table L2 entries: 256
L2C has LRU replacement policy
LLC has LRU replacement policy
Heartbeat CPU 0 instructions: 10000002 cycles: 3025158 heartbeat IPC: 3.30561 cumulative IPC: 3.30561 (Simulation time: 0 hr 24 min 5 sec) 

Warmup complete CPU 0 instructions: 10000002 cycles: 3025158 (Simulation time: 0 hr 24 min 5 sec) 

Heartbeat CPU 0 instructions: 20000001 cycles: 12482277 heartbeat IPC: 1.0574 cumulative IPC: 1.0574 (Simulation time: 0 hr 40 min 11 sec) 
Heartbeat CPU 0 instructions: 30000001 cycles: 25464066 heartbeat IPC: 0.77031 cumulative IPC: 0.891309 (Simulation time: 0 hr 59 min 1 sec) 
Heartbeat CPU 0 instructions: 40000000 cycles: 38434026 heartbeat IPC: 0.771012 cumulative IPC: 0.847245 (Simulation time: 1 hr 24 min 0 sec) 
Heartbeat CPU 0 instructions: 50000002 cycles: 50549398 heartbeat IPC: 0.825398 cumulative IPC: 0.841676 (Simulation time: 1 hr 41 min 35 sec) 
Heartbeat CPU 0 instructions: 60000003 cycles: 63608009 heartbeat IPC: 0.765778 cumulative IPC: 0.825316 (Simulation time: 2 hr 2 min 6 sec) 
Finished CPU 0 instructions: 50000001 cycles: 60582851 cumulative IPC: 0.825316 (Simulation time: 2 hr 2 min 6 sec) 

ChampSim completed all CPUs

Region of Interest Statistics

CPU 0 cumulative IPC: 0.825316 instructions: 50000001 cycles: 60582851
ITLB TOTAL     ACCESS:    6802999  HIT:    6802971  MISS:         28  HIT %:    99.9996  MISS %: 0.000411583   MPKI: 0.00056
ITLB LOAD TRANSLATION ACCESS:    6802999  HIT:    6802971  MISS:         28  HIT %:    99.9996  MISS %: 0.000411583   MPKI: 0.00056
ITLB PREFETCH  REQUESTED:          0  ISSUED:          0  USEFUL:          0  USELESS:          0
ITLB USEFUL LOAD PREFETCHES:          0 PREFETCH ISSUED TO LOWER LEVEL:          0  ACCURACY: -nan
ITLB TIMELY PREFETCHES:          0 LATE PREFETCHES: 0 DROPPED PREFETCHES: 0
ITLB PREFETCHES SAME FILL-ORIGIN LEVEL: 0 DIFFERENT FILL-ORIGIN LEVEL: 0
ITLB AVERAGE MISS LATENCY: 326.893 cycles
ITLB RQ	ACCESS:    8150138	FORWARD:          0	MERGED:    1347131	TO_CACHE:    6803007

DTLB TOTAL     ACCESS:   11924869  HIT:   11890211  MISS:      34658  HIT %:    99.7094  MISS %:   0.290636   MPKI: 0.69316
DTLB LOAD TRANSLATION ACCESS:   11924869  HIT:   11890211  MISS:      34658  HIT %:    99.7094  MISS %:   0.290636   MPKI: 0.69316
DTLB PREFETCH  REQUESTED:          0  ISSUED:          0  USEFUL:          0  USELESS:          0
DTLB USEFUL LOAD PREFETCHES:          0 PREFETCH ISSUED TO LOWER LEVEL:          0  ACCURACY: -nan
DTLB TIMELY PREFETCHES:          0 LATE PREFETCHES: 0 DROPPED PREFETCHES: 0
DTLB PREFETCHES SAME FILL-ORIGIN LEVEL: 0 DIFFERENT FILL-ORIGIN LEVEL: 0
DTLB AVERAGE MISS LATENCY: 24.1414 cycles
DTLB RQ	ACCESS:   13216384	FORWARD:          0	MERGED:    1285292	TO_CACHE:   11931092

STLB TOTAL     ACCESS:     858745  HIT:     855616  MISS:       3129  HIT %:    99.6356  MISS %:   0.364369   MPKI: 0.06258
STLB LOAD TRANSLATION ACCESS:      34686  HIT:      31557  MISS:       3129  HIT %:    90.9791  MISS %:    9.02093   MPKI: 0.06258
STLB TRANSLATION FROM L1D PREFETCHER ACCESS:     824059  HIT:     824059  MISS:          0  HIT %:        100  MISS %:          0   MPKI: 0
STLB PREFETCH  REQUESTED:          0  ISSUED:          0  USEFUL:          0  USELESS:          0
STLB USEFUL LOAD PREFETCHES:          0 PREFETCH ISSUED TO LOWER LEVEL:          0  ACCURACY: -nan
STLB TIMELY PREFETCHES:          0 LATE PREFETCHES: 0 DROPPED PREFETCHES: 0
STLB PREFETCHES SAME FILL-ORIGIN LEVEL: 0 DIFFERENT FILL-ORIGIN LEVEL: 0
STLB AVERAGE MISS LATENCY: 169.182 cycles
STLB RQ	ACCESS:    2977403	FORWARD:          0	MERGED:    2118658	TO_CACHE:     858745

STLB Hit, L1D data hit: 0
STLB Hit, L2C data hit: 0
STLB Hit, LLC data hit: 0
STLB Hit, LLC data miss: 0
STLB STLB hints to L2: 0
L1D TOTAL     ACCESS:   15597621  HIT:   14745877  MISS:     851744  HIT %:    94.5393  MISS %:    5.46073   MPKI: 17.0349
L1D LOAD      ACCESS:   11072498  HIT:   10977031  MISS:      95467  HIT %:    99.1378  MISS %:   0.862199   MPKI: 1.90934
L1D RFO       ACCESS:    1611526  HIT:    1467697  MISS:     143829  HIT %:     91.075  MISS %:    8.92502   MPKI: 2.87658
L1D PREFETCH  ACCESS:    2913597  HIT:    2301149  MISS:     612448  HIT %:    78.9797  MISS %:    21.0203   MPKI: 12.249
L1D PREFETCH  REQUESTED:    6496198  ISSUED:    5886275  USEFUL:     465065  USELESS:     147354
L1D USEFUL LOAD PREFETCHES:     465065 PREFETCH ISSUED TO LOWER LEVEL:     752347  ACCURACY: 61.8152
L1D TIMELY PREFETCHES:     465065 LATE PREFETCHES: 47692 DROPPED PREFETCHES: 0
L1D PREFETCHES SAME FILL-ORIGIN LEVEL: 752347 DIFFERENT FILL-ORIGIN LEVEL: 0
L1D AVERAGE MISS LATENCY: 387824 cycles
L1D RQ	ACCESS:   16629594	FORWARD:          0	MERGED:    5465644	TO_CACHE:   11161327
L1D WQ	ACCESS:    2065746	FORWARD:       2623	MERGED:      10689	TO_CACHE:    2055057
L1D PQ	ACCESS:    2943558	FORWARD:          0	MERGED:        841	TO_CACHE:    2942717

L1D UNIQUE REGIONS ACCESSED: 0
L1D REGIONS CONFLICTS: 0
L1D Cross Page Prefetch Requests: 0
L1D Same Page Prefetch Requests: 4463284
L1D ROI Sum of L1D PQ occupancy: 58975479
L1D PREFETCHES PUSHED FROM L2C: 0
L1I TOTAL     ACCESS:    8149156  HIT:    8147667  MISS:       1489  HIT %:    99.9817  MISS %:  0.0182718   MPKI: 0.02978
L1I LOAD      ACCESS:    8149156  HIT:    8147667  MISS:       1489  HIT %:    99.9817  MISS %:  0.0182718   MPKI: 0.02978
L1I PREFETCH  REQUESTED:          0  ISSUED:          0  USEFUL:          0  USELESS:          0
L1I USEFUL LOAD PREFETCHES:          0 PREFETCH ISSUED TO LOWER LEVEL:          0  ACCURACY: -nan
L1I TIMELY PREFETCHES:          0 LATE PREFETCHES: 0 DROPPED PREFETCHES: 0
L1I PREFETCHES SAME FILL-ORIGIN LEVEL: 0 DIFFERENT FILL-ORIGIN LEVEL: 0
L1I AVERAGE MISS LATENCY: 315.019 cycles
L1I RQ	ACCESS:   12319937	FORWARD:          0	MERGED:    4169799	TO_CACHE:    8150138

BTB TOTAL     ACCESS:    1522699  HIT:    1522251  MISS:        448  HIT %:    99.9706  MISS %:  0.0294214   MPKI: 0.00896
BTB BRANCH_DIRECT_JUMP	ACCESS:      10290  HIT:      10246  MISS:         44
BTB BRANCH_INDIRECT	ACCESS:          4  HIT:          2  MISS:          2
BTB BRANCH_CONDITIONAL	ACCESS:    1485081  HIT:    1484854  MISS:        227
BTB BRANCH_DIRECT_CALL	ACCESS:      13662  HIT:      13597  MISS:         65
BTB BRANCH_INDIRECT_CALL	ACCESS:          0  HIT:          0  MISS:          0
BTB BRANCH_RETURN	ACCESS:      13662  HIT:      13552  MISS:        110
BTB BRANCH_OTHER ACCESS:          0  HIT:          0  MISS:          0

L2C TOTAL     ACCESS:    2579206  HIT:    1985405  MISS:     593801  HIT %:    76.9774  MISS %:    23.0226   MPKI: 11.876
L2C LOAD      ACCESS:      96956  HIT:      66520  MISS:      30436  HIT %:    68.6084  MISS %:    31.3916   MPKI: 0.60872
L2C DATA LOAD MPKI: 0.57894
L2C INSTRUCTION LOAD MPKI: 0.02978
L2C RFO       ACCESS:     134657  HIT:      14849  MISS:     119808  HIT %:    11.0273  MISS %:    88.9727   MPKI: 2.39616
L2C PREFETCH  ACCESS:    2080355  HIT:    1637968  MISS:     442387  HIT %:     78.735  MISS %:     21.265   MPKI: 8.84774
L2C DATA PREFETCH MPKI: 8.84774
L2C INSTRUCTION PREFETCH MPKI: 0
L2C WRITEBACK ACCESS:     264095  HIT:     263477  MISS:        618  HIT %:     99.766  MISS %:   0.234007   MPKI: 0.01236
L2C LOAD TRANSLATION ACCESS:       3143  HIT:       2591  MISS:        552  HIT %:    82.4372  MISS %:    17.5628   MPKI: 0.01104
L2C PREFETCH  REQUESTED:    2124392  ISSUED:    1935737  USEFUL:      28195  USELESS:     413728
L2C USEFUL LOAD PREFETCHES:      28195 PREFETCH ISSUED TO LOWER LEVEL:     443028  ACCURACY: 6.36416
L2C TIMELY PREFETCHES:      28195 LATE PREFETCHES: 641 DROPPED PREFETCHES: 0
L2C PREFETCHES SAME FILL-ORIGIN LEVEL: 245649 DIFFERENT FILL-ORIGIN LEVEL: 0
L2C AVERAGE MISS LATENCY: 442.302 cycles
L2C RQ	ACCESS:     234756	FORWARD:          0	MERGED:          0	TO_CACHE:     234756
L2C WQ	ACCESS:     264095	FORWARD:         44	MERGED:          0	TO_CACHE:     264095
L2C PQ	ACCESS:    2557357	FORWARD:          0	MERGED:     427915	TO_CACHE:    2129398

L2C Instructions Evicting Data 1488
L2C Translations Evicting Data 552
L2C Data Evicting Data 589089
L2C Instructions Evicting Instructions 0
L2C Translations Evicting Instructions 0
L2C Data Evicting Instructions 1489
L2C Instructions Evicting Translations 1
L2C Translations Evicting Translations 0
L2C Data Evicting Translations 564
L2C Dense regions hint from L2: 0
PSCL5 TOTAL     ACCESS:       3129  HIT:       3129  MISS:          0  HIT %:        100  MISS %:          0   MPKI: 0
PSCL5 LOAD TRANSLATION ACCESS:       3129  HIT:       3129  MISS:          0  HIT %:        100  MISS %:          0   MPKI: 0
PSCL5 PREFETCH  REQUESTED:          0  ISSUED:          0  USEFUL:          0  USELESS:          0
PSCL5 USEFUL LOAD PREFETCHES:          0 PREFETCH ISSUED TO LOWER LEVEL:          0  ACCURACY: -nan
PSCL5 TIMELY PREFETCHES:          0 LATE PREFETCHES: 0 DROPPED PREFETCHES: 0
PSCL5 PREFETCHES SAME FILL-ORIGIN LEVEL: 0 DIFFERENT FILL-ORIGIN LEVEL: 0

PSCL4 TOTAL     ACCESS:       3129  HIT:       3129  MISS:          0  HIT %:        100  MISS %:          0   MPKI: 0
PSCL4 LOAD TRANSLATION ACCESS:       3129  HIT:       3129  MISS:          0  HIT %:        100  MISS %:          0   MPKI: 0
PSCL4 PREFETCH  REQUESTED:          0  ISSUED:          0  USEFUL:          0  USELESS:          0
PSCL4 USEFUL LOAD PREFETCHES:          0 PREFETCH ISSUED TO LOWER LEVEL:          0  ACCURACY: -nan
PSCL4 TIMELY PREFETCHES:          0 LATE PREFETCHES: 0 DROPPED PREFETCHES: 0
PSCL4 PREFETCHES SAME FILL-ORIGIN LEVEL: 0 DIFFERENT FILL-ORIGIN LEVEL: 0

PSCL3 TOTAL     ACCESS:       3129  HIT:       3129  MISS:          0  HIT %:        100  MISS %:          0   MPKI: 0
PSCL3 LOAD TRANSLATION ACCESS:       3129  HIT:       3129  MISS:          0  HIT %:        100  MISS %:          0   MPKI: 0
PSCL3 PREFETCH  REQUESTED:          0  ISSUED:          0  USEFUL:          0  USELESS:          0
PSCL3 USEFUL LOAD PREFETCHES:          0 PREFETCH ISSUED TO LOWER LEVEL:          0  ACCURACY: -nan
PSCL3 TIMELY PREFETCHES:          0 LATE PREFETCHES: 0 DROPPED PREFETCHES: 0
PSCL3 PREFETCHES SAME FILL-ORIGIN LEVEL: 0 DIFFERENT FILL-ORIGIN LEVEL: 0

PSCL2 TOTAL     ACCESS:       3129  HIT:       3106  MISS:         23  HIT %:    99.2649  MISS %:   0.735059   MPKI: 0.00046
PSCL2 LOAD TRANSLATION ACCESS:       3129  HIT:       3106  MISS:         23  HIT %:    99.2649  MISS %:   0.735059   MPKI: 0.00046
PSCL2 PREFETCH  REQUESTED:          0  ISSUED:          0  USEFUL:          0  USELESS:          0
PSCL2 USEFUL LOAD PREFETCHES:          0 PREFETCH ISSUED TO LOWER LEVEL:          0  ACCURACY: -nan
PSCL2 TIMELY PREFETCHES:          0 LATE PREFETCHES: 0 DROPPED PREFETCHES: 0
PSCL2 PREFETCHES SAME FILL-ORIGIN LEVEL: 0 DIFFERENT FILL-ORIGIN LEVEL: 0

LLC TOTAL     ACCESS:     834103  HIT:     517582  MISS:     316521  HIT %:    62.0525  MISS %:    37.9475   MPKI: 6.33042
LLC LOAD      ACCESS:      29795  HIT:      13522  MISS:      16273  HIT %:    45.3835  MISS %:    54.6165   MPKI: 0.32546
LLC RFO       ACCESS:     119808  HIT:      22086  MISS:      97722  HIT %:    18.4345  MISS %:    81.5655   MPKI: 1.95444
LLC PREFETCH  ACCESS:     443026  HIT:     241212  MISS:     201814  HIT %:    54.4465  MISS %:    45.5535   MPKI: 4.03628
LLC WRITEBACK ACCESS:     240922  HIT:     240728  MISS:        194  HIT %:    99.9195  MISS %:   0.080524   MPKI: 0.00388
LLC LOAD TRANSLATION ACCESS:        552  HIT:         34  MISS:        518  HIT %:    6.15942  MISS %:    93.8406   MPKI: 0.01036
LLC PREFETCH  REQUESTED:          0  ISSUED:          0  USEFUL:       5958  USELESS:     176862
LLC USEFUL LOAD PREFETCHES:       5958 PREFETCH ISSUED TO LOWER LEVEL:     201814  ACCURACY: 2.95222
LLC TIMELY PREFETCHES:       5958 LATE PREFETCHES: 0 DROPPED PREFETCHES: 0
LLC PREFETCHES SAME FILL-ORIGIN LEVEL: 0 DIFFERENT FILL-ORIGIN LEVEL: 0
LLC AVERAGE MISS LATENCY: 774.313 cycles
LLC RQ	ACCESS:     150155	FORWARD:          0	MERGED:          0	TO_CACHE:     150155
LLC WQ	ACCESS:     240922	FORWARD:          2	MERGED:          0	TO_CACHE:     240922
LLC PQ	ACCESS:     443028	FORWARD:          0	MERGED:          0	TO_CACHE:     443026

LLC Dense regions hint to LLC: 0

RAW hits: 28292
Loads Generated: 16657890
Loads sent to L1D: 16629594
Stores Generated: 2065746
Stores sent to L1D: 2065746
Major fault: 0 Minor fault: 5259
Allocated PAGES: 5259

stream: 
stream:times selected: 1947228
stream:pref_filled: 872654
stream:pref_useful: 681376
stream:pref_late: 11434
stream:misses: 10043
stream:misses_by_poll: 0

CS: 
CS:times selected: 1801836
CS:pref_filled: 98207
CS:pref_useful: 67926
CS:pref_late: 1236
CS:misses: 206135
CS:misses_by_poll: 465

CPLX: 
CPLX:times selected: 145286
CPLX:pref_filled: 31369
CPLX:pref_useful: 20846
CPLX:pref_late: 115
CPLX:misses: 13881
CPLX:misses_by_poll: 51

NL_L1: 
NL:times selected: 561
NL:pref_filled: 243
NL:pref_useful: 8
NL:pref_late: 4
NL:misses: 375
NL:misses_by_poll: 3

total selections: 3894911
total_filled: 612448
total_useful: 465065
total_late: 12831
total_polluted: 519
total_misses_after_warmup: 184295
conflicts: 21799
Degree Incremented Times: 68693
Degree Decremented Times: 0

L1 IP Table Write Accesses: 11094985
L1 IP Table Read Accesses: 11073186
L1 RST Write Accesses: 1353957
L1 RST Read Accesses: 2707914
L1 CSPT Write Accesses: 1353957
L1 CSPT Read Accesses: 1693608
L1 RR Filter Tag Write Accesses: 3553481
L1 RR Filter Tag Read Accesses: 287892332
L1 IP Table Tag Write Accesses: 11161326
L1 IP Table Tag Read Accesses: 11161326
L1 RST Tag Write Accesses: 0
L1 RST Tag Read Accesses: 12178736
L1 RR Filter Write Accesses: 0
L1 RR Filter Read Accesses: 11459660
test: 104672
L2 IP Table Read Accesses: 1290263
L2 IP Table Write Accesses: 1198201
L2 IP Table Tag Read Accesses: 646844
L2 IP Table Tag Write Accesses: 646844

DRAM Statistics
 CHANNEL 0
 RQ ROW_BUFFER_HIT:     104874  ROW_BUFFER_MISS:     211332
 DBUS_CONGESTED:     383829
 WQ ROW_BUFFER_HIT:      49615  ROW_BUFFER_MISS:     115975  FULL:          0

 AVG_CONGESTED_CYCLE: 52
 All warmup complete: 2
Channel 0 Bank busy for read cycles: 0
Channel 0 Bank busy for write cycles: 0
Channel 0
Rank 0
0banks busy for read cycles: 24279832
0banks busy for write cycles: 19680
1banks busy for read cycles: 6972811
1banks busy for write cycles: 2439853
2banks busy for read cycles: 3259923
2banks busy for write cycles: 1281833
3banks busy for read cycles: 1312488
3banks busy for write cycles: 555711
4banks busy for read cycles: 1036808
4banks busy for write cycles: 500575
5banks busy for read cycles: 938465
5banks busy for write cycles: 418010
6banks busy for read cycles: 1012604
6banks busy for write cycles: 407451
7banks busy for read cycles: 1457201
7banks busy for write cycles: 603911
8banks busy for read cycles: 7092933
8banks busy for write cycles: 6992763

CPU 0 Branch Prediction Accuracy: 95.9166% MPKI: 1.36026 Average ROB Occupancy at Mispredict: 62.5486
Branch types
NOT_BRANCH: 48334087 96.6682%
BRANCH_DIRECT_JUMP: 10290 0.02058%
BRANCH_INDIRECT: 4 8e-06%
BRANCH_CONDITIONAL: 1627965 3.25593%
BRANCH_DIRECT_CALL: 13662 0.027324%
BRANCH_INDIRECT_CALL: 0 0%
BRANCH_RETURN: 13662 0.027324%
BRANCH_OTHER: 0 0%

@sumon_overall_L1D    465065     47692    147354    612448   5886275   6496198
@Sumon_Early_by_class_L1D    413221     38115     13597         3
@Sumon_Late_by_class_L1D      9765       969        82         3

@Sumon_Early_by_cycle_L1D     14056     24657     69441     40089     16658    103284    161986     20637      5898      2350      5335       674
@Sumon_Late_by_cycle_L1D      5177      1765      1626       948       534       621       167        16         1         0         0         0
@Sumon_Early_stream_L1D     13369     23740     65716     33667     11211     90055    159904      5670      3445      1468      4564       412
@Sumon_Early_CS_L1D       562       770      2182      4514      3983      9475       441     13267      1481       651       708        81
@Sumon_Early_CPLX_L1D        77       130      1507      1904      1462      3740      1638      1698       970       230        60       181
@Sumon_Late_stream_L1D      4847      1572      1380       798       467       535       149        16         1         0         0         0
@Sumon_Late_CS_L1D       280       176       227       135        56        78        17         0         0         0         0         0
@Sumon_Late_CPLX_L1D        26        11        16        13        10         6         0         0         0         0         0         0
@sumon_overall_L2C     28195       641    413728    442387   1935737   2124392
@Sumon_Early_by_class_L2C     27168       618       167         0
@Sumon_Late_by_class_L2C       575         0         0         0

@Sumon_Early_by_cycle_L2C       404       728      1006       603       985      8207      5287      1628      1565       858      3849      3075
@Sumon_Late_by_cycle_L2C       138        90       112        77        62       142        20         0         0         0         0         0
@Sumon_Early_stream_L2C       373       686       976       567       967      8013      5174      1589      1490       790      3742      2801
@Sumon_Early_CS_L2C         3        13         3         7        11       141        74        28        30        50        66       192
@Sumon_Early_CPLX_L2C         0         0         0         0         0         4        10         7        36        12        29        69
@Sumon_Late_stream_L2C       101        72       109        73        61       139        20         0         0         0         0         0
@Sumon_Late_CS_L2C         0         0         0         0         0         0         0         0         0         0         0         0
@Sumon_Late_CPLX_L2C         0         0         0         0         0         0         0         0         0         0         0         0
DRAM PAGES: 1048576
Allocated PAGES: 5259
