
*** ChampSim Multicore Out-of-Order Simulator ***

Warmup Instructions: 10000000
Simulation Instructions: 50000000
Number of CPUs: 1
LLC sets: 2048
LLC ways: 16
Off-chip DRAM Size: 4096 MB Channels: 1 Width: 64-bit Data Rate: 533 MT/s
CPU 0 runs traces/SPEC2017/654.roms_s-523B.champsimtrace.xz
.xz
CPU 0 Bimodal branch predictor
BTB has LRU replacement policy
ITLB has LRU replacement policy
DTLB has LRU replacement policy
STLB has LRU replacement policy
L1I has LRU replacement policy
IP Table Entries: 256
L1D has LRU replacement policy
IP_Table L2 entries: 256
L2C has LRU replacement policy
LLC has LRU replacement policy
Heartbeat CPU 0 instructions: 10000002 cycles: 2873036 heartbeat IPC: 3.48064 cumulative IPC: 3.48064 (Simulation time: 0 hr 20 min 18 sec) 

Warmup complete CPU 0 instructions: 10000002 cycles: 2873036 (Simulation time: 0 hr 20 min 18 sec) 

Heartbeat CPU 0 instructions: 20000000 cycles: 17391884 heartbeat IPC: 0.68876 cumulative IPC: 0.68876 (Simulation time: 0 hr 39 min 21 sec) 
Heartbeat CPU 0 instructions: 30000002 cycles: 44722663 heartbeat IPC: 0.365888 cumulative IPC: 0.477902 (Simulation time: 1 hr 17 min 36 sec) 
Heartbeat CPU 0 instructions: 40000001 cycles: 71712862 heartbeat IPC: 0.370505 cumulative IPC: 0.435794 (Simulation time: 1 hr 51 min 52 sec) 
Heartbeat CPU 0 instructions: 50000002 cycles: 89444571 heartbeat IPC: 0.563962 cumulative IPC: 0.462046 (Simulation time: 2 hr 11 min 56 sec) 
Heartbeat CPU 0 instructions: 60000003 cycles: 110169439 heartbeat IPC: 0.482512 cumulative IPC: 0.465999 (Simulation time: 2 hr 25 min 20 sec) 
Finished CPU 0 instructions: 50000001 cycles: 107296403 cumulative IPC: 0.465999 (Simulation time: 2 hr 25 min 20 sec) 

ChampSim completed all CPUs

Region of Interest Statistics

CPU 0 cumulative IPC: 0.465999 instructions: 50000001 cycles: 107296403
ITLB TOTAL     ACCESS:    7638677  HIT:    7638676  MISS:          1  HIT %:        100  MISS %: 1.30913e-05   MPKI: 2e-05
ITLB LOAD TRANSLATION ACCESS:    7638677  HIT:    7638676  MISS:          1  HIT %:        100  MISS %: 1.30913e-05   MPKI: 2e-05
ITLB PREFETCH  REQUESTED:          0  ISSUED:          0  USEFUL:          0  USELESS:          0
ITLB USEFUL LOAD PREFETCHES:          0 PREFETCH ISSUED TO LOWER LEVEL:          0  ACCURACY: -nan
ITLB TIMELY PREFETCHES:          0 LATE PREFETCHES: 0 DROPPED PREFETCHES: 0
ITLB PREFETCHES SAME FILL-ORIGIN LEVEL: 0 DIFFERENT FILL-ORIGIN LEVEL: 0
ITLB AVERAGE MISS LATENCY: 645 cycles
ITLB RQ	ACCESS:    9327212	FORWARD:          0	MERGED:    1688535	TO_CACHE:    7638677

DTLB TOTAL     ACCESS:   12279534  HIT:   12251377  MISS:      28157  HIT %:    99.7707  MISS %:     0.2293   MPKI: 0.56314
DTLB LOAD TRANSLATION ACCESS:   12279534  HIT:   12251377  MISS:      28157  HIT %:    99.7707  MISS %:     0.2293   MPKI: 0.56314
DTLB PREFETCH  REQUESTED:          0  ISSUED:          0  USEFUL:          0  USELESS:          0
DTLB USEFUL LOAD PREFETCHES:          0 PREFETCH ISSUED TO LOWER LEVEL:          0  ACCURACY: -nan
DTLB TIMELY PREFETCHES:          0 LATE PREFETCHES: 0 DROPPED PREFETCHES: 0
DTLB PREFETCHES SAME FILL-ORIGIN LEVEL: 0 DIFFERENT FILL-ORIGIN LEVEL: 0
DTLB AVERAGE MISS LATENCY: 593.961 cycles
DTLB RQ	ACCESS:   13522783	FORWARD:          0	MERGED:    1211112	TO_CACHE:   12311671

STLB TOTAL     ACCESS:    1048365  HIT:    1020341  MISS:      28024  HIT %:    97.3269  MISS %:    2.67311   MPKI: 0.56048
STLB LOAD TRANSLATION ACCESS:      28158  HIT:        134  MISS:      28024  HIT %:   0.475886  MISS %:    99.5241   MPKI: 0.56048
STLB TRANSLATION FROM L1D PREFETCHER ACCESS:    1020207  HIT:    1020207  MISS:          0  HIT %:        100  MISS %:          0   MPKI: 0
STLB PREFETCH  REQUESTED:          0  ISSUED:          0  USEFUL:          0  USELESS:          0
STLB USEFUL LOAD PREFETCHES:          0 PREFETCH ISSUED TO LOWER LEVEL:          0  ACCURACY: -nan
STLB TIMELY PREFETCHES:          0 LATE PREFETCHES: 0 DROPPED PREFETCHES: 0
STLB PREFETCHES SAME FILL-ORIGIN LEVEL: 0 DIFFERENT FILL-ORIGIN LEVEL: 0
STLB AVERAGE MISS LATENCY: 587.296 cycles
STLB RQ	ACCESS:    2138354	FORWARD:          0	MERGED:    1089989	TO_CACHE:    1048365

STLB Hit, L1D data hit: 0
STLB Hit, L2C data hit: 0
STLB Hit, LLC data hit: 0
STLB Hit, LLC data miss: 0
STLB STLB hints to L2: 0
L1D TOTAL     ACCESS:   12660337  HIT:   11395891  MISS:    1264446  HIT %:    90.0125  MISS %:    9.98746   MPKI: 25.2889
L1D LOAD      ACCESS:    9373287  HIT:    9268845  MISS:     104442  HIT %:    98.8857  MISS %:    1.11425   MPKI: 2.08884
L1D RFO       ACCESS:    1278512  HIT:     981679  MISS:     296833  HIT %:    76.7829  MISS %:    23.2171   MPKI: 5.93666
L1D PREFETCH  ACCESS:    2008538  HIT:    1145367  MISS:     863171  HIT %:    57.0249  MISS %:    42.9751   MPKI: 17.2634
L1D PREFETCH  REQUESTED:    4819170  ISSUED:    4231828  USEFUL:     748199  USELESS:     114956
L1D USEFUL LOAD PREFETCHES:     748199 PREFETCH ISSUED TO LOWER LEVEL:    1158079  ACCURACY: 64.6069
L1D TIMELY PREFETCHES:     748199 LATE PREFETCHES: 945388 DROPPED PREFETCHES: 0
L1D PREFETCHES SAME FILL-ORIGIN LEVEL: 1158079 DIFFERENT FILL-ORIGIN LEVEL: 0
L1D AVERAGE MISS LATENCY: 913860 cycles
L1D RQ	ACCESS:   18804498	FORWARD:          0	MERGED:    8393940	TO_CACHE:   10409631
L1D WQ	ACCESS:    3113152	FORWARD:        937	MERGED:          0	TO_CACHE:    3113152
L1D PQ	ACCESS:    2121632	FORWARD:          0	MERGED:      11426	TO_CACHE:    2110196

L1D UNIQUE REGIONS ACCESSED: 0
L1D REGIONS CONFLICTS: 0
L1D Cross Page Prefetch Requests: 0
L1D Same Page Prefetch Requests: 2996781
L1D ROI Sum of L1D PQ occupancy: 391717782
L1D PREFETCHES PUSHED FROM L2C: 0
L1I TOTAL     ACCESS:    9327172  HIT:    9327106  MISS:         66  HIT %:    99.9993  MISS %: 0.00070761   MPKI: 0.00132
L1I LOAD      ACCESS:    9327172  HIT:    9327106  MISS:         66  HIT %:    99.9993  MISS %: 0.00070761   MPKI: 0.00132
L1I PREFETCH  REQUESTED:          0  ISSUED:          0  USEFUL:          0  USELESS:          0
L1I USEFUL LOAD PREFETCHES:          0 PREFETCH ISSUED TO LOWER LEVEL:          0  ACCURACY: -nan
L1I TIMELY PREFETCHES:          0 LATE PREFETCHES: 0 DROPPED PREFETCHES: 0
L1I PREFETCHES SAME FILL-ORIGIN LEVEL: 0 DIFFERENT FILL-ORIGIN LEVEL: 0
L1I AVERAGE MISS LATENCY: 993.985 cycles
L1I RQ	ACCESS:   13126100	FORWARD:          0	MERGED:    3798888	TO_CACHE:    9327212

BTB TOTAL     ACCESS:    3177522  HIT:    3177490  MISS:         32  HIT %:     99.999  MISS %: 0.00100707   MPKI: 0.00064
BTB BRANCH_DIRECT_JUMP	ACCESS:     264284  HIT:     264280  MISS:          4
BTB BRANCH_INDIRECT	ACCESS:          0  HIT:          0  MISS:          0
BTB BRANCH_CONDITIONAL	ACCESS:    2913238  HIT:    2913210  MISS:         28
BTB BRANCH_DIRECT_CALL	ACCESS:          0  HIT:          0  MISS:          0
BTB BRANCH_INDIRECT_CALL	ACCESS:          0  HIT:          0  MISS:          0
BTB BRANCH_RETURN	ACCESS:          0  HIT:          0  MISS:          0
BTB BRANCH_OTHER ACCESS:          0  HIT:          0  MISS:          0

L2C TOTAL     ACCESS:    2819836  HIT:    1511417  MISS:    1308419  HIT %:    53.5995  MISS %:    46.4005   MPKI: 26.1684
L2C LOAD      ACCESS:     104508  HIT:      56877  MISS:      47631  HIT %:    54.4236  MISS %:    45.5764   MPKI: 0.95262
L2C DATA LOAD MPKI: 0.9513
L2C INSTRUCTION LOAD MPKI: 0.00132
L2C RFO       ACCESS:     268373  HIT:          6  MISS:     268367  HIT %: 0.00223569  MISS %:    99.9978   MPKI: 5.36734
L2C PREFETCH  ACCESS:    2017313  HIT:    1030887  MISS:     986426  HIT %:     51.102  MISS %:     48.898   MPKI: 19.7285
L2C DATA PREFETCH MPKI: 19.7285
L2C INSTRUCTION PREFETCH MPKI: 0
L2C WRITEBACK ACCESS:     401598  HIT:     401552  MISS:         46  HIT %:    99.9885  MISS %:  0.0114542   MPKI: 0.00092
L2C LOAD TRANSLATION ACCESS:      28044  HIT:      22095  MISS:       5949  HIT %:    78.7869  MISS %:    21.2131   MPKI: 0.11898
L2C PREFETCH  REQUESTED:    2584908  ISSUED:    2532020  USEFUL:      55877  USELESS:     931005
L2C USEFUL LOAD PREFETCHES:      55877 PREFETCH ISSUED TO LOWER LEVEL:    1003280  ACCURACY: 5.56943
L2C TIMELY PREFETCHES:      55877 LATE PREFETCHES: 16839 DROPPED PREFETCHES: 0
L2C PREFETCHES SAME FILL-ORIGIN LEVEL: 839588 DIFFERENT FILL-ORIGIN LEVEL: 0
L2C AVERAGE MISS LATENCY: 1489.71 cycles
L2C RQ	ACCESS:     400929	FORWARD:          0	MERGED:          0	TO_CACHE:     400929
L2C WQ	ACCESS:     401598	FORWARD:          0	MERGED:          0	TO_CACHE:     401598
L2C PQ	ACCESS:    3423657	FORWARD:          0	MERGED:     326093	TO_CACHE:    3097564

L2C Instructions Evicting Data 66
L2C Translations Evicting Data 5910
L2C Data Evicting Data 1296375
L2C Instructions Evicting Instructions 0
L2C Translations Evicting Instructions 0
L2C Data Evicting Instructions 66
L2C Instructions Evicting Translations 0
L2C Translations Evicting Translations 39
L2C Data Evicting Translations 5917
L2C Dense regions hint from L2: 0
PSCL5 TOTAL     ACCESS:      28024  HIT:      28024  MISS:          0  HIT %:        100  MISS %:          0   MPKI: 0
PSCL5 LOAD TRANSLATION ACCESS:      28024  HIT:      28024  MISS:          0  HIT %:        100  MISS %:          0   MPKI: 0
PSCL5 PREFETCH  REQUESTED:          0  ISSUED:          0  USEFUL:          0  USELESS:          0
PSCL5 USEFUL LOAD PREFETCHES:          0 PREFETCH ISSUED TO LOWER LEVEL:          0  ACCURACY: -nan
PSCL5 TIMELY PREFETCHES:          0 LATE PREFETCHES: 0 DROPPED PREFETCHES: 0
PSCL5 PREFETCHES SAME FILL-ORIGIN LEVEL: 0 DIFFERENT FILL-ORIGIN LEVEL: 0

PSCL4 TOTAL     ACCESS:      28024  HIT:      28024  MISS:          0  HIT %:        100  MISS %:          0   MPKI: 0
PSCL4 LOAD TRANSLATION ACCESS:      28024  HIT:      28024  MISS:          0  HIT %:        100  MISS %:          0   MPKI: 0
PSCL4 PREFETCH  REQUESTED:          0  ISSUED:          0  USEFUL:          0  USELESS:          0
PSCL4 USEFUL LOAD PREFETCHES:          0 PREFETCH ISSUED TO LOWER LEVEL:          0  ACCURACY: -nan
PSCL4 TIMELY PREFETCHES:          0 LATE PREFETCHES: 0 DROPPED PREFETCHES: 0
PSCL4 PREFETCHES SAME FILL-ORIGIN LEVEL: 0 DIFFERENT FILL-ORIGIN LEVEL: 0

PSCL3 TOTAL     ACCESS:      28024  HIT:      28020  MISS:          4  HIT %:    99.9857  MISS %:  0.0142735   MPKI: 8e-05
PSCL3 LOAD TRANSLATION ACCESS:      28024  HIT:      28020  MISS:          4  HIT %:    99.9857  MISS %:  0.0142735   MPKI: 8e-05
PSCL3 PREFETCH  REQUESTED:          0  ISSUED:          0  USEFUL:          0  USELESS:          0
PSCL3 USEFUL LOAD PREFETCHES:          0 PREFETCH ISSUED TO LOWER LEVEL:          0  ACCURACY: -nan
PSCL3 TIMELY PREFETCHES:          0 LATE PREFETCHES: 0 DROPPED PREFETCHES: 0
PSCL3 PREFETCHES SAME FILL-ORIGIN LEVEL: 0 DIFFERENT FILL-ORIGIN LEVEL: 0

PSCL2 TOTAL     ACCESS:      28024  HIT:      27942  MISS:         82  HIT %:    99.7074  MISS %:   0.292606   MPKI: 0.00164
PSCL2 LOAD TRANSLATION ACCESS:      28024  HIT:      27942  MISS:         82  HIT %:    99.7074  MISS %:   0.292606   MPKI: 0.00164
PSCL2 PREFETCH  REQUESTED:          0  ISSUED:          0  USEFUL:          0  USELESS:          0
PSCL2 USEFUL LOAD PREFETCHES:          0 PREFETCH ISSUED TO LOWER LEVEL:          0  ACCURACY: -nan
PSCL2 TIMELY PREFETCHES:          0 LATE PREFETCHES: 0 DROPPED PREFETCHES: 0
PSCL2 PREFETCHES SAME FILL-ORIGIN LEVEL: 0 DIFFERENT FILL-ORIGIN LEVEL: 0

LLC TOTAL     ACCESS:    1709836  HIT:     401505  MISS:    1308331  HIT %:    23.4821  MISS %:    76.5179   MPKI: 26.1666
LLC LOAD      ACCESS:      30792  HIT:         48  MISS:      30744  HIT %:   0.155885  MISS %:    99.8441   MPKI: 0.61488
LLC RFO       ACCESS:     268367  HIT:          0  MISS:     268367  HIT %:          0  MISS %:        100   MPKI: 5.36734
LLC PREFETCH  ACCESS:    1003266  HIT:          5  MISS:    1003261  HIT %: 0.000498372  MISS %:    99.9995   MPKI: 20.0652
LLC WRITEBACK ACCESS:     401462  HIT:     401431  MISS:         31  HIT %:    99.9923  MISS %: 0.00772178   MPKI: 0.00062
LLC LOAD TRANSLATION ACCESS:       5949  HIT:         21  MISS:       5928  HIT %:   0.353001  MISS %:     99.647   MPKI: 0.11856
LLC PREFETCH  REQUESTED:          0  ISSUED:          0  USEFUL:          0  USELESS:    1002602
LLC USEFUL LOAD PREFETCHES:          0 PREFETCH ISSUED TO LOWER LEVEL:    1003275  ACCURACY: 0
LLC TIMELY PREFETCHES:          0 LATE PREFETCHES: 0 DROPPED PREFETCHES: 0
LLC PREFETCHES SAME FILL-ORIGIN LEVEL: 0 DIFFERENT FILL-ORIGIN LEVEL: 0
LLC AVERAGE MISS LATENCY: 1478.78 cycles
LLC RQ	ACCESS:     305111	FORWARD:          0	MERGED:          0	TO_CACHE:     305111
LLC WQ	ACCESS:     401462	FORWARD:          0	MERGED:          0	TO_CACHE:     401462
LLC PQ	ACCESS:    1003280	FORWARD:          0	MERGED:          0	TO_CACHE:    1003280

LLC Dense regions hint to LLC: 0

RAW hits: 4611
Loads Generated: 18809114
Loads sent to L1D: 18804498
Stores Generated: 3113153
Stores sent to L1D: 3113152
Major fault: 0 Minor fault: 19648
Allocated PAGES: 19648

stream: 
stream:times selected: 2435409
stream:pref_filled: 968859
stream:pref_useful: 847095
stream:pref_late: 151815
stream:misses: 644
stream:misses_by_poll: 0

CS: 
CS:times selected: 2309623
CS:pref_filled: 2615
CS:pref_useful: 2339
CS:pref_late: 299
CS:misses: 1099388
CS:misses_by_poll: 10

CPLX: 
CPLX:times selected: 125697
CPLX:pref_filled: 386
CPLX:pref_useful: 88
CPLX:pref_late: 10
CPLX:misses: 43217
CPLX:misses_by_poll: 1

NL_L1: 
NL:times selected: 75
NL:pref_filled: 1
NL:pref_useful: 1
NL:pref_late: 0
NL:misses: 31
NL:misses_by_poll: 0

total selections: 4870804
total_filled: 863171
total_useful: 748199
total_late: 152129
total_polluted: 11
total_misses_after_warmup: 1140779
conflicts: 2015
Degree Incremented Times: 80109
Degree Decremented Times: 4706

L1 IP Table Write Accesses: 10399629
L1 IP Table Read Accesses: 10397614
L1 RST Write Accesses: 2132738
L1 RST Read Accesses: 4265476
L1 CSPT Write Accesses: 2132738
L1 CSPT Read Accesses: 2371191
L1 RR Filter Tag Write Accesses: 2708974
L1 RR Filter Tag Read Accesses: 405240877
L1 IP Table Tag Write Accesses: 10409624
L1 IP Table Tag Read Accesses: 10409624
L1 RST Tag Write Accesses: 0
L1 RST Tag Read Accesses: 19233176
L1 RR Filter Write Accesses: 0
L1 RR Filter Read Accesses: 18150627
test: 56813
L2 IP Table Read Accesses: 914864
L2 IP Table Write Accesses: 810713
L2 IP Table Tag Read Accesses: 457516
L2 IP Table Tag Write Accesses: 457516

DRAM Statistics
 CHANNEL 0
 RQ ROW_BUFFER_HIT:     543344  ROW_BUFFER_MISS:     764956
 DBUS_CONGESTED:    1634560
 WQ ROW_BUFFER_HIT:      39797  ROW_BUFFER_MISS:     362264  FULL:          0

 AVG_CONGESTED_CYCLE: 54
 All warmup complete: 2
Channel 0 Bank busy for read cycles: 0
Channel 0 Bank busy for write cycles: 0
Channel 0
Rank 0
0banks busy for read cycles: 18435
0banks busy for write cycles: 0
1banks busy for read cycles: 2583112
1banks busy for write cycles: 54541
2banks busy for read cycles: 2219138
2banks busy for write cycles: 54457
3banks busy for read cycles: 1716185
3banks busy for write cycles: 54429
4banks busy for read cycles: 1969758
4banks busy for write cycles: 54322
5banks busy for read cycles: 2630638
5banks busy for write cycles: 54244
6banks busy for read cycles: 3797542
6banks busy for write cycles: 56495
7banks busy for read cycles: 8017972
7banks busy for write cycles: 534171
8banks busy for read cycles: 57111823
8banks busy for write cycles: 26369142

CPU 0 Branch Prediction Accuracy: 99.8382% MPKI: 0.10508 Average ROB Occupancy at Mispredict: 158.638
Branch types
NOT_BRANCH: 46753073 93.5061%
BRANCH_DIRECT_JUMP: 264284 0.528568%
BRANCH_INDIRECT: 0 0%
BRANCH_CONDITIONAL: 2982611 5.96522%
BRANCH_DIRECT_CALL: 0 0%
BRANCH_INDIRECT_CALL: 0 0%
BRANCH_RETURN: 0 0%
BRANCH_OTHER: 0 0%

@sumon_overall_L1D    748199    945388    114956    863171   4231828   4819170
@Sumon_Early_by_class_L1D    745907      2196        88         0
@Sumon_Late_by_class_L1D    151749       299        10         0

@Sumon_Early_by_cycle_L1D     71523     52435    102572     83625     60507    211658    122808      8002     31084      3964        21         0
@Sumon_Late_by_cycle_L1D     46167     17944     21389     16423     13111     29203      7076       741         9         0         0         0
@Sumon_Early_stream_L1D     71247     52044    102054     83372     60399    211194    122616      7946     31056      3958        21         0
@Sumon_Early_CS_L1D       268       387       516       252       108       457       171         7        24         6         0         0
@Sumon_Early_CPLX_L1D         6         3         1         0         0         4        21        49         4         0         0         0
@Sumon_Late_stream_L1D     46048     17911     21351     16389     13087     29149      7065       740         9         0         0         0
@Sumon_Late_CS_L1D       116        32        37        31        21        50        11         1         0         0         0         0
@Sumon_Late_CPLX_L1D         2         1         1         1         2         3         0         0         0         0         0         0
@sumon_overall_L2C     55877     16839    931005    986426   2532020   2584908
@Sumon_Early_by_class_L2C     55791        59         0         0
@Sumon_Late_by_class_L2C     16728        49         0         0

@Sumon_Early_by_cycle_L2C      1386      3012      4874      3572      3487     23053     14214      1882         6       361        29         1
@Sumon_Late_by_cycle_L2C      1892      1536      2758      1501      2089      5908      1148         7         0         0         0         0
@Sumon_Early_stream_L2C      1380      2997      4862      3560      3479     23029     14209      1882         6       358        29         0
@Sumon_Early_CS_L2C         2        10        10        10         8        14         2         0         0         3         0         0
@Sumon_Early_CPLX_L2C         0         0         0         0         0         0         0         0         0         0         0         0
@Sumon_Late_stream_L2C      1832      1533      2747      1491      2083      5892      1143         7         0         0         0         0
@Sumon_Late_CS_L2C         6         2         8         7         6        15         5         0         0         0         0         0
@Sumon_Late_CPLX_L2C         0         0         0         0         0         0         0         0         0         0         0         0
DRAM PAGES: 1048576
Allocated PAGES: 19648
