
*** ChampSim Multicore Out-of-Order Simulator ***

Warmup Instructions: 10000000
Simulation Instructions: 50000000
Number of CPUs: 1
LLC sets: 2048
LLC ways: 16
Off-chip DRAM Size: 4096 MB Channels: 1 Width: 64-bit Data Rate: 200 MT/s
CPU 0 runs traces/SPEC2017/605.mcf_s-994B.champsimtrace.xz
.xz
CPU 0 Bimodal branch predictor
BTB has LRU replacement policy
ITLB has LRU replacement policy
DTLB has LRU replacement policy
STLB has LRU replacement policy
L1I has LRU replacement policy
IP Table Entries: 256
L1D has LRU replacement policy
IP_Table L2 entries: 256
L2C has LRU replacement policy
LLC has LRU replacement policy
Heartbeat CPU 0 instructions: 10000000 cycles: 3241801 heartbeat IPC: 3.08471 cumulative IPC: 3.08471 (Simulation time: 0 hr 27 min 53 sec) 

Warmup complete CPU 0 instructions: 10000004 cycles: 3241802 (Simulation time: 0 hr 27 min 53 sec) 

Heartbeat CPU 0 instructions: 20000000 cycles: 58244768 heartbeat IPC: 0.181808 cumulative IPC: 0.181808 (Simulation time: 0 hr 56 min 6 sec) 
Heartbeat CPU 0 instructions: 30000003 cycles: 115051312 heartbeat IPC: 0.176036 cumulative IPC: 0.178876 (Simulation time: 1 hr 24 min 24 sec) 
Heartbeat CPU 0 instructions: 40000001 cycles: 164531631 heartbeat IPC: 0.202101 cumulative IPC: 0.186001 (Simulation time: 1 hr 51 min 49 sec) 
Heartbeat CPU 0 instructions: 50000001 cycles: 304407149 heartbeat IPC: 0.0714921 cumulative IPC: 0.132817 (Simulation time: 2 hr 21 min 30 sec) 
Heartbeat CPU 0 instructions: 60000000 cycles: 373222611 heartbeat IPC: 0.145316 cumulative IPC: 0.135142 (Simulation time: 2 hr 35 min 35 sec) 
Finished CPU 0 instructions: 50000000 cycles: 369980815 cumulative IPC: 0.135142 (Simulation time: 2 hr 35 min 35 sec) 

ChampSim completed all CPUs

Region of Interest Statistics

CPU 0 cumulative IPC: 0.135142 instructions: 50000000 cycles: 369980815
ITLB TOTAL     ACCESS:    8952651  HIT:    8952651  MISS:          0  HIT %:        100  MISS %:          0   MPKI: 0
ITLB LOAD TRANSLATION ACCESS:    8952651  HIT:    8952651  MISS:          0  HIT %:        100  MISS %:          0   MPKI: 0
ITLB PREFETCH  REQUESTED:          0  ISSUED:          0  USEFUL:          0  USELESS:          0
ITLB USEFUL LOAD PREFETCHES:          0 PREFETCH ISSUED TO LOWER LEVEL:          0  ACCURACY: -nan
ITLB TIMELY PREFETCHES:          0 LATE PREFETCHES: 0 DROPPED PREFETCHES: 0
ITLB PREFETCHES SAME FILL-ORIGIN LEVEL: 0 DIFFERENT FILL-ORIGIN LEVEL: 0
ITLB AVERAGE MISS LATENCY: -nan cycles
ITLB RQ	ACCESS:    9152284	FORWARD:          0	MERGED:     199635	TO_CACHE:    8952649

DTLB TOTAL     ACCESS:   16536914  HIT:   15802793  MISS:     734121  HIT %:    95.5607  MISS %:    4.43929   MPKI: 14.6824
DTLB LOAD TRANSLATION ACCESS:   16536914  HIT:   15802793  MISS:     734121  HIT %:    95.5607  MISS %:    4.43929   MPKI: 14.6824
DTLB PREFETCH  REQUESTED:          0  ISSUED:          0  USEFUL:          0  USELESS:          0
DTLB USEFUL LOAD PREFETCHES:          0 PREFETCH ISSUED TO LOWER LEVEL:          0  ACCURACY: -nan
DTLB TIMELY PREFETCHES:          0 LATE PREFETCHES: 0 DROPPED PREFETCHES: 0
DTLB PREFETCHES SAME FILL-ORIGIN LEVEL: 0 DIFFERENT FILL-ORIGIN LEVEL: 0
DTLB AVERAGE MISS LATENCY: 118.658 cycles
DTLB RQ	ACCESS:   19376401	FORWARD:          0	MERGED:    2688693	TO_CACHE:   16687708

STLB TOTAL     ACCESS:    3691747  HIT:    3319389  MISS:     372358  HIT %:    89.9138  MISS %:    10.0862   MPKI: 7.44716
STLB LOAD TRANSLATION ACCESS:     734121  HIT:     361858  MISS:     372263  HIT %:    49.2913  MISS %:    50.7087   MPKI: 7.44526
STLB TRANSLATION FROM L1D PREFETCHER ACCESS:    2957626  HIT:    2957531  MISS:         95  HIT %:    99.9968  MISS %: 0.00321204   MPKI: 0.0019
STLB PREFETCH  REQUESTED:          0  ISSUED:          0  USEFUL:         93  USELESS:          2
STLB USEFUL LOAD PREFETCHES:         93 PREFETCH ISSUED TO LOWER LEVEL:          0  ACCURACY: inf
STLB TIMELY PREFETCHES:         93 LATE PREFETCHES: 0 DROPPED PREFETCHES: 0
STLB PREFETCHES SAME FILL-ORIGIN LEVEL: 0 DIFFERENT FILL-ORIGIN LEVEL: 0
STLB AVERAGE MISS LATENCY: 215.676 cycles
STLB RQ	ACCESS:    4424806	FORWARD:          0	MERGED:     732989	TO_CACHE:    3691817

STLB Hit, L1D data hit: 0
STLB Hit, L2C data hit: 0
STLB Hit, LLC data hit: 0
STLB Hit, LLC data miss: 0
STLB STLB hints to L2: 0
L1D TOTAL     ACCESS:   22555469  HIT:   19321075  MISS:    3234394  HIT %:    85.6603  MISS %:    14.3397   MPKI: 64.6879
L1D LOAD      ACCESS:   14066733  HIT:   12582985  MISS:    1483748  HIT %:    89.4521  MISS %:    10.5479   MPKI: 29.675
L1D RFO       ACCESS:    5066567  HIT:    5052769  MISS:      13798  HIT %:    99.7277  MISS %:   0.272334   MPKI: 0.27596
L1D PREFETCH  ACCESS:    3422169  HIT:    1685321  MISS:    1736848  HIT %:    49.2472  MISS %:    50.7528   MPKI: 34.737
L1D PREFETCH  REQUESTED:    7428881  ISSUED:    7383889  USEFUL:     240251  USELESS:    1496506
L1D USEFUL LOAD PREFETCHES:     240251 PREFETCH ISSUED TO LOWER LEVEL:    1737525  ACCURACY: 13.8272
L1D TIMELY PREFETCHES:     240251 LATE PREFETCHES: 194106 DROPPED PREFETCHES: 0
L1D PREFETCHES SAME FILL-ORIGIN LEVEL: 1737525 DIFFERENT FILL-ORIGIN LEVEL: 0
L1D AVERAGE MISS LATENCY: 11670.8 cycles
L1D RQ	ACCESS:   16996269	FORWARD:          0	MERGED:    1592106	TO_CACHE:   14287114
L1D WQ	ACCESS:    5114926	FORWARD:    1119395	MERGED:      25639	TO_CACHE:    5089287
L1D PQ	ACCESS:    3693204	FORWARD:          0	MERGED:        173	TO_CACHE:    3690685

L1D UNIQUE REGIONS ACCESSED: 0
L1D REGIONS CONFLICTS: 0
L1D Cross Page Prefetch Requests: 0
L1D Same Page Prefetch Requests: 4367228
L1D ROI Sum of L1D PQ occupancy: 93994344
L1D PREFETCHES PUSHED FROM L2C: 0
L1I TOTAL     ACCESS:    9152286  HIT:    9152286  MISS:          0  HIT %:        100  MISS %:          0   MPKI: 0
L1I LOAD      ACCESS:    9152286  HIT:    9152286  MISS:          0  HIT %:        100  MISS %:          0   MPKI: 0
L1I PREFETCH  REQUESTED:          0  ISSUED:          0  USEFUL:          0  USELESS:          0
L1I USEFUL LOAD PREFETCHES:          0 PREFETCH ISSUED TO LOWER LEVEL:          0  ACCURACY: -nan
L1I TIMELY PREFETCHES:          0 LATE PREFETCHES: 0 DROPPED PREFETCHES: 0
L1I PREFETCHES SAME FILL-ORIGIN LEVEL: 0 DIFFERENT FILL-ORIGIN LEVEL: 0
L1I AVERAGE MISS LATENCY: -nan cycles
L1I RQ	ACCESS:   14774778	FORWARD:          0	MERGED:    5622494	TO_CACHE:    9152284

BTB TOTAL     ACCESS:   11195514  HIT:   10468271  MISS:     727243  HIT %:    93.5042  MISS %:    6.49584   MPKI: 14.5449
BTB BRANCH_DIRECT_JUMP	ACCESS:    1118881  HIT:    1118860  MISS:         21
BTB BRANCH_INDIRECT	ACCESS:          0  HIT:          0  MISS:          0
BTB BRANCH_CONDITIONAL	ACCESS:    6895963  HIT:    6895921  MISS:         42
BTB BRANCH_DIRECT_CALL	ACCESS:    1540838  HIT:    1540825  MISS:         13
BTB BRANCH_INDIRECT_CALL	ACCESS:      49500  HIT:      49492  MISS:          8
BTB BRANCH_RETURN	ACCESS:    1590332  HIT:     863173  MISS:     727159
BTB BRANCH_OTHER ACCESS:          0  HIT:          0  MISS:          0

L2C TOTAL     ACCESS:    4268726  HIT:    1838123  MISS:    2430603  HIT %:    43.0602  MISS %:    56.9398   MPKI: 48.6121
L2C LOAD      ACCESS:    1483747  HIT:     451942  MISS:    1031805  HIT %:    30.4595  MISS %:    69.5405   MPKI: 20.6361
L2C DATA LOAD MPKI: 20.6361
L2C INSTRUCTION LOAD MPKI: 0
L2C RFO       ACCESS:      13541  HIT:      11796  MISS:       1745  HIT %:    87.1132  MISS %:    12.8868   MPKI: 0.0349
L2C PREFETCH  ACCESS:    2020337  HIT:     753254  MISS:    1267083  HIT %:    37.2836  MISS %:    62.7164   MPKI: 25.3417
L2C DATA PREFETCH MPKI: 25.3417
L2C INSTRUCTION PREFETCH MPKI: 0
L2C WRITEBACK ACCESS:     142241  HIT:     141952  MISS:        289  HIT %:    99.7968  MISS %:   0.203176   MPKI: 0.00578
L2C LOAD TRANSLATION ACCESS:     608712  HIT:     479121  MISS:     129591  HIT %:    78.7106  MISS %:    21.2894   MPKI: 2.59182
L2C TRANSLATION FROM L1D PREFETCHER ACCESS:        148  HIT:         58  MISS:         90  HIT %:    39.1892  MISS %:    60.8108   MPKI: 0.0018
L2C PREFETCH  REQUESTED:     305929  ISSUED:     305922  USEFUL:      24049  USELESS:    1243574
L2C USEFUL LOAD PREFETCHES:      24049 PREFETCH ISSUED TO LOWER LEVEL:    1267087  ACCURACY: 1.89798
L2C TIMELY PREFETCHES:      24049 LATE PREFETCHES: 4 DROPPED PREFETCHES: 0
L2C PREFETCHES SAME FILL-ORIGIN LEVEL: 77008 DIFFERENT FILL-ORIGIN LEVEL: 0
L2C AVERAGE MISS LATENCY: 472.313 cycles
L2C RQ	ACCESS:    2106149	FORWARD:          0	MERGED:          0	TO_CACHE:    2106148
L2C WQ	ACCESS:     142241	FORWARD:          4	MERGED:          0	TO_CACHE:     142241
L2C PQ	ACCESS:    2043027	FORWARD:          0	MERGED:      22572	TO_CACHE:    2020452

L2C Instructions Evicting Data 0
L2C Translations Evicting Data 121740
L2C Data Evicting Data 2179411
L2C Instructions Evicting Instructions 0
L2C Translations Evicting Instructions 0
L2C Data Evicting Instructions 0
L2C Instructions Evicting Translations 0
L2C Translations Evicting Translations 7941
L2C Data Evicting Translations 121222
L2C Dense regions hint from L2: 0
PSCL5 TOTAL     ACCESS:     372358  HIT:     372358  MISS:          0  HIT %:        100  MISS %:          0   MPKI: 0
PSCL5 LOAD TRANSLATION ACCESS:     372263  HIT:     372263  MISS:          0  HIT %:        100  MISS %:          0   MPKI: 0
PSCL5 TRANSLATION FROM L1D PREFETCHER ACCESS:         95  HIT:         95  MISS:          0  HIT %:        100  MISS %:          0   MPKI: 0
PSCL5 PREFETCH  REQUESTED:          0  ISSUED:          0  USEFUL:          0  USELESS:          0
PSCL5 USEFUL LOAD PREFETCHES:          0 PREFETCH ISSUED TO LOWER LEVEL:          0  ACCURACY: -nan
PSCL5 TIMELY PREFETCHES:          0 LATE PREFETCHES: 0 DROPPED PREFETCHES: 0
PSCL5 PREFETCHES SAME FILL-ORIGIN LEVEL: 0 DIFFERENT FILL-ORIGIN LEVEL: 0

PSCL4 TOTAL     ACCESS:     372358  HIT:     372358  MISS:          0  HIT %:        100  MISS %:          0   MPKI: 0
PSCL4 LOAD TRANSLATION ACCESS:     372263  HIT:     372263  MISS:          0  HIT %:        100  MISS %:          0   MPKI: 0
PSCL4 TRANSLATION FROM L1D PREFETCHER ACCESS:         95  HIT:         95  MISS:          0  HIT %:        100  MISS %:          0   MPKI: 0
PSCL4 PREFETCH  REQUESTED:          0  ISSUED:          0  USEFUL:          0  USELESS:          0
PSCL4 USEFUL LOAD PREFETCHES:          0 PREFETCH ISSUED TO LOWER LEVEL:          0  ACCURACY: -nan
PSCL4 TIMELY PREFETCHES:          0 LATE PREFETCHES: 0 DROPPED PREFETCHES: 0
PSCL4 PREFETCHES SAME FILL-ORIGIN LEVEL: 0 DIFFERENT FILL-ORIGIN LEVEL: 0

PSCL3 TOTAL     ACCESS:     372358  HIT:     372358  MISS:          0  HIT %:        100  MISS %:          0   MPKI: 0
PSCL3 LOAD TRANSLATION ACCESS:     372263  HIT:     372263  MISS:          0  HIT %:        100  MISS %:          0   MPKI: 0
PSCL3 TRANSLATION FROM L1D PREFETCHER ACCESS:         95  HIT:         95  MISS:          0  HIT %:        100  MISS %:          0   MPKI: 0
PSCL3 PREFETCH  REQUESTED:          0  ISSUED:          0  USEFUL:          0  USELESS:          0
PSCL3 USEFUL LOAD PREFETCHES:          0 PREFETCH ISSUED TO LOWER LEVEL:          0  ACCURACY: -nan
PSCL3 TIMELY PREFETCHES:          0 LATE PREFETCHES: 0 DROPPED PREFETCHES: 0
PSCL3 PREFETCHES SAME FILL-ORIGIN LEVEL: 0 DIFFERENT FILL-ORIGIN LEVEL: 0

PSCL2 TOTAL     ACCESS:     372358  HIT:     135346  MISS:     237012  HIT %:    36.3484  MISS %:    63.6516   MPKI: 4.74024
PSCL2 LOAD TRANSLATION ACCESS:     372316  HIT:     135304  MISS:     237012  HIT %:    36.3412  MISS %:    63.6588   MPKI: 4.74024
PSCL2 TRANSLATION FROM L1D PREFETCHER ACCESS:         42  HIT:         42  MISS:          0  HIT %:        100  MISS %:          0   MPKI: 0
PSCL2 PREFETCH  REQUESTED:          0  ISSUED:          0  USEFUL:          0  USELESS:          0
PSCL2 USEFUL LOAD PREFETCHES:          0 PREFETCH ISSUED TO LOWER LEVEL:          0  ACCURACY: -nan
PSCL2 TIMELY PREFETCHES:          0 LATE PREFETCHES: 0 DROPPED PREFETCHES: 0
PSCL2 PREFETCHES SAME FILL-ORIGIN LEVEL: 0 DIFFERENT FILL-ORIGIN LEVEL: 0

LLC TOTAL     ACCESS:    2522822  HIT:     638469  MISS:    1884353  HIT %:    25.3077  MISS %:    74.6923   MPKI: 37.6871
LLC LOAD      ACCESS:    1031804  HIT:     273211  MISS:     758593  HIT %:     26.479  MISS %:     73.521   MPKI: 15.1719
LLC RFO       ACCESS:       1742  HIT:       1208  MISS:        534  HIT %:    69.3456  MISS %:    30.6544   MPKI: 0.01068
LLC PREFETCH  ACCESS:    1267086  HIT:     242344  MISS:    1024742  HIT %:    19.1261  MISS %:    80.8739   MPKI: 20.4948
LLC WRITEBACK ACCESS:      92509  HIT:      92286  MISS:        223  HIT %:    99.7589  MISS %:   0.241058   MPKI: 0.00446
LLC LOAD TRANSLATION ACCESS:     129591  HIT:      29367  MISS:     100224  HIT %:    22.6613  MISS %:    77.3387   MPKI: 2.00448
LLC TRANSLATION FROM L1D PREFETCHER ACCESS:         90  HIT:         53  MISS:         37  HIT %:    58.8889  MISS %:    41.1111   MPKI: 0.00074
LLC PREFETCH  REQUESTED:          0  ISSUED:          0  USEFUL:      16862  USELESS:    1008250
LLC USEFUL LOAD PREFETCHES:      16862 PREFETCH ISSUED TO LOWER LEVEL:    1024742  ACCURACY: 1.64549
LLC TIMELY PREFETCHES:      16862 LATE PREFETCHES: 0 DROPPED PREFETCHES: 0
LLC PREFETCHES SAME FILL-ORIGIN LEVEL: 0 DIFFERENT FILL-ORIGIN LEVEL: 0
LLC AVERAGE MISS LATENCY: 569.15 cycles
LLC RQ	ACCESS:    1163227	FORWARD:          0	MERGED:          0	TO_CACHE:    1163227
LLC WQ	ACCESS:      92509	FORWARD:          1	MERGED:          0	TO_CACHE:      92509
LLC PQ	ACCESS:    1267087	FORWARD:          0	MERGED:          0	TO_CACHE:    1267086

LLC Dense regions hint to LLC: 0

RAW hits: 419716
Loads Generated: 17415986
Loads sent to L1D: 16996269
Stores Generated: 5114922
Stores sent to L1D: 5114926
Major fault: 0 Minor fault: 119985
Allocated PAGES: 119985

stream: 
stream:times selected: 5446142
stream:pref_filled: 1439684
stream:pref_useful: 169884
stream:pref_late: 192825
stream:misses: 481381
stream:misses_by_poll: 0

CS: 
CS:times selected: 277293
CS:pref_filled: 123132
CS:pref_useful: 118310
CS:pref_late: 22
CS:misses: 804
CS:misses_by_poll: 58

CPLX: 
CPLX:times selected: 5123614
CPLX:pref_filled: 421596
CPLX:pref_useful: 23504
CPLX:pref_late: 1910
CPLX:misses: 1440492
CPLX:misses_by_poll: 2568

NL_L1: 
NL:times selected: 54418
NL:pref_filled: 19054
NL:pref_useful: 3335
NL:pref_late: 2508
NL:misses: 19675
NL:misses_by_poll: 0

total selections: 10901467
total_filled: 1736848
total_useful: 240251
total_late: 197265
total_polluted: 2626
total_misses_after_warmup: 1704127
conflicts: 49552
Degree Incremented Times: 63337
Degree Decremented Times: 199798

L1 IP Table Write Accesses: 14185561
L1 IP Table Read Accesses: 14136009
L1 RST Write Accesses: 4552055
L1 RST Read Accesses: 9104110
L1 CSPT Write Accesses: 4552055
L1 CSPT Read Accesses: 8831266
L1 RR Filter Tag Write Accesses: 3738196
L1 RR Filter Tag Read Accesses: 158345868
L1 IP Table Tag Write Accesses: 14287112
L1 IP Table Tag Read Accesses: 14287112
L1 RST Tag Write Accesses: 0
L1 RST Tag Read Accesses: 42811225
L1 RR Filter Write Accesses: 0
L1 RR Filter Read Accesses: 5786932
test: 3172909
L2 IP Table Read Accesses: 6436971
L2 IP Table Write Accesses: 4953422
L2 IP Table Tag Read Accesses: 3218757
L2 IP Table Tag Write Accesses: 3218757

DRAM Statistics
 CHANNEL 0
 RQ ROW_BUFFER_HIT:     129478  ROW_BUFFER_MISS:    1754469
 DBUS_CONGESTED:    1867132
 WQ ROW_BUFFER_HIT:      37303  ROW_BUFFER_MISS:      32127  FULL:          0

 AVG_CONGESTED_CYCLE: 135
 All warmup complete: 2
Channel 0 Bank busy for read cycles: 0
Channel 0 Bank busy for write cycles: 0
Channel 0
Rank 0
0banks busy for read cycles: 34460825
0banks busy for write cycles: 6323
1banks busy for read cycles: 83532515
1banks busy for write cycles: 2191768
2banks busy for read cycles: 82460071
2banks busy for write cycles: 904321
3banks busy for read cycles: 57999703
3banks busy for write cycles: 608438
4banks busy for read cycles: 34746830
4banks busy for write cycles: 530168
5banks busy for read cycles: 20607879
5banks busy for write cycles: 519079
6banks busy for read cycles: 13275522
6banks busy for write cycles: 738425
7banks busy for read cycles: 7267179
7banks busy for write cycles: 3106803
8banks busy for read cycles: 2227046
8banks busy for write cycles: 24797921

CPU 0 Branch Prediction Accuracy: 92.7543% MPKI: 18.162 Average ROB Occupancy at Mispredict: 16.7907
Branch types
NOT_BRANCH: 37466601 74.9332%
BRANCH_DIRECT_JUMP: 1118881 2.23776%
BRANCH_INDIRECT: 0 0%
BRANCH_CONDITIONAL: 8233493 16.467%
BRANCH_DIRECT_CALL: 1540838 3.08168%
BRANCH_INDIRECT_CALL: 49500 0.099%
BRANCH_RETURN: 1590332 3.18066%
BRANCH_OTHER: 0 0%

@sumon_overall_L1D    240251    194106   1496506   1736848   7383889   7428881
@Sumon_Early_by_class_L1D    113562    103176     21224      2452
@Sumon_Late_by_class_L1D    189492        20      1875      2452

@Sumon_Early_by_cycle_L1D     40185     14170      6390      4188      3475     17813     26658     24753     49819     43993      6561      2246
@Sumon_Late_by_cycle_L1D    112364     27476     22407     16707      8156      6662        66         1         0         0         0         0
@Sumon_Early_stream_L1D     39012     13316      5703      3488      2610      8795      7911     10149     11909      8067      2305       297
@Sumon_Early_CS_L1D        87       299       200       296       444      7312     16820     11520     33990     31113      1002        93
@Sumon_Early_CPLX_L1D       486       406       397       321       358      1432      1706      2657      3675      4708      3223      1855
@Sumon_Late_stream_L1D    109596     27342     21815     16245      7931      6500        62         1         0         0         0         0
@Sumon_Late_CS_L1D        15         2         3         0         0         0         0         0         0         0         0         0
@Sumon_Late_CPLX_L1D      1104        75       245       247       112        89         3         0         0         0         0         0
@sumon_overall_L2C     24049         4   1243574   1267173    305922    305929
@Sumon_Early_by_class_L2C     18482      3211      1907         0
@Sumon_Late_by_class_L2C         0         4         0         0

@Sumon_Early_by_cycle_L2C         2         4         1         1         2        13        20        12        92      1081      2309     20512
@Sumon_Late_by_cycle_L2C         2         0         0         0         0         2         0         0         0         0         0         0
@Sumon_Early_stream_L2C         1         1         1         0         0         0         0         0        42       777      1886     15774
@Sumon_Early_CS_L2C         0         3         0         1         2        13        18        10        37       131       169      2827
@Sumon_Early_CPLX_L2C         0         0         0         0         0         0         0         2        12       141       195      1557
@Sumon_Late_stream_L2C         0         0         0         0         0         0         0         0         0         0         0         0
@Sumon_Late_CS_L2C         2         0         0         0         0         2         0         0         0         0         0         0
@Sumon_Late_CPLX_L2C         0         0         0         0         0         0         0         0         0         0         0         0
DRAM PAGES: 1048576
Allocated PAGES: 119985
