
*** ChampSim Multicore Out-of-Order Simulator ***

Warmup Instructions: 10000000
Simulation Instructions: 50000000
Number of CPUs: 1
LLC sets: 2048
LLC ways: 16
Off-chip DRAM Size: 4096 MB Channels: 1 Width: 64-bit Data Rate: 200 MT/s
CPU 0 runs traces/SPEC2017/605.mcf_s-484B.champsimtrace.xz
.xz
CPU 0 Bimodal branch predictor
BTB has LRU replacement policy
ITLB has LRU replacement policy
DTLB has LRU replacement policy
STLB has LRU replacement policy
L1I has LRU replacement policy
IP Table Entries: 256
L1D has LRU replacement policy
IP_Table L2 entries: 256
L2C has LRU replacement policy
LLC has LRU replacement policy
Heartbeat CPU 0 instructions: 10000001 cycles: 3160792 heartbeat IPC: 3.16376 cumulative IPC: 3.16376 (Simulation time: 0 hr 26 min 22 sec) 

Warmup complete CPU 0 instructions: 10000001 cycles: 3160792 (Simulation time: 0 hr 26 min 22 sec) 

Heartbeat CPU 0 instructions: 20000000 cycles: 76861014 heartbeat IPC: 0.135685 cumulative IPC: 0.135685 (Simulation time: 1 hr 19 min 8 sec) 
Heartbeat CPU 0 instructions: 30000000 cycles: 154222648 heartbeat IPC: 0.129263 cumulative IPC: 0.132396 (Simulation time: 2 hr 8 min 58 sec) 
Heartbeat CPU 0 instructions: 40000000 cycles: 205713085 heartbeat IPC: 0.194211 cumulative IPC: 0.14811 (Simulation time: 2 hr 31 min 7 sec) 
Heartbeat CPU 0 instructions: 50000000 cycles: 275661882 heartbeat IPC: 0.142962 cumulative IPC: 0.146788 (Simulation time: 2 hr 47 min 10 sec) 
Heartbeat CPU 0 instructions: 60000003 cycles: 340556219 heartbeat IPC: 0.154097 cumulative IPC: 0.148194 (Simulation time: 2 hr 58 min 6 sec) 
Finished CPU 0 instructions: 50000002 cycles: 337395427 cumulative IPC: 0.148194 (Simulation time: 2 hr 58 min 6 sec) 

ChampSim completed all CPUs

Region of Interest Statistics

CPU 0 cumulative IPC: 0.148194 instructions: 50000002 cycles: 337395427
ITLB TOTAL     ACCESS:    8198392  HIT:    8198392  MISS:          0  HIT %:        100  MISS %:          0   MPKI: 0
ITLB LOAD TRANSLATION ACCESS:    8198392  HIT:    8198392  MISS:          0  HIT %:        100  MISS %:          0   MPKI: 0
ITLB PREFETCH  REQUESTED:          0  ISSUED:          0  USEFUL:          0  USELESS:          0
ITLB USEFUL LOAD PREFETCHES:          0 PREFETCH ISSUED TO LOWER LEVEL:          0  ACCURACY: -nan
ITLB TIMELY PREFETCHES:          0 LATE PREFETCHES: 0 DROPPED PREFETCHES: 0
ITLB PREFETCHES SAME FILL-ORIGIN LEVEL: 0 DIFFERENT FILL-ORIGIN LEVEL: 0
ITLB AVERAGE MISS LATENCY: -nan cycles
ITLB RQ	ACCESS:   10711448	FORWARD:          0	MERGED:    2513057	TO_CACHE:    8198391

DTLB TOTAL     ACCESS:   13185600  HIT:   13078597  MISS:     107003  HIT %:    99.1885  MISS %:   0.811514   MPKI: 2.14006
DTLB LOAD TRANSLATION ACCESS:   13185600  HIT:   13078597  MISS:     107003  HIT %:    99.1885  MISS %:   0.811514   MPKI: 2.14006
DTLB PREFETCH  REQUESTED:          0  ISSUED:          0  USEFUL:          0  USELESS:          0
DTLB USEFUL LOAD PREFETCHES:          0 PREFETCH ISSUED TO LOWER LEVEL:          0  ACCURACY: -nan
DTLB TIMELY PREFETCHES:          0 LATE PREFETCHES: 0 DROPPED PREFETCHES: 0
DTLB PREFETCHES SAME FILL-ORIGIN LEVEL: 0 DIFFERENT FILL-ORIGIN LEVEL: 0
DTLB AVERAGE MISS LATENCY: 88.8552 cycles
DTLB RQ	ACCESS:   23459160	FORWARD:          0	MERGED:   10259803	TO_CACHE:   13199357

STLB TOTAL     ACCESS:    3978734  HIT:    3944286  MISS:      34448  HIT %:    99.1342  MISS %:   0.865803   MPKI: 0.68896
STLB LOAD TRANSLATION ACCESS:     107003  HIT:      72562  MISS:      34441  HIT %:    67.8131  MISS %:    32.1869   MPKI: 0.68882
STLB TRANSLATION FROM L1D PREFETCHER ACCESS:    3871731  HIT:    3871724  MISS:          7  HIT %:    99.9998  MISS %: 0.000180798   MPKI: 0.00014
STLB PREFETCH  REQUESTED:          0  ISSUED:          0  USEFUL:          3  USELESS:          4
STLB USEFUL LOAD PREFETCHES:          3 PREFETCH ISSUED TO LOWER LEVEL:          0  ACCURACY: inf
STLB TIMELY PREFETCHES:          3 LATE PREFETCHES: 0 DROPPED PREFETCHES: 0
STLB PREFETCHES SAME FILL-ORIGIN LEVEL: 0 DIFFERENT FILL-ORIGIN LEVEL: 0
STLB AVERAGE MISS LATENCY: 248.111 cycles
STLB RQ	ACCESS:    6306087	FORWARD:          0	MERGED:    2327353	TO_CACHE:    3978734

STLB Hit, L1D data hit: 0
STLB Hit, L2C data hit: 0
STLB Hit, LLC data hit: 0
STLB Hit, LLC data miss: 0
STLB STLB hints to L2: 0
L1D TOTAL     ACCESS:   28879229  HIT:   26951828  MISS:    1927401  HIT %:     93.326  MISS %:      6.674   MPKI: 38.548
L1D LOAD      ACCESS:    8778019  HIT:    8138332  MISS:     639687  HIT %:    92.7126  MISS %:    7.28737   MPKI: 12.7937
L1D RFO       ACCESS:   14005423  HIT:   13891112  MISS:     114311  HIT %:    99.1838  MISS %:   0.816191   MPKI: 2.28622
L1D PREFETCH  ACCESS:    6095787  HIT:    4922384  MISS:    1173403  HIT %:    80.7506  MISS %:    19.2494   MPKI: 23.4681
L1D PREFETCH  REQUESTED:   12398977  ISSUED:   12398174  USEFUL:     339519  USELESS:     833917
L1D USEFUL LOAD PREFETCHES:     339519 PREFETCH ISSUED TO LOWER LEVEL:    1187899  ACCURACY: 28.5815
L1D TIMELY PREFETCHES:     339519 LATE PREFETCHES: 235507 DROPPED PREFETCHES: 0
L1D PREFETCHES SAME FILL-ORIGIN LEVEL: 1187899 DIFFERENT FILL-ORIGIN LEVEL: 0
L1D AVERAGE MISS LATENCY: 1.28817e+06 cycles
L1D RQ	ACCESS:   15558099	FORWARD:          0	MERGED:    6469429	TO_CACHE:    9084654
L1D WQ	ACCESS:   14570723	FORWARD:       4022	MERGED:     196217	TO_CACHE:   14374506
L1D PQ	ACCESS:    6199090	FORWARD:          0	MERGED:          0	TO_CACHE:    6199084

L1D UNIQUE REGIONS ACCESSED: 0
L1D REGIONS CONFLICTS: 0
L1D Cross Page Prefetch Requests: 0
L1D Same Page Prefetch Requests: 7395262
L1D ROI Sum of L1D PQ occupancy: 264221031
L1D PREFETCHES PUSHED FROM L2C: 0
L1I TOTAL     ACCESS:   10711447  HIT:   10711447  MISS:          0  HIT %:        100  MISS %:          0   MPKI: 0
L1I LOAD      ACCESS:   10711447  HIT:   10711447  MISS:          0  HIT %:        100  MISS %:          0   MPKI: 0
L1I PREFETCH  REQUESTED:          0  ISSUED:          0  USEFUL:          0  USELESS:          0
L1I USEFUL LOAD PREFETCHES:          0 PREFETCH ISSUED TO LOWER LEVEL:          0  ACCURACY: -nan
L1I TIMELY PREFETCHES:          0 LATE PREFETCHES: 0 DROPPED PREFETCHES: 0
L1I PREFETCHES SAME FILL-ORIGIN LEVEL: 0 DIFFERENT FILL-ORIGIN LEVEL: 0
L1I AVERAGE MISS LATENCY: -nan cycles
L1I RQ	ACCESS:   14497511	FORWARD:          0	MERGED:    3786063	TO_CACHE:   10711448

BTB TOTAL     ACCESS:    4772229  HIT:    4772195  MISS:         34  HIT %:    99.9993  MISS %: 0.000712455   MPKI: 0.00068
BTB BRANCH_DIRECT_JUMP	ACCESS:     215829  HIT:     215823  MISS:          6
BTB BRANCH_INDIRECT	ACCESS:          0  HIT:          0  MISS:          0
BTB BRANCH_CONDITIONAL	ACCESS:    4556360  HIT:    4556336  MISS:         24
BTB BRANCH_DIRECT_CALL	ACCESS:         20  HIT:         18  MISS:          2
BTB BRANCH_INDIRECT_CALL	ACCESS:          0  HIT:          0  MISS:          0
BTB BRANCH_RETURN	ACCESS:         20  HIT:         18  MISS:          2
BTB BRANCH_OTHER ACCESS:          0  HIT:          0  MISS:          0

L2C TOTAL     ACCESS:    2555878  HIT:     866097  MISS:    1689781  HIT %:    33.8865  MISS %:    66.1135   MPKI: 33.7956
L2C LOAD      ACCESS:     639678  HIT:      41898  MISS:     597780  HIT %:    6.54986  MISS %:    93.4501   MPKI: 11.9556
L2C DATA LOAD MPKI: 11.9556
L2C INSTRUCTION LOAD MPKI: 0
L2C RFO       ACCESS:      99816  HIT:       1895  MISS:      97921  HIT %:    1.89849  MISS %:    98.1015   MPKI: 1.95842
L2C PREFETCH  ACCESS:    1454658  HIT:     466699  MISS:     987959  HIT %:    32.0831  MISS %:    67.9169   MPKI: 19.7592
L2C DATA PREFETCH MPKI: 19.7592
L2C INSTRUCTION PREFETCH MPKI: 0
L2C WRITEBACK ACCESS:     327195  HIT:     326158  MISS:       1037  HIT %:    99.6831  MISS %:   0.316936   MPKI: 0.02074
L2C LOAD TRANSLATION ACCESS:      34524  HIT:      29447  MISS:       5077  HIT %:    85.2943  MISS %:    14.7057   MPKI: 0.10154
L2C TRANSLATION FROM L1D PREFETCHER ACCESS:          7  HIT:          0  MISS:          7  HIT %:          0  MISS %:        100   MPKI: 0.00014
L2C PREFETCH  REQUESTED:     358091  ISSUED:     358091  USEFUL:      19105  USELESS:     968482
L2C USEFUL LOAD PREFETCHES:      19105 PREFETCH ISSUED TO LOWER LEVEL:     988201  ACCURACY: 1.93331
L2C TIMELY PREFETCHES:      19105 LATE PREFETCHES: 239 DROPPED PREFETCHES: 0
L2C PREFETCHES SAME FILL-ORIGIN LEVEL: 131158 DIFFERENT FILL-ORIGIN LEVEL: 0
L2C AVERAGE MISS LATENCY: 1475.38 cycles
L2C RQ	ACCESS:     774035	FORWARD:          0	MERGED:          0	TO_CACHE:     774025
L2C WQ	ACCESS:     327195	FORWARD:         23	MERGED:          0	TO_CACHE:     327195
L2C PQ	ACCESS:    1545990	FORWARD:          0	MERGED:      13404	TO_CACHE:    1532573

L2C Instructions Evicting Data 0
L2C Translations Evicting Data 5078
L2C Data Evicting Data 1678585
L2C Instructions Evicting Instructions 0
L2C Translations Evicting Instructions 0
L2C Data Evicting Instructions 0
L2C Instructions Evicting Translations 0
L2C Translations Evicting Translations 6
L2C Data Evicting Translations 5075
L2C Dense regions hint from L2: 0
PSCL5 TOTAL     ACCESS:      34448  HIT:      34448  MISS:          0  HIT %:        100  MISS %:          0   MPKI: 0
PSCL5 LOAD TRANSLATION ACCESS:      34441  HIT:      34441  MISS:          0  HIT %:        100  MISS %:          0   MPKI: 0
PSCL5 TRANSLATION FROM L1D PREFETCHER ACCESS:          7  HIT:          7  MISS:          0  HIT %:        100  MISS %:          0   MPKI: 0
PSCL5 PREFETCH  REQUESTED:          0  ISSUED:          0  USEFUL:          0  USELESS:          0
PSCL5 USEFUL LOAD PREFETCHES:          0 PREFETCH ISSUED TO LOWER LEVEL:          0  ACCURACY: -nan
PSCL5 TIMELY PREFETCHES:          0 LATE PREFETCHES: 0 DROPPED PREFETCHES: 0
PSCL5 PREFETCHES SAME FILL-ORIGIN LEVEL: 0 DIFFERENT FILL-ORIGIN LEVEL: 0

PSCL4 TOTAL     ACCESS:      34448  HIT:      34448  MISS:          0  HIT %:        100  MISS %:          0   MPKI: 0
PSCL4 LOAD TRANSLATION ACCESS:      34441  HIT:      34441  MISS:          0  HIT %:        100  MISS %:          0   MPKI: 0
PSCL4 TRANSLATION FROM L1D PREFETCHER ACCESS:          7  HIT:          7  MISS:          0  HIT %:        100  MISS %:          0   MPKI: 0
PSCL4 PREFETCH  REQUESTED:          0  ISSUED:          0  USEFUL:          0  USELESS:          0
PSCL4 USEFUL LOAD PREFETCHES:          0 PREFETCH ISSUED TO LOWER LEVEL:          0  ACCURACY: -nan
PSCL4 TIMELY PREFETCHES:          0 LATE PREFETCHES: 0 DROPPED PREFETCHES: 0
PSCL4 PREFETCHES SAME FILL-ORIGIN LEVEL: 0 DIFFERENT FILL-ORIGIN LEVEL: 0

PSCL3 TOTAL     ACCESS:      34448  HIT:      34448  MISS:          0  HIT %:        100  MISS %:          0   MPKI: 0
PSCL3 LOAD TRANSLATION ACCESS:      34441  HIT:      34441  MISS:          0  HIT %:        100  MISS %:          0   MPKI: 0
PSCL3 TRANSLATION FROM L1D PREFETCHER ACCESS:          7  HIT:          7  MISS:          0  HIT %:        100  MISS %:          0   MPKI: 0
PSCL3 PREFETCH  REQUESTED:          0  ISSUED:          0  USEFUL:          0  USELESS:          0
PSCL3 USEFUL LOAD PREFETCHES:          0 PREFETCH ISSUED TO LOWER LEVEL:          0  ACCURACY: -nan
PSCL3 TIMELY PREFETCHES:          0 LATE PREFETCHES: 0 DROPPED PREFETCHES: 0
PSCL3 PREFETCHES SAME FILL-ORIGIN LEVEL: 0 DIFFERENT FILL-ORIGIN LEVEL: 0

PSCL2 TOTAL     ACCESS:      34448  HIT:      34334  MISS:        114  HIT %:    99.6691  MISS %:   0.330934   MPKI: 0.00228
PSCL2 LOAD TRANSLATION ACCESS:      34441  HIT:      34327  MISS:        114  HIT %:     99.669  MISS %:   0.331001   MPKI: 0.00228
PSCL2 TRANSLATION FROM L1D PREFETCHER ACCESS:          7  HIT:          7  MISS:          0  HIT %:        100  MISS %:          0   MPKI: 0
PSCL2 PREFETCH  REQUESTED:          0  ISSUED:          0  USEFUL:          0  USELESS:          0
PSCL2 USEFUL LOAD PREFETCHES:          0 PREFETCH ISSUED TO LOWER LEVEL:          0  ACCURACY: -nan
PSCL2 TIMELY PREFETCHES:          0 LATE PREFETCHES: 0 DROPPED PREFETCHES: 0
PSCL2 PREFETCHES SAME FILL-ORIGIN LEVEL: 0 DIFFERENT FILL-ORIGIN LEVEL: 0

LLC TOTAL     ACCESS:    1987123  HIT:     316677  MISS:    1670446  HIT %:    15.9365  MISS %:    84.0635   MPKI: 33.4089
LLC LOAD      ACCESS:     597542  HIT:       2071  MISS:     595471  HIT %:   0.346587  MISS %:    99.6534   MPKI: 11.9094
LLC RFO       ACCESS:      97920  HIT:         52  MISS:      97868  HIT %:  0.0531046  MISS %:    99.9469   MPKI: 1.95736
LLC PREFETCH  ACCESS:     988198  HIT:      17202  MISS:     970996  HIT %:    1.74074  MISS %:    98.2593   MPKI: 19.4199
LLC WRITEBACK ACCESS:     298379  HIT:     297094  MISS:       1285  HIT %:    99.5693  MISS %:    0.43066   MPKI: 0.0257
LLC LOAD TRANSLATION ACCESS:       5077  HIT:        258  MISS:       4819  HIT %:    5.08174  MISS %:    94.9183   MPKI: 0.09638
LLC TRANSLATION FROM L1D PREFETCHER ACCESS:          7  HIT:          0  MISS:          7  HIT %:          0  MISS %:        100   MPKI: 0.00014
LLC PREFETCH  REQUESTED:          0  ISSUED:          0  USEFUL:       1359  USELESS:     967751
LLC USEFUL LOAD PREFETCHES:       1359 PREFETCH ISSUED TO LOWER LEVEL:     970999  ACCURACY: 0.139959
LLC TIMELY PREFETCHES:       1359 LATE PREFETCHES: 0 DROPPED PREFETCHES: 0
LLC PREFETCHES SAME FILL-ORIGIN LEVEL: 0 DIFFERENT FILL-ORIGIN LEVEL: 0
LLC AVERAGE MISS LATENCY: 1462.31 cycles
LLC RQ	ACCESS:     700546	FORWARD:          0	MERGED:          0	TO_CACHE:     700546
LLC WQ	ACCESS:     298379	FORWARD:          0	MERGED:          0	TO_CACHE:     298379
LLC PQ	ACCESS:     988201	FORWARD:          0	MERGED:          0	TO_CACHE:     988201

LLC Dense regions hint to LLC: 0

RAW hits: 263479
Loads Generated: 15821578
Loads sent to L1D: 15558099
Stores Generated: 14570749
Stores sent to L1D: 14570723
Major fault: 0 Minor fault: 18248
Allocated PAGES: 18248

stream: 
stream:times selected: 7000861
stream:pref_filled: 631294
stream:pref_useful: 118291
stream:pref_late: 86256
stream:misses: 130401
stream:misses_by_poll: 0

CS: 
CS:times selected: 210893
CS:pref_filled: 135728
CS:pref_useful: 133560
CS:pref_late: 2500
CS:misses: 5749
CS:misses_by_poll: 147

CPLX: 
CPLX:times selected: 6730789
CPLX:pref_filled: 599452
CPLX:pref_useful: 154279
CPLX:pref_late: 106954
CPLX:misses: 837009
CPLX:misses_by_poll: 3878

NL_L1: 
NL:times selected: 55272
NL:pref_filled: 6598
NL:pref_useful: 2019
NL:pref_late: 1706
NL:misses: 11434
NL:misses_by_poll: 4

total selections: 13997815
total_filled: 1173403
total_useful: 339519
total_late: 197416
total_polluted: 4029
total_misses_after_warmup: 946323
conflicts: 19489
Degree Incremented Times: 42943
Degree Decremented Times: 136220

L1 IP Table Write Accesses: 9003700
L1 IP Table Read Accesses: 8984211
L1 RST Write Accesses: 5814327
L1 RST Read Accesses: 11628654
L1 CSPT Write Accesses: 5814327
L1 CSPT Read Accesses: 11399708
L1 RR Filter Tag Write Accesses: 6199893
L1 RR Filter Tag Read Accesses: 278602224
L1 IP Table Tag Write Accesses: 9084655
L1 IP Table Tag Read Accesses: 9084655
L1 RST Tag Write Accesses: 0
L1 RST Tag Read Accesses: 57426963
L1 RR Filter Write Accesses: 0
L1 RR Filter Read Accesses: 9121139
test: 3970156
L2 IP Table Read Accesses: 3544699
L2 IP Table Write Accesses: 2960151
L2 IP Table Tag Read Accesses: 1799879
L2 IP Table Tag Write Accesses: 1799879

DRAM Statistics
 CHANNEL 0
 RQ ROW_BUFFER_HIT:     816412  ROW_BUFFER_MISS:     852690
 DBUS_CONGESTED:    1952518
 WQ ROW_BUFFER_HIT:     117577  ROW_BUFFER_MISS:     186887  FULL:          0

 AVG_CONGESTED_CYCLE: 146
 All warmup complete: 2
Channel 0 Bank busy for read cycles: 0
Channel 0 Bank busy for write cycles: 0
Channel 0
Rank 0
0banks busy for read cycles: 13101352
0banks busy for write cycles: 5378
1banks busy for read cycles: 39110381
1banks busy for write cycles: 1455200
2banks busy for read cycles: 39067856
2banks busy for write cycles: 1110719
3banks busy for read cycles: 30234990
3banks busy for write cycles: 934897
4banks busy for read cycles: 20163365
4banks busy for write cycles: 842117
5banks busy for read cycles: 16283069
5banks busy for write cycles: 848350
6banks busy for read cycles: 18838582
6banks busy for write cycles: 1011839
7banks busy for read cycles: 34785578
7banks busy for write cycles: 4174829
8banks busy for read cycles: 67703826
8banks busy for write cycles: 47723100

CPU 0 Branch Prediction Accuracy: 98.133% MPKI: 1.81274 Average ROB Occupancy at Mispredict: 209.905
Branch types
NOT_BRANCH: 45145344 90.2907%
BRANCH_DIRECT_JUMP: 215829 0.431658%
BRANCH_INDIRECT: 0 0%
BRANCH_CONDITIONAL: 4638791 9.27758%
BRANCH_DIRECT_CALL: 20 4e-05%
BRANCH_INDIRECT_CALL: 0 0%
BRANCH_RETURN: 20 4e-05%
BRANCH_OTHER: 0 0%

@sumon_overall_L1D    339519    235507    833917   1173403  12398174  12398977
@Sumon_Early_by_class_L1D     92162    119890    126026      1620
@Sumon_Late_by_class_L1D     80656      2491     91336      1620

@Sumon_Early_by_cycle_L1D     15134     20327     21811     14403     12411     47193     50800     59610     38808     33366     17382      8274
@Sumon_Late_by_cycle_L1D      8807     27512     24615     15732     15776     62327     19561      1732        41         0         0         0
@Sumon_Early_stream_L1D     11625     14129     11488      5950      4759     13637     10749      6523      4779      4920      2115      1488
@Sumon_Early_CS_L1D      3234       940      1876      1653      1329      7774     29155     45200     22852      5866        10         1
@Sumon_Early_CPLX_L1D       245      5061      8347      6747      6262     25558     10649      7750     11025     22434     15210      6738
@Sumon_Late_stream_L1D      6407     20853     14448      6124      6737     19298      6231       548        10         0         0         0
@Sumon_Late_CS_L1D       232       577       541       225       158       427       253        73         5         0         0         0
@Sumon_Late_CPLX_L1D      2160      5395      9381      9276      8734     42275     12988      1101        26         0         0         0
@sumon_overall_L2C     19105       239    968482    987966    358091    358091
@Sumon_Early_by_class_L2C      2391       831     13465         0
@Sumon_Late_by_class_L2C         0       213         0         0

@Sumon_Early_by_cycle_L2C         1        12        28        32        27       183       294       390       331       742      1644     15421
@Sumon_Late_by_cycle_L2C         5        16        22        13        24        78        71        10         0         0         0         0
@Sumon_Early_stream_L2C         0         0         0         0         0         0         0         0         1         7       113      2270
@Sumon_Early_CS_L2C         1        12        28        32        27       138       220       264        59        47         2         1
@Sumon_Early_CPLX_L2C         0         0         0         0         0         0         0         1         2       128      1169     12165
@Sumon_Late_stream_L2C         0         0         0         0         0         0         0         0         0         0         0         0
@Sumon_Late_CS_L2C         4        16        22        13        24        70        57         7         0         0         0         0
@Sumon_Late_CPLX_L2C         0         0         0         0         0         0         0         0         0         0         0         0
DRAM PAGES: 1048576
Allocated PAGES: 18248
