
*** ChampSim Multicore Out-of-Order Simulator ***

Warmup Instructions: 10000000
Simulation Instructions: 50000000
Number of CPUs: 1
LLC sets: 2048
LLC ways: 16
Off-chip DRAM Size: 4096 MB Channels: 1 Width: 64-bit Data Rate: 200 MT/s
CPU 0 runs traces/SPEC2017/649.fotonik3d_s-10881B.champsimtrace.xz
.xz
CPU 0 Bimodal branch predictor
BTB has LRU replacement policy
ITLB has LRU replacement policy
DTLB has LRU replacement policy
STLB has LRU replacement policy
L1I has LRU replacement policy
IP Table Entries: 256
L1D has LRU replacement policy
IP_Table L2 entries: 256
L2C has LRU replacement policy
LLC has LRU replacement policy
Heartbeat CPU 0 instructions: 10000003 cycles: 5058990 heartbeat IPC: 1.97668 cumulative IPC: 1.97668 (Simulation time: 0 hr 39 min 19 sec) 

Warmup complete CPU 0 instructions: 10000003 cycles: 5058990 (Simulation time: 0 hr 39 min 19 sec) 

Heartbeat CPU 0 instructions: 20000003 cycles: 63946334 heartbeat IPC: 0.169816 cumulative IPC: 0.169816 (Simulation time: 1 hr 33 min 12 sec) 
Heartbeat CPU 0 instructions: 30000001 cycles: 122858108 heartbeat IPC: 0.169745 cumulative IPC: 0.169781 (Simulation time: 2 hr 16 min 16 sec) 
Heartbeat CPU 0 instructions: 40000003 cycles: 181772705 heartbeat IPC: 0.169737 cumulative IPC: 0.169766 (Simulation time: 2 hr 39 min 25 sec) 
Heartbeat CPU 0 instructions: 50000002 cycles: 240900040 heartbeat IPC: 0.169126 cumulative IPC: 0.169606 (Simulation time: 2 hr 53 min 16 sec) 
Heartbeat CPU 0 instructions: 60000000 cycles: 299751396 heartbeat IPC: 0.16992 cumulative IPC: 0.169668 (Simulation time: 3 hr 3 min 19 sec) 
Finished CPU 0 instructions: 50000001 cycles: 294692407 cumulative IPC: 0.169668 (Simulation time: 3 hr 3 min 19 sec) 

ChampSim completed all CPUs

Region of Interest Statistics

CPU 0 cumulative IPC: 0.169668 instructions: 50000001 cycles: 294692407
ITLB TOTAL     ACCESS:    6521826  HIT:    6521826  MISS:          0  HIT %:        100  MISS %:          0   MPKI: 0
ITLB LOAD TRANSLATION ACCESS:    6521826  HIT:    6521826  MISS:          0  HIT %:        100  MISS %:          0   MPKI: 0
ITLB PREFETCH  REQUESTED:          0  ISSUED:          0  USEFUL:          0  USELESS:          0
ITLB USEFUL LOAD PREFETCHES:          0 PREFETCH ISSUED TO LOWER LEVEL:          0  ACCURACY: -nan
ITLB TIMELY PREFETCHES:          0 LATE PREFETCHES: 0 DROPPED PREFETCHES: 0
ITLB PREFETCHES SAME FILL-ORIGIN LEVEL: 0 DIFFERENT FILL-ORIGIN LEVEL: 0
ITLB AVERAGE MISS LATENCY: -nan cycles
ITLB RQ	ACCESS:    6928080	FORWARD:          0	MERGED:     406255	TO_CACHE:    6521825

DTLB TOTAL     ACCESS:   21960285  HIT:   21699727  MISS:     260558  HIT %:    98.8135  MISS %:     1.1865   MPKI: 5.21116
DTLB LOAD TRANSLATION ACCESS:   21960285  HIT:   21699727  MISS:     260558  HIT %:    98.8135  MISS %:     1.1865   MPKI: 5.21116
DTLB PREFETCH  REQUESTED:          0  ISSUED:          0  USEFUL:          0  USELESS:          0
DTLB USEFUL LOAD PREFETCHES:          0 PREFETCH ISSUED TO LOWER LEVEL:          0  ACCURACY: -nan
DTLB TIMELY PREFETCHES:          0 LATE PREFETCHES: 0 DROPPED PREFETCHES: 0
DTLB PREFETCHES SAME FILL-ORIGIN LEVEL: 0 DIFFERENT FILL-ORIGIN LEVEL: 0
DTLB AVERAGE MISS LATENCY: 507.492 cycles
DTLB RQ	ACCESS:   24490956	FORWARD:          0	MERGED:    2519060	TO_CACHE:   21971896

STLB TOTAL     ACCESS:    1595629  HIT:    1425992  MISS:     169637  HIT %:    89.3686  MISS %:    10.6314   MPKI: 3.39274
STLB LOAD TRANSLATION ACCESS:     260558  HIT:      90935  MISS:     169623  HIT %:    34.9001  MISS %:    65.0999   MPKI: 3.39246
STLB TRANSLATION FROM L1D PREFETCHER ACCESS:    1335071  HIT:    1335057  MISS:         14  HIT %:     99.999  MISS %: 0.00104863   MPKI: 0.00028
STLB PREFETCH  REQUESTED:          0  ISSUED:          0  USEFUL:         14  USELESS:          0
STLB USEFUL LOAD PREFETCHES:         14 PREFETCH ISSUED TO LOWER LEVEL:          0  ACCURACY: inf
STLB TIMELY PREFETCHES:         14 LATE PREFETCHES: 0 DROPPED PREFETCHES: 0
STLB PREFETCHES SAME FILL-ORIGIN LEVEL: 0 DIFFERENT FILL-ORIGIN LEVEL: 0
STLB AVERAGE MISS LATENCY: 747.324 cycles
STLB RQ	ACCESS:    2892434	FORWARD:          0	MERGED:    1296805	TO_CACHE:    1595629

STLB Hit, L1D data hit: 0
STLB Hit, L2C data hit: 0
STLB Hit, LLC data hit: 0
STLB Hit, LLC data miss: 0
STLB STLB hints to L2: 0
L1D TOTAL     ACCESS:   26826114  HIT:   25401659  MISS:    1424455  HIT %:      94.69  MISS %:    5.30996   MPKI: 28.4891
L1D LOAD      ACCESS:   21075776  HIT:   20803591  MISS:     272185  HIT %:    98.7085  MISS %:    1.29146   MPKI: 5.4437
L1D RFO       ACCESS:    3199665  HIT:    3185282  MISS:      14383  HIT %:    99.5505  MISS %:   0.449516   MPKI: 0.28766
L1D PREFETCH  ACCESS:    2550673  HIT:    1412786  MISS:    1137887  HIT %:    55.3888  MISS %:    44.6112   MPKI: 22.7577
L1D PREFETCH  REQUESTED:    5291905  ISSUED:    5263755  USEFUL:     670213  USELESS:     467694
L1D USEFUL LOAD PREFETCHES:     670213 PREFETCH ISSUED TO LOWER LEVEL:    1152273  ACCURACY: 58.1644
L1D TIMELY PREFETCHES:     670213 LATE PREFETCHES: 106729 DROPPED PREFETCHES: 0
L1D PREFETCHES SAME FILL-ORIGIN LEVEL: 1152273 DIFFERENT FILL-ORIGIN LEVEL: 0
L1D AVERAGE MISS LATENCY: 1.55248e+06 cycles
L1D RQ	ACCESS:   31955439	FORWARD:          0	MERGED:   10666950	TO_CACHE:   21285296
L1D WQ	ACCESS:    3205660	FORWARD:       3193	MERGED:          0	TO_CACHE:    3205660
L1D PQ	ACCESS:    2631879	FORWARD:          0	MERGED:          3	TO_CACHE:    2631876

L1D UNIQUE REGIONS ACCESSED: 0
L1D REGIONS CONFLICTS: 0
L1D Cross Page Prefetch Requests: 0
L1D Same Page Prefetch Requests: 3178117
L1D ROI Sum of L1D PQ occupancy: 299168017
L1D PREFETCHES PUSHED FROM L2C: 0
L1I TOTAL     ACCESS:    6928081  HIT:    6928081  MISS:          0  HIT %:        100  MISS %:          0   MPKI: 0
L1I LOAD      ACCESS:    6928081  HIT:    6928081  MISS:          0  HIT %:        100  MISS %:          0   MPKI: 0
L1I PREFETCH  REQUESTED:          0  ISSUED:          0  USEFUL:          0  USELESS:          0
L1I USEFUL LOAD PREFETCHES:          0 PREFETCH ISSUED TO LOWER LEVEL:          0  ACCURACY: -nan
L1I TIMELY PREFETCHES:          0 LATE PREFETCHES: 0 DROPPED PREFETCHES: 0
L1I PREFETCHES SAME FILL-ORIGIN LEVEL: 0 DIFFERENT FILL-ORIGIN LEVEL: 0
L1I AVERAGE MISS LATENCY: -nan cycles
L1I RQ	ACCESS:   15738867	FORWARD:          0	MERGED:    8810787	TO_CACHE:    6928080

BTB TOTAL     ACCESS:     560943  HIT:     560938  MISS:          5  HIT %:    99.9991  MISS %: 0.000891356   MPKI: 0.0001
BTB BRANCH_DIRECT_JUMP	ACCESS:      40061  HIT:      40060  MISS:          1
BTB BRANCH_INDIRECT	ACCESS:          0  HIT:          0  MISS:          0
BTB BRANCH_CONDITIONAL	ACCESS:     520882  HIT:     520878  MISS:          4
BTB BRANCH_DIRECT_CALL	ACCESS:          0  HIT:          0  MISS:          0
BTB BRANCH_INDIRECT_CALL	ACCESS:          0  HIT:          0  MISS:          0
BTB BRANCH_RETURN	ACCESS:          0  HIT:          0  MISS:          0
BTB BRANCH_OTHER ACCESS:          0  HIT:          0  MISS:          0

L2C TOTAL     ACCESS:    2081225  HIT:     643039  MISS:    1438186  HIT %:    30.8971  MISS %:    69.1029   MPKI: 28.7637
L2C LOAD      ACCESS:     272184  HIT:        535  MISS:     271649  HIT %:   0.196558  MISS %:    99.8034   MPKI: 5.43298
L2C DATA LOAD MPKI: 5.43298
L2C INSTRUCTION LOAD MPKI: 0
L2C PREFETCH  ACCESS:    1153606  HIT:       8774  MISS:    1144832  HIT %:   0.760572  MISS %:    99.2394   MPKI: 22.8966
L2C DATA PREFETCH MPKI: 22.8966
L2C INSTRUCTION PREFETCH MPKI: 0
L2C WRITEBACK ACCESS:     485739  HIT:     485739  MISS:          0  HIT %:        100  MISS %:          0   MPKI: 0
L2C LOAD TRANSLATION ACCESS:     169682  HIT:     147979  MISS:      21703  HIT %:    87.2096  MISS %:    12.7904   MPKI: 0.43406
L2C TRANSLATION FROM L1D PREFETCHER ACCESS:         14  HIT:         12  MISS:          2  HIT %:    85.7143  MISS %:    14.2857   MPKI: 4e-05
L2C PREFETCH  REQUESTED:       1687  ISSUED:       1687  USEFUL:        534  USELESS:    1144437
L2C USEFUL LOAD PREFETCHES:        534 PREFETCH ISSUED TO LOWER LEVEL:    1144835  ACCURACY: 0.0466443
L2C TIMELY PREFETCHES:        534 LATE PREFETCHES: 0 DROPPED PREFETCHES: 0
L2C PREFETCHES SAME FILL-ORIGIN LEVEL: 702 DIFFERENT FILL-ORIGIN LEVEL: 0
L2C AVERAGE MISS LATENCY: 1926.75 cycles
L2C RQ	ACCESS:     441881	FORWARD:          0	MERGED:          0	TO_CACHE:     441881
L2C WQ	ACCESS:     485739	FORWARD:          0	MERGED:          0	TO_CACHE:     485739
L2C PQ	ACCESS:    1153960	FORWARD:          0	MERGED:        191	TO_CACHE:    1153769

L2C Instructions Evicting Data 0
L2C Translations Evicting Data 21488
L2C Data Evicting Data 1395011
L2C Instructions Evicting Instructions 0
L2C Translations Evicting Instructions 0
L2C Data Evicting Instructions 0
L2C Instructions Evicting Translations 0
L2C Translations Evicting Translations 217
L2C Data Evicting Translations 21470
L2C Dense regions hint from L2: 0
PSCL5 TOTAL     ACCESS:     169637  HIT:     169637  MISS:          0  HIT %:        100  MISS %:          0   MPKI: 0
PSCL5 LOAD TRANSLATION ACCESS:     169623  HIT:     169623  MISS:          0  HIT %:        100  MISS %:          0   MPKI: 0
PSCL5 TRANSLATION FROM L1D PREFETCHER ACCESS:         14  HIT:         14  MISS:          0  HIT %:        100  MISS %:          0   MPKI: 0
PSCL5 PREFETCH  REQUESTED:          0  ISSUED:          0  USEFUL:          0  USELESS:          0
PSCL5 USEFUL LOAD PREFETCHES:          0 PREFETCH ISSUED TO LOWER LEVEL:          0  ACCURACY: -nan
PSCL5 TIMELY PREFETCHES:          0 LATE PREFETCHES: 0 DROPPED PREFETCHES: 0
PSCL5 PREFETCHES SAME FILL-ORIGIN LEVEL: 0 DIFFERENT FILL-ORIGIN LEVEL: 0

PSCL4 TOTAL     ACCESS:     169637  HIT:     169637  MISS:          0  HIT %:        100  MISS %:          0   MPKI: 0
PSCL4 LOAD TRANSLATION ACCESS:     169623  HIT:     169623  MISS:          0  HIT %:        100  MISS %:          0   MPKI: 0
PSCL4 TRANSLATION FROM L1D PREFETCHER ACCESS:         14  HIT:         14  MISS:          0  HIT %:        100  MISS %:          0   MPKI: 0
PSCL4 PREFETCH  REQUESTED:          0  ISSUED:          0  USEFUL:          0  USELESS:          0
PSCL4 USEFUL LOAD PREFETCHES:          0 PREFETCH ISSUED TO LOWER LEVEL:          0  ACCURACY: -nan
PSCL4 TIMELY PREFETCHES:          0 LATE PREFETCHES: 0 DROPPED PREFETCHES: 0
PSCL4 PREFETCHES SAME FILL-ORIGIN LEVEL: 0 DIFFERENT FILL-ORIGIN LEVEL: 0

PSCL3 TOTAL     ACCESS:     169637  HIT:     169637  MISS:          0  HIT %:        100  MISS %:          0   MPKI: 0
PSCL3 LOAD TRANSLATION ACCESS:     169623  HIT:     169623  MISS:          0  HIT %:        100  MISS %:          0   MPKI: 0
PSCL3 TRANSLATION FROM L1D PREFETCHER ACCESS:         14  HIT:         14  MISS:          0  HIT %:        100  MISS %:          0   MPKI: 0
PSCL3 PREFETCH  REQUESTED:          0  ISSUED:          0  USEFUL:          0  USELESS:          0
PSCL3 USEFUL LOAD PREFETCHES:          0 PREFETCH ISSUED TO LOWER LEVEL:          0  ACCURACY: -nan
PSCL3 TIMELY PREFETCHES:          0 LATE PREFETCHES: 0 DROPPED PREFETCHES: 0
PSCL3 PREFETCHES SAME FILL-ORIGIN LEVEL: 0 DIFFERENT FILL-ORIGIN LEVEL: 0

PSCL2 TOTAL     ACCESS:     169637  HIT:     169326  MISS:        311  HIT %:    99.8167  MISS %:   0.183333   MPKI: 0.00622
PSCL2 LOAD TRANSLATION ACCESS:     169623  HIT:     169312  MISS:        311  HIT %:    99.8167  MISS %:   0.183348   MPKI: 0.00622
PSCL2 TRANSLATION FROM L1D PREFETCHER ACCESS:         14  HIT:         14  MISS:          0  HIT %:        100  MISS %:          0   MPKI: 0
PSCL2 PREFETCH  REQUESTED:          0  ISSUED:          0  USEFUL:          0  USELESS:          0
PSCL2 USEFUL LOAD PREFETCHES:          0 PREFETCH ISSUED TO LOWER LEVEL:          0  ACCURACY: -nan
PSCL2 TIMELY PREFETCHES:          0 LATE PREFETCHES: 0 DROPPED PREFETCHES: 0
PSCL2 PREFETCHES SAME FILL-ORIGIN LEVEL: 0 DIFFERENT FILL-ORIGIN LEVEL: 0

LLC TOTAL     ACCESS:    1923907  HIT:     593982  MISS:    1329925  HIT %:    30.8737  MISS %:    69.1263   MPKI: 26.5985
LLC LOAD      ACCESS:     271649  HIT:      26007  MISS:     245642  HIT %:    9.57375  MISS %:    90.4262   MPKI: 4.91284
LLC PREFETCH  ACCESS:    1144832  HIT:      79943  MISS:    1064889  HIT %:    6.98295  MISS %:    93.0171   MPKI: 21.2978
LLC WRITEBACK ACCESS:     485721  HIT:     485721  MISS:          0  HIT %:        100  MISS %:          0   MPKI: 0
LLC LOAD TRANSLATION ACCESS:      21703  HIT:       2309  MISS:      19394  HIT %:    10.6391  MISS %:    89.3609   MPKI: 0.38788
LLC TRANSLATION FROM L1D PREFETCHER ACCESS:          2  HIT:          2  MISS:          0  HIT %:        100  MISS %:          0   MPKI: 0
LLC PREFETCH  REQUESTED:          0  ISSUED:          0  USEFUL:       7196  USELESS:    1058219
LLC USEFUL LOAD PREFETCHES:       7196 PREFETCH ISSUED TO LOWER LEVEL:    1064893  ACCURACY: 0.675749
LLC TIMELY PREFETCHES:       7196 LATE PREFETCHES: 0 DROPPED PREFETCHES: 0
LLC PREFETCHES SAME FILL-ORIGIN LEVEL: 0 DIFFERENT FILL-ORIGIN LEVEL: 0
LLC AVERAGE MISS LATENCY: 2048.75 cycles
LLC RQ	ACCESS:     293355	FORWARD:          0	MERGED:          0	TO_CACHE:     293355
LLC WQ	ACCESS:     485720	FORWARD:          0	MERGED:          0	TO_CACHE:     485720
LLC PQ	ACCESS:    1144835	FORWARD:          0	MERGED:          0	TO_CACHE:    1144835

LLC Dense regions hint to LLC: 0

RAW hits: 54962
Loads Generated: 32010399
Loads sent to L1D: 31955439
Stores Generated: 3205665
Stores sent to L1D: 3205660
Major fault: 0 Minor fault: 154689
Allocated PAGES: 154689

stream: 
stream:times selected: 2126550
stream:pref_filled: 563380
stream:pref_useful: 215886
stream:pref_late: 18507
stream:misses: 166998
stream:misses_by_poll: 0

CS: 
CS:times selected: 374045
CS:pref_filled: 370664
CS:pref_useful: 252091
CS:pref_late: 125
CS:misses: 14753
CS:misses_by_poll: 1110

CPLX: 
CPLX:times selected: 1459571
CPLX:pref_filled: 440299
CPLX:pref_useful: 344573
CPLX:pref_late: 19950
CPLX:misses: 201537
CPLX:misses_by_poll: 1813

NL_L1: 
NL:times selected: 205
NL:pref_filled: 146
NL:pref_useful: 54
NL:pref_late: 2
NL:misses: 94
NL:misses_by_poll: 0

total selections: 3960371
total_filled: 1137887
total_useful: 670213
total_late: 38585
total_polluted: 2923
total_misses_after_warmup: 481708
conflicts: 397936
Degree Incremented Times: 86177
Degree Decremented Times: 58347

L1 IP Table Write Accesses: 19986968
L1 IP Table Read Accesses: 19589032
L1 RST Write Accesses: 1776229
L1 RST Read Accesses: 3552458
L1 CSPT Write Accesses: 1776229
L1 CSPT Read Accesses: 5065220
L1 RR Filter Tag Write Accesses: 2660029
L1 RR Filter Tag Read Accesses: 137790722
L1 IP Table Tag Write Accesses: 21285299
L1 IP Table Tag Read Accesses: 21285299
L1 RST Tag Write Accesses: 0
L1 RST Tag Read Accesses: 16811367
L1 RR Filter Write Accesses: 0
L1 RR Filter Read Accesses: 5217722
test: 324489
L2 IP Table Read Accesses: 2839939
L2 IP Table Write Accesses: 2568719
L2 IP Table Tag Read Accesses: 1420928
L2 IP Table Tag Write Accesses: 1420928

DRAM Statistics
 CHANNEL 0
 RQ ROW_BUFFER_HIT:     550474  ROW_BUFFER_MISS:     779450
 DBUS_CONGESTED:    1856594
 WQ ROW_BUFFER_HIT:      52006  ROW_BUFFER_MISS:     433597  FULL:          0

 AVG_CONGESTED_CYCLE: 150
 All warmup complete: 2
Channel 0 Bank busy for read cycles: 0
Channel 0 Bank busy for write cycles: 0
Channel 0
Rank 0
0banks busy for read cycles: 50376
0banks busy for write cycles: 0
1banks busy for read cycles: 10460039
1banks busy for write cycles: 68278
2banks busy for read cycles: 20720180
2banks busy for write cycles: 68384
3banks busy for read cycles: 29801332
3banks busy for write cycles: 68292
4banks busy for read cycles: 36432061
4banks busy for write cycles: 68426
5banks busy for read cycles: 39185977
5banks busy for write cycles: 71123
6banks busy for read cycles: 38965296
6banks busy for write cycles: 316332
7banks busy for read cycles: 29193003
7banks busy for write cycles: 6449698
8banks busy for read cycles: 10739113
8banks busy for write cycles: 72034498

CPU 0 Branch Prediction Accuracy: 93.3273% MPKI: 0.80206 Average ROB Occupancy at Mispredict: 340.409
Branch types
NOT_BRANCH: 49398999 98.798%
BRANCH_DIRECT_JUMP: 40061 0.080122%
BRANCH_INDIRECT: 0 0%
BRANCH_CONDITIONAL: 560943 1.12189%
BRANCH_DIRECT_CALL: 0 0%
BRANCH_INDIRECT_CALL: 0 0%
BRANCH_RETURN: 0 0%
BRANCH_OTHER: 0 0%

@sumon_overall_L1D    670213    106729    467694   1137887   5263755   5291905
@Sumon_Early_by_class_L1D    173473    209811    286849         1
@Sumon_Late_by_class_L1D     18493       124     19816         1

@Sumon_Early_by_cycle_L1D     11457     10228     17964     19933     21019    101690    138073    179347    151319        62       924     18197
@Sumon_Late_by_cycle_L1D     10254      5095      4427      3333      2718      8484      3862       259         3         0         0         0
@Sumon_Early_stream_L1D      7837      7181     12553     13500     14051     55540     51548     10292        88        50       833         0
@Sumon_Early_CS_L1D        22        30        60        78        81       923      3648     58723    127978        12        81     18175
@Sumon_Early_CPLX_L1D      3596      3015      5344      6348      6884     45211     82849    110322     23253         0         5        22
@Sumon_Late_stream_L1D      6079      2000      2032      1508      1220      3849      1661       142         2         0         0         0
@Sumon_Late_CS_L1D        21        15        18         9         4        40        14         2         1         0         0         0
@Sumon_Late_CPLX_L1D      4153      3080      2377      1815      1494      4595      2187       115         0         0         0         0
@sumon_overall_L2C       534         0   1144437   1144834      1687      1687
@Sumon_Early_by_class_L2C         4       491        10         0
@Sumon_Late_by_class_L2C         0         0         0         0

@Sumon_Early_by_cycle_L2C         0         0         0         1         0         7        14         7         0         2         4       499
@Sumon_Late_by_cycle_L2C         0         0         0         0         0         0         0         0         0         0         0         0
@Sumon_Early_stream_L2C         0         0         0         0         0         0         0         0         0         2         2         0
@Sumon_Early_CS_L2C         0         0         0         0         0         0         0         0         0         0         2       489
@Sumon_Early_CPLX_L2C         0         0         0         0         0         0         0         0         0         0         0        10
@Sumon_Late_stream_L2C         0         0         0         0         0         0         0         0         0         0         0         0
@Sumon_Late_CS_L2C         0         0         0         0         0         0         0         0         0         0         0         0
@Sumon_Late_CPLX_L2C         0         0         0         0         0         0         0         0         0         0         0         0
DRAM PAGES: 1048576
Allocated PAGES: 154689
