
*** ChampSim Multicore Out-of-Order Simulator ***

Warmup Instructions: 10000000
Simulation Instructions: 50000000
Number of CPUs: 1
LLC sets: 2048
LLC ways: 16
Off-chip DRAM Size: 4096 MB Channels: 1 Width: 64-bit Data Rate: 6400 MT/s
CPU 0 runs traces/SPEC2017/649.fotonik3d_s-7084B.champsimtrace.xz
.xz
CPU 0 Bimodal branch predictor
BTB has LRU replacement policy
ITLB has LRU replacement policy
DTLB has LRU replacement policy
STLB has LRU replacement policy
L1I has LRU replacement policy
IP Table Entries: 256
Initialize SRRIP state for L1D
IP_Table L2 entries: 256
Initialize SRRIP state for L2C
LLC has LRU replacement policy
Heartbeat CPU 0 instructions: 10000001 cycles: 2908415 heartbeat IPC: 3.4383 cumulative IPC: 3.4383 (Simulation time: 0 hr 12 min 9 sec) 

Warmup complete CPU 0 instructions: 10000001 cycles: 2908415 (Simulation time: 0 hr 12 min 9 sec) 

Heartbeat CPU 0 instructions: 20000002 cycles: 13089595 heartbeat IPC: 0.982204 cumulative IPC: 0.982204 (Simulation time: 0 hr 21 min 43 sec) 
Heartbeat CPU 0 instructions: 30000002 cycles: 23246855 heartbeat IPC: 0.984517 cumulative IPC: 0.98336 (Simulation time: 0 hr 31 min 29 sec) 
Heartbeat CPU 0 instructions: 40000003 cycles: 33414834 heartbeat IPC: 0.98348 cumulative IPC: 0.9834 (Simulation time: 0 hr 41 min 13 sec) 
Heartbeat CPU 0 instructions: 50000002 cycles: 43577636 heartbeat IPC: 0.98398 cumulative IPC: 0.983545 (Simulation time: 0 hr 50 min 48 sec) 
Heartbeat CPU 0 instructions: 60000002 cycles: 53738886 heartbeat IPC: 0.984131 cumulative IPC: 0.983662 (Simulation time: 0 hr 58 min 54 sec) 
Finished CPU 0 instructions: 50000001 cycles: 50830471 cumulative IPC: 0.983662 (Simulation time: 0 hr 58 min 54 sec) 

ChampSim completed all CPUs

Region of Interest Statistics

CPU 0 cumulative IPC: 0.983662 instructions: 50000001 cycles: 50830471
ITLB TOTAL     ACCESS:    6086254  HIT:    6086254  MISS:          0  HIT %:        100  MISS %:          0   MPKI: 0
ITLB LOAD TRANSLATION ACCESS:    6086254  HIT:    6086254  MISS:          0  HIT %:        100  MISS %:          0   MPKI: 0
ITLB PREFETCH  REQUESTED:          0  ISSUED:          0  USEFUL:          0  USELESS:          0
ITLB USEFUL LOAD PREFETCHES:          0 PREFETCH ISSUED TO LOWER LEVEL:          0  ACCURACY: -nan
ITLB TIMELY PREFETCHES:          0 LATE PREFETCHES: 0 DROPPED PREFETCHES: 0
ITLB PREFETCHES SAME FILL-ORIGIN LEVEL: 0 DIFFERENT FILL-ORIGIN LEVEL: 0
ITLB AVERAGE MISS LATENCY: -nan cycles
ITLB RQ	ACCESS:    7429841	FORWARD:          0	MERGED:    1343586	TO_CACHE:    6086255

DTLB TOTAL     ACCESS:   13369057  HIT:   13299530  MISS:      69527  HIT %:    99.4799  MISS %:   0.520059   MPKI: 1.39054
DTLB LOAD TRANSLATION ACCESS:   13369057  HIT:   13299530  MISS:      69527  HIT %:    99.4799  MISS %:   0.520059   MPKI: 1.39054
DTLB PREFETCH  REQUESTED:          0  ISSUED:          0  USEFUL:          0  USELESS:          0
DTLB USEFUL LOAD PREFETCHES:          0 PREFETCH ISSUED TO LOWER LEVEL:          0  ACCURACY: -nan
DTLB TIMELY PREFETCHES:          0 LATE PREFETCHES: 0 DROPPED PREFETCHES: 0
DTLB PREFETCHES SAME FILL-ORIGIN LEVEL: 0 DIFFERENT FILL-ORIGIN LEVEL: 0
DTLB AVERAGE MISS LATENCY: 35.9869 cycles
DTLB RQ	ACCESS:   14654480	FORWARD:          0	MERGED:    1284086	TO_CACHE:   13370394

STLB TOTAL     ACCESS:    1258771  HIT:    1245125  MISS:      13646  HIT %:    98.9159  MISS %:    1.08407   MPKI: 0.27292
STLB LOAD TRANSLATION ACCESS:      69527  HIT:      55881  MISS:      13646  HIT %:    80.3731  MISS %:    19.6269   MPKI: 0.27292
STLB TRANSLATION FROM L1D PREFETCHER ACCESS:    1189244  HIT:    1189244  MISS:          0  HIT %:        100  MISS %:          0   MPKI: 0
STLB PREFETCH  REQUESTED:          0  ISSUED:          0  USEFUL:          0  USELESS:          0
STLB USEFUL LOAD PREFETCHES:          0 PREFETCH ISSUED TO LOWER LEVEL:          0  ACCURACY: -nan
STLB TIMELY PREFETCHES:          0 LATE PREFETCHES: 0 DROPPED PREFETCHES: 0
STLB PREFETCHES SAME FILL-ORIGIN LEVEL: 0 DIFFERENT FILL-ORIGIN LEVEL: 0
STLB AVERAGE MISS LATENCY: 136.442 cycles
STLB RQ	ACCESS:    6481910	FORWARD:          0	MERGED:    5223140	TO_CACHE:    1258770

STLB Hit, L1D data hit: 0
STLB Hit, L2C data hit: 0
STLB Hit, LLC data hit: 0
STLB Hit, LLC data miss: 0
STLB STLB hints to L2: 0
L1D TOTAL     ACCESS:   21061811  HIT:   20134140  MISS:     927671  HIT %:    95.5955  MISS %:    4.40452   MPKI: 18.5534
L1D LOAD      ACCESS:   12192896  HIT:   12176974  MISS:      15922  HIT %:    99.8694  MISS %:   0.130584   MPKI: 0.31844
L1D RFO       ACCESS:    2458590  HIT:    2458574  MISS:         16  HIT %:    99.9993  MISS %: 0.00065078   MPKI: 0.00032
L1D PREFETCH  ACCESS:    6410325  HIT:    5498592  MISS:     911733  HIT %:    85.7771  MISS %:    14.2229   MPKI: 18.2347
L1D PREFETCH  REQUESTED:   13101110  ISSUED:   12824936  USEFUL:     805970  USELESS:     105783
L1D USEFUL LOAD PREFETCHES:     805970 PREFETCH ISSUED TO LOWER LEVEL:     914239  ACCURACY: 88.1575
L1D TIMELY PREFETCHES:     805970 LATE PREFETCHES: 141 DROPPED PREFETCHES: 0
L1D PREFETCHES SAME FILL-ORIGIN LEVEL: 914239 DIFFERENT FILL-ORIGIN LEVEL: 0
L1D AVERAGE MISS LATENCY: 4861.88 cycles
L1D RQ	ACCESS:   17597379	FORWARD:          0	MERGED:    5391054	TO_CACHE:   12195888
L1D WQ	ACCESS:    2458592	FORWARD:      10437	MERGED:          0	TO_CACHE:    2458592
L1D PQ	ACCESS:    6412553	FORWARD:          0	MERGED:        170	TO_CACHE:    6412383

L1D UNIQUE REGIONS ACCESSED: 0
L1D REGIONS CONFLICTS: 0
L1D Cross Page Prefetch Requests: 0
L1D Same Page Prefetch Requests: 7682241
L1D ROI Sum of L1D PQ occupancy: 92344535
L1D PREFETCHES PUSHED FROM L2C: 0
L1I TOTAL     ACCESS:    7429840  HIT:    7429840  MISS:          0  HIT %:        100  MISS %:          0   MPKI: 0
L1I LOAD      ACCESS:    7429840  HIT:    7429840  MISS:          0  HIT %:        100  MISS %:          0   MPKI: 0
L1I PREFETCH  REQUESTED:          0  ISSUED:          0  USEFUL:          0  USELESS:          0
L1I USEFUL LOAD PREFETCHES:          0 PREFETCH ISSUED TO LOWER LEVEL:          0  ACCURACY: -nan
L1I TIMELY PREFETCHES:          0 LATE PREFETCHES: 0 DROPPED PREFETCHES: 0
L1I PREFETCHES SAME FILL-ORIGIN LEVEL: 0 DIFFERENT FILL-ORIGIN LEVEL: 0
L1I AVERAGE MISS LATENCY: -nan cycles
L1I RQ	ACCESS:   10819180	FORWARD:          0	MERGED:    3389339	TO_CACHE:    7429841

BTB TOTAL     ACCESS:     336775  HIT:     336772  MISS:          3  HIT %:    99.9991  MISS %: 0.000890802   MPKI: 6e-05
BTB BRANCH_DIRECT_JUMP	ACCESS:          0  HIT:          0  MISS:          0
BTB BRANCH_INDIRECT	ACCESS:          0  HIT:          0  MISS:          0
BTB BRANCH_CONDITIONAL	ACCESS:     336775  HIT:     336772  MISS:          3
BTB BRANCH_DIRECT_CALL	ACCESS:          0  HIT:          0  MISS:          0
BTB BRANCH_INDIRECT_CALL	ACCESS:          0  HIT:          0  MISS:          0
BTB BRANCH_RETURN	ACCESS:          0  HIT:          0  MISS:          0
BTB BRANCH_OTHER ACCESS:          0  HIT:          0  MISS:          0

L2C TOTAL     ACCESS:    5094226  HIT:    4220463  MISS:     873763  HIT %:     82.848  MISS %:     17.152   MPKI: 17.4753
L2C LOAD      ACCESS:      15779  HIT:       1933  MISS:      13846  HIT %:    12.2505  MISS %:    87.7495   MPKI: 0.27692
L2C DATA LOAD MPKI: 0.27692
L2C INSTRUCTION LOAD MPKI: 0
L2C RFO       ACCESS:         15  HIT:         15  MISS:          0  HIT %:        100  MISS %:          0   MPKI: 0
L2C PREFETCH  ACCESS:    4804959  HIT:    3947059  MISS:     857900  HIT %:    82.1455  MISS %:    17.8545   MPKI: 17.158
L2C DATA PREFETCH MPKI: 17.158
L2C INSTRUCTION PREFETCH MPKI: 0
L2C WRITEBACK ACCESS:     259827  HIT:     259738  MISS:         89  HIT %:    99.9657  MISS %:  0.0342536   MPKI: 0.00178
L2C LOAD TRANSLATION ACCESS:      13646  HIT:      11718  MISS:       1928  HIT %:    85.8713  MISS %:    14.1287   MPKI: 0.03856
L2C PREFETCH  REQUESTED:    4742668  ISSUED:    4725203  USEFUL:       1387  USELESS:     856524
L2C USEFUL LOAD PREFETCHES:       1387 PREFETCH ISSUED TO LOWER LEVEL:     857909  ACCURACY: 0.161672
L2C TIMELY PREFETCHES:       1387 LATE PREFETCHES: 6 DROPPED PREFETCHES: 0
L2C PREFETCHES SAME FILL-ORIGIN LEVEL: 760115 DIFFERENT FILL-ORIGIN LEVEL: 0
L2C AVERAGE MISS LATENCY: 216.636 cycles
L2C RQ	ACCESS:      29443	FORWARD:          0	MERGED:          0	TO_CACHE:      29440
L2C WQ	ACCESS:     259827	FORWARD:          3	MERGED:          0	TO_CACHE:     259827
L2C PQ	ACCESS:    5637078	FORWARD:          0	MERGED:     807914	TO_CACHE:    4829164

L2C Instructions Evicting Data 0
L2C Translations Evicting Data 1917
L2C Data Evicting Data 869829
L2C Instructions Evicting Instructions 0
L2C Translations Evicting Instructions 0
L2C Data Evicting Instructions 0
L2C Instructions Evicting Translations 0
L2C Translations Evicting Translations 11
L2C Data Evicting Translations 1917
L2C Dense regions hint from L2: 0
PSCL5 TOTAL     ACCESS:      13646  HIT:      13646  MISS:          0  HIT %:        100  MISS %:          0   MPKI: 0
PSCL5 LOAD TRANSLATION ACCESS:      13646  HIT:      13646  MISS:          0  HIT %:        100  MISS %:          0   MPKI: 0
PSCL5 PREFETCH  REQUESTED:          0  ISSUED:          0  USEFUL:          0  USELESS:          0
PSCL5 USEFUL LOAD PREFETCHES:          0 PREFETCH ISSUED TO LOWER LEVEL:          0  ACCURACY: -nan
PSCL5 TIMELY PREFETCHES:          0 LATE PREFETCHES: 0 DROPPED PREFETCHES: 0
PSCL5 PREFETCHES SAME FILL-ORIGIN LEVEL: 0 DIFFERENT FILL-ORIGIN LEVEL: 0

PSCL4 TOTAL     ACCESS:      13646  HIT:      13646  MISS:          0  HIT %:        100  MISS %:          0   MPKI: 0
PSCL4 LOAD TRANSLATION ACCESS:      13646  HIT:      13646  MISS:          0  HIT %:        100  MISS %:          0   MPKI: 0
PSCL4 PREFETCH  REQUESTED:          0  ISSUED:          0  USEFUL:          0  USELESS:          0
PSCL4 USEFUL LOAD PREFETCHES:          0 PREFETCH ISSUED TO LOWER LEVEL:          0  ACCURACY: -nan
PSCL4 TIMELY PREFETCHES:          0 LATE PREFETCHES: 0 DROPPED PREFETCHES: 0
PSCL4 PREFETCHES SAME FILL-ORIGIN LEVEL: 0 DIFFERENT FILL-ORIGIN LEVEL: 0

PSCL3 TOTAL     ACCESS:      13646  HIT:      13646  MISS:          0  HIT %:        100  MISS %:          0   MPKI: 0
PSCL3 LOAD TRANSLATION ACCESS:      13646  HIT:      13646  MISS:          0  HIT %:        100  MISS %:          0   MPKI: 0
PSCL3 PREFETCH  REQUESTED:          0  ISSUED:          0  USEFUL:          0  USELESS:          0
PSCL3 USEFUL LOAD PREFETCHES:          0 PREFETCH ISSUED TO LOWER LEVEL:          0  ACCURACY: -nan
PSCL3 TIMELY PREFETCHES:          0 LATE PREFETCHES: 0 DROPPED PREFETCHES: 0
PSCL3 PREFETCHES SAME FILL-ORIGIN LEVEL: 0 DIFFERENT FILL-ORIGIN LEVEL: 0

PSCL2 TOTAL     ACCESS:      13646  HIT:      13625  MISS:         21  HIT %:    99.8461  MISS %:   0.153891   MPKI: 0.00042
PSCL2 LOAD TRANSLATION ACCESS:      13646  HIT:      13625  MISS:         21  HIT %:    99.8461  MISS %:   0.153891   MPKI: 0.00042
PSCL2 PREFETCH  REQUESTED:          0  ISSUED:          0  USEFUL:          0  USELESS:          0
PSCL2 USEFUL LOAD PREFETCHES:          0 PREFETCH ISSUED TO LOWER LEVEL:          0  ACCURACY: -nan
PSCL2 TIMELY PREFETCHES:          0 LATE PREFETCHES: 0 DROPPED PREFETCHES: 0
PSCL2 PREFETCHES SAME FILL-ORIGIN LEVEL: 0 DIFFERENT FILL-ORIGIN LEVEL: 0

LLC TOTAL     ACCESS:    1133277  HIT:     260567  MISS:     872710  HIT %:    22.9923  MISS %:    77.0077   MPKI: 17.4542
LLC LOAD      ACCESS:      13840  HIT:         29  MISS:      13811  HIT %:   0.209538  MISS %:    99.7905   MPKI: 0.27622
LLC PREFETCH  ACCESS:     857906  HIT:        781  MISS:     857125  HIT %:  0.0910356  MISS %:     99.909   MPKI: 17.1425
LLC WRITEBACK ACCESS:     259603  HIT:     259575  MISS:         28  HIT %:    99.9892  MISS %:  0.0107857   MPKI: 0.00056
LLC LOAD TRANSLATION ACCESS:       1928  HIT:        182  MISS:       1746  HIT %:    9.43983  MISS %:    90.5602   MPKI: 0.03492
LLC PREFETCH  REQUESTED:          0  ISSUED:          0  USEFUL:          1  USELESS:     857123
LLC USEFUL LOAD PREFETCHES:          1 PREFETCH ISSUED TO LOWER LEVEL:     857128  ACCURACY: 0.000116669
LLC TIMELY PREFETCHES:          1 LATE PREFETCHES: 0 DROPPED PREFETCHES: 0
LLC PREFETCHES SAME FILL-ORIGIN LEVEL: 0 DIFFERENT FILL-ORIGIN LEVEL: 0
LLC AVERAGE MISS LATENCY: 185.812 cycles
LLC RQ	ACCESS:      15768	FORWARD:          0	MERGED:          0	TO_CACHE:      15768
LLC WQ	ACCESS:     259603	FORWARD:          0	MERGED:          0	TO_CACHE:     259603
LLC PQ	ACCESS:     857909	FORWARD:          0	MERGED:          0	TO_CACHE:     857909

LLC Dense regions hint to LLC: 0

RAW hits: 89027
Loads Generated: 17686394
Loads sent to L1D: 17597379
Stores Generated: 2458593
Stores sent to L1D: 2458592
Major fault: 0 Minor fault: 13917
Allocated PAGES: 13917

stream: 
stream:times selected: 2069650
stream:pref_filled: 1083453
stream:pref_useful: 961672
stream:pref_late: 145
stream:misses: 78
stream:misses_by_poll: 0

CS: 
CS:times selected: 1801738
CS:pref_filled: 6178
CS:pref_useful: 3796
CS:pref_late: 0
CS:misses: 21013
CS:misses_by_poll: 17

CPLX: 
CPLX:times selected: 267800
CPLX:pref_filled: 2262
CPLX:pref_useful: 1347
CPLX:pref_late: 0
CPLX:misses: 236
CPLX:misses_by_poll: 0

NL_L1: 
NL:times selected: 19
NL:pref_filled: 5
NL:pref_useful: 5
NL:pref_late: 0
NL:misses: 0
NL:misses_by_poll: 0

total selections: 4139207
total_filled: 911733
total_useful: 805970
total_late: 152
total_polluted: 17
total_misses_after_warmup: 18917
conflicts: 10720
Degree Incremented Times: 57356
Degree Decremented Times: 30665

L1 IP Table Write Accesses: 11792724
L1 IP Table Read Accesses: 11782004
L1 RST Write Accesses: 1722864
L1 RST Read Accesses: 3445728
L1 CSPT Write Accesses: 1722864
L1 CSPT Read Accesses: 1950621
L1 RR Filter Tag Write Accesses: 6688727
L1 RR Filter Tag Read Accesses: 395176306
L1 IP Table Tag Write Accesses: 12195891
L1 IP Table Tag Read Accesses: 12195891
L1 RST Tag Write Accesses: 0
L1 RST Tag Read Accesses: 15917209
L1 RR Filter Write Accesses: 0
L1 RR Filter Read Accesses: 14371035
test: 46980
L2 IP Table Read Accesses: 1696351
L2 IP Table Write Accesses: 1680673
L2 IP Table Tag Read Accesses: 848223
L2 IP Table Tag Write Accesses: 848223

DRAM Statistics
 CHANNEL 0
 RQ ROW_BUFFER_HIT:     272047  ROW_BUFFER_MISS:     600635
 DBUS_CONGESTED:        554
 WQ ROW_BUFFER_HIT:     116312  ROW_BUFFER_MISS:     143973  FULL:          0

 AVG_CONGESTED_CYCLE: 4
 All warmup complete: 2
Channel 0 Bank busy for read cycles: 0
Channel 0 Bank busy for write cycles: 0
Channel 0
Rank 0
0banks busy for read cycles: 565246
0banks busy for write cycles: 2783
1banks busy for read cycles: 13635008
1banks busy for write cycles: 385764
2banks busy for read cycles: 12185619
2banks busy for write cycles: 339482
3banks busy for read cycles: 6811874
3banks busy for write cycles: 287608
4banks busy for read cycles: 2846550
4banks busy for write cycles: 270960
5banks busy for read cycles: 1228863
5banks busy for write cycles: 294740
6banks busy for read cycles: 881150
6banks busy for write cycles: 343777
7banks busy for read cycles: 2162054
7banks busy for write cycles: 730201
8banks busy for read cycles: 991358
8banks busy for write cycles: 6867435

CPU 0 Branch Prediction Accuracy: 99.186% MPKI: 0.0562 Average ROB Occupancy at Mispredict: 57.1117
Branch types
NOT_BRANCH: 49654460 99.3089%
BRANCH_DIRECT_JUMP: 0 0%
BRANCH_INDIRECT: 0 0%
BRANCH_CONDITIONAL: 345199 0.690398%
BRANCH_DIRECT_CALL: 0 0%
BRANCH_INDIRECT_CALL: 0 0%
BRANCH_RETURN: 0 0%
BRANCH_OTHER: 0 0%

@sumon_overall_L1D    805970       141    105783    911733  12824936  13101110
@Sumon_Early_by_class_L1D    801677      3117      1176         0
@Sumon_Late_by_class_L1D       134         0         0         0

@Sumon_Early_by_cycle_L1D       398      1558      9049      3253      9757    145426    523155    110127      2278       551       418         0
@Sumon_Late_by_cycle_L1D        85        41        13         2         0         0         0         0         0         0         0         0
@Sumon_Early_stream_L1D       394      1554      9026      3225      9729    144744    523063    109932        10         0         0         0
@Sumon_Early_CS_L1D         3         2        20        28        27       680        85         1      1302       551       418         0
@Sumon_Early_CPLX_L1D         1         2         3         0         1         2         7       194       966         0         0         0
@Sumon_Late_stream_L1D        78        41        13         2         0         0         0         0         0         0         0         0
@Sumon_Late_CS_L1D         0         0         0         0         0         0         0         0         0         0         0         0
@Sumon_Late_CPLX_L1D         0         0         0         0         0         0         0         0         0         0         0         0
@sumon_overall_L2C      1387         6    856524    857900   4725203   4742668
@Sumon_Early_by_class_L2C      1368         7         1         0
@Sumon_Late_by_class_L2C         6         0         0         0

@Sumon_Early_by_cycle_L2C        22        34       105        98       117       378       356       150        12       114         1         0
@Sumon_Late_by_cycle_L2C         5         1         0         0         0         0         0         0         0         0         0         0
@Sumon_Early_stream_L2C        15        31       105        98       117       378       356       150         9       109         0         0
@Sumon_Early_CS_L2C         0         0         0         0         0         0         0         0         3         4         0         0
@Sumon_Early_CPLX_L2C         0         0         0         0         0         0         0         0         0         1         0         0
@Sumon_Late_stream_L2C         5         1         0         0         0         0         0         0         0         0         0         0
@Sumon_Late_CS_L2C         0         0         0         0         0         0         0         0         0         0         0         0
@Sumon_Late_CPLX_L2C         0         0         0         0         0         0         0         0         0         0         0         0
DRAM PAGES: 1048576
Allocated PAGES: 13917
