Initialize SIGNATURE TABLE
ST_SET: 1
ST_WAY: 256
ST_TAG_BIT: 16
ST_TAG_MASK: ffff

Initialize PATTERN TABLE
PT_SET: 512
PT_WAY: 4
SIG_DELTA_BIT: 7
C_SIG_BIT: 4
C_DELTA_BIT: 4

Initialize PREFETCH FILTER
FILTER_SET: 1024

*** ChampSim Multicore Out-of-Order Simulator ***

Warmup Instructions: 10000000
Simulation Instructions: 50000000
Number of CPUs: 1
LLC sets: 2048
LLC ways: 16
Off-chip DRAM Size: 4096 MB Channels: 1 Width: 64-bit Data Rate: 200 MT/s
CPU 0 runs traces/clientserver/client_006.champsimtrace.xz
.xz
CPU 0 Bimodal branch predictor
BTB has LRU replacement policy
ITLB has LRU replacement policy
DTLB has LRU replacement policy
STLB has LRU replacement policy
L1I has LRU replacement policy
L1D has LRU replacement policy
ST_WAYS: 256
PT_SETS: 512
L2C has LRU replacement policy
LLC has LRU replacement policy
Heartbeat CPU 0 instructions: 10000001 cycles: 3366323 heartbeat IPC: 2.9706 cumulative IPC: 2.9706 (Simulation time: 0 hr 13 min 55 sec) 

Warmup complete CPU 0 instructions: 10000001 cycles: 3366323 (Simulation time: 0 hr 13 min 55 sec) 

Heartbeat CPU 0 instructions: 20000000 cycles: 22756395 heartbeat IPC: 0.515728 cumulative IPC: 0.515728 (Simulation time: 0 hr 35 min 22 sec) 
Heartbeat CPU 0 instructions: 30000003 cycles: 43243474 heartbeat IPC: 0.488113 cumulative IPC: 0.50154 (Simulation time: 0 hr 54 min 14 sec) 
Heartbeat CPU 0 instructions: 40000000 cycles: 62063791 heartbeat IPC: 0.531341 cumulative IPC: 0.511095 (Simulation time: 1 hr 13 min 45 sec) 
Heartbeat CPU 0 instructions: 50000003 cycles: 88723454 heartbeat IPC: 0.375099 cumulative IPC: 0.468619 (Simulation time: 1 hr 42 min 0 sec) 
Heartbeat CPU 0 instructions: 60000002 cycles: 109818644 heartbeat IPC: 0.474042 cumulative IPC: 0.469694 (Simulation time: 1 hr 53 min 39 sec) 
Finished CPU 0 instructions: 50000001 cycles: 106452321 cumulative IPC: 0.469694 (Simulation time: 1 hr 53 min 39 sec) 

ChampSim completed all CPUs

Region of Interest Statistics

CPU 0 cumulative IPC: 0.469694 instructions: 50000001 cycles: 106452321
ITLB TOTAL     ACCESS:    7933324  HIT:    7793583  MISS:     139741  HIT %:    98.2386  MISS %:    1.76144   MPKI: 2.79482
ITLB LOAD TRANSLATION ACCESS:    7933324  HIT:    7793583  MISS:     139741  HIT %:    98.2386  MISS %:    1.76144   MPKI: 2.79482
ITLB PREFETCH  REQUESTED:          0  ISSUED:          0  USEFUL:          0  USELESS:          0
ITLB USEFUL LOAD PREFETCHES:          0 PREFETCH ISSUED TO LOWER LEVEL:          0  ACCURACY: -nan
ITLB TIMELY PREFETCHES:          0 LATE PREFETCHES: 0 DROPPED PREFETCHES: 0
ITLB PREFETCHES SAME FILL-ORIGIN LEVEL: 0 DIFFERENT FILL-ORIGIN LEVEL: 0
ITLB AVERAGE MISS LATENCY: 14.4696 cycles
ITLB RQ	ACCESS:    9541240	FORWARD:          0	MERGED:    1591552	TO_CACHE:    7949688

DTLB TOTAL     ACCESS:   11103716  HIT:   10750649  MISS:     353067  HIT %:    96.8203  MISS %:    3.17972   MPKI: 7.06134
DTLB LOAD TRANSLATION ACCESS:   11103716  HIT:   10750649  MISS:     353067  HIT %:    96.8203  MISS %:    3.17972   MPKI: 7.06134
DTLB PREFETCH  REQUESTED:          0  ISSUED:          0  USEFUL:          0  USELESS:          0
DTLB USEFUL LOAD PREFETCHES:          0 PREFETCH ISSUED TO LOWER LEVEL:          0  ACCURACY: -nan
DTLB TIMELY PREFETCHES:          0 LATE PREFETCHES: 0 DROPPED PREFETCHES: 0
DTLB PREFETCHES SAME FILL-ORIGIN LEVEL: 0 DIFFERENT FILL-ORIGIN LEVEL: 0
DTLB AVERAGE MISS LATENCY: 26.9876 cycles
DTLB RQ	ACCESS:   13166903	FORWARD:          0	MERGED:    2047668	TO_CACHE:   11119235

STLB TOTAL     ACCESS:     492807  HIT:     468179  MISS:      24628  HIT %:    95.0025  MISS %:    4.99749   MPKI: 0.49256
STLB LOAD TRANSLATION ACCESS:     492807  HIT:     468179  MISS:      24628  HIT %:    95.0025  MISS %:    4.99749   MPKI: 0.49256
STLB PREFETCH  REQUESTED:          0  ISSUED:          0  USEFUL:          0  USELESS:          0
STLB USEFUL LOAD PREFETCHES:          0 PREFETCH ISSUED TO LOWER LEVEL:          0  ACCURACY: -nan
STLB TIMELY PREFETCHES:          0 LATE PREFETCHES: 0 DROPPED PREFETCHES: 0
STLB PREFETCHES SAME FILL-ORIGIN LEVEL: 0 DIFFERENT FILL-ORIGIN LEVEL: 0
STLB AVERAGE MISS LATENCY: 288.179 cycles
STLB RQ	ACCESS:     492807	FORWARD:          0	MERGED:          0	TO_CACHE:     492807

STLB Hit, L1D data hit: 0
STLB Hit, L2C data hit: 0
STLB Hit, LLC data hit: 0
STLB Hit, LLC data miss: 0
STLB STLB hints to L2: 0
L1D TOTAL     ACCESS:   12964392  HIT:   12226622  MISS:     737770  HIT %:    94.3093  MISS %:    5.69074   MPKI: 14.7554
L1D LOAD      ACCESS:    8688459  HIT:    8024913  MISS:     663546  HIT %:    92.3629  MISS %:     7.6371   MPKI: 13.2709
L1D RFO       ACCESS:    4275933  HIT:    4201709  MISS:      74224  HIT %:    98.2641  MISS %:    1.73586   MPKI: 1.48448
L1D PREFETCH  REQUESTED:          0  ISSUED:          0  USEFUL:          0  USELESS:          0
L1D USEFUL LOAD PREFETCHES:          0 PREFETCH ISSUED TO LOWER LEVEL:          0  ACCURACY: -nan
L1D TIMELY PREFETCHES:          0 LATE PREFETCHES: 0 DROPPED PREFETCHES: 0
L1D PREFETCHES SAME FILL-ORIGIN LEVEL: 0 DIFFERENT FILL-ORIGIN LEVEL: 0
L1D AVERAGE MISS LATENCY: 215.454 cycles
L1D RQ	ACCESS:   12155874	FORWARD:          0	MERGED:    3339014	TO_CACHE:    8737807
L1D WQ	ACCESS:    4484002	FORWARD:      79053	MERGED:      54906	TO_CACHE:    4429096

L1D UNIQUE REGIONS ACCESSED: 0
L1D REGIONS CONFLICTS: 0
L1D Cross Page Prefetch Requests: 0
L1D Same Page Prefetch Requests: 0
L1D ROI Sum of L1D PQ occupancy: 0
L1D PREFETCHES PUSHED FROM L2C: 0
L1I TOTAL     ACCESS:    9278779  HIT:    8546477  MISS:     732302  HIT %:    92.1078  MISS %:    7.89222   MPKI: 14.646
L1I LOAD      ACCESS:    9278779  HIT:    8546477  MISS:     732302  HIT %:    92.1078  MISS %:    7.89222   MPKI: 14.646
L1I PREFETCH  REQUESTED:          0  ISSUED:          0  USEFUL:          0  USELESS:          0
L1I USEFUL LOAD PREFETCHES:          0 PREFETCH ISSUED TO LOWER LEVEL:          0  ACCURACY: -nan
L1I TIMELY PREFETCHES:          0 LATE PREFETCHES: 0 DROPPED PREFETCHES: 0
L1I PREFETCHES SAME FILL-ORIGIN LEVEL: 0 DIFFERENT FILL-ORIGIN LEVEL: 0
L1I AVERAGE MISS LATENCY: 28.2179 cycles
L1I RQ	ACCESS:   13580888	FORWARD:          0	MERGED:    4039648	TO_CACHE:    9541240

BTB TOTAL     ACCESS:    5171861  HIT:    4886345  MISS:     285516  HIT %:    94.4794  MISS %:    5.52057   MPKI: 5.71032
BTB BRANCH_DIRECT_JUMP	ACCESS:     468887  HIT:     465580  MISS:       3307
BTB BRANCH_INDIRECT	ACCESS:      51898  HIT:      32201  MISS:      19697
BTB BRANCH_CONDITIONAL	ACCESS:    3126383  HIT:    3119589  MISS:       6794
BTB BRANCH_DIRECT_CALL	ACCESS:     511782  HIT:     508568  MISS:       3214
BTB BRANCH_INDIRECT_CALL	ACCESS:     249632  HIT:     190154  MISS:      59478
BTB BRANCH_RETURN	ACCESS:     763279  HIT:     570253  MISS:     193026
BTB BRANCH_OTHER ACCESS:          0  HIT:          0  MISS:          0

L2C TOTAL     ACCESS:    2081892  HIT:    1626354  MISS:     455538  HIT %:     78.119  MISS %:     21.881   MPKI: 9.11076
L2C LOAD      ACCESS:    1395842  HIT:    1026149  MISS:     369693  HIT %:    73.5147  MISS %:    26.4853   MPKI: 7.39386
L2C DATA LOAD MPKI: 6.46946
L2C INSTRUCTION LOAD MPKI: 0.9244
L2C RFO       ACCESS:      74223  HIT:      18252  MISS:      55971  HIT %:    24.5908  MISS %:    75.4092   MPKI: 1.11942
L2C PREFETCH  ACCESS:     360354  HIT:     344316  MISS:      16038  HIT %:    95.5494  MISS %:    4.45062   MPKI: 0.32076
L2C DATA PREFETCH MPKI: 0.32076
L2C INSTRUCTION PREFETCH MPKI: 0
L2C WRITEBACK ACCESS:     224127  HIT:     223326  MISS:        801  HIT %:    99.6426  MISS %:   0.357387   MPKI: 0.01602
L2C LOAD TRANSLATION ACCESS:      27346  HIT:      14311  MISS:      13035  HIT %:    52.3331  MISS %:    47.6669   MPKI: 0.2607
L2C PREFETCH  REQUESTED:    2017431  ISSUED:    2003906  USEFUL:      15151  USELESS:        956
L2C USEFUL LOAD PREFETCHES:      15151 PREFETCH ISSUED TO LOWER LEVEL:    1012580  ACCURACY: 1.49628
L2C TIMELY PREFETCHES:      15151 LATE PREFETCHES: 46043 DROPPED PREFETCHES: 0
L2C PREFETCHES SAME FILL-ORIGIN LEVEL: 62081 DIFFERENT FILL-ORIGIN LEVEL: 950499
L2C AVERAGE MISS LATENCY: 360.631 cycles
L2C RQ	ACCESS:    1497418	FORWARD:          0	MERGED:          0	TO_CACHE:    1497411
L2C WQ	ACCESS:     224127	FORWARD:          7	MERGED:          0	TO_CACHE:     224127
L2C PQ	ACCESS:    2003906	FORWARD:          0	MERGED:     558058	TO_CACHE:    1445848

L2C Instructions Evicting Data 42523
L2C Translations Evicting Data 11827
L2C Data Evicting Data 341169
L2C Instructions Evicting Instructions 2757
L2C Translations Evicting Instructions 867
L2C Data Evicting Instructions 42657
L2C Instructions Evicting Translations 940
L2C Translations Evicting Translations 341
L2C Data Evicting Translations 11656
L2C Dense regions hint from L2: 0
PSCL5 TOTAL     ACCESS:      24628  HIT:      24628  MISS:          0  HIT %:        100  MISS %:          0   MPKI: 0
PSCL5 LOAD TRANSLATION ACCESS:      24628  HIT:      24628  MISS:          0  HIT %:        100  MISS %:          0   MPKI: 0
PSCL5 PREFETCH  REQUESTED:          0  ISSUED:          0  USEFUL:          0  USELESS:          0
PSCL5 USEFUL LOAD PREFETCHES:          0 PREFETCH ISSUED TO LOWER LEVEL:          0  ACCURACY: -nan
PSCL5 TIMELY PREFETCHES:          0 LATE PREFETCHES: 0 DROPPED PREFETCHES: 0
PSCL5 PREFETCHES SAME FILL-ORIGIN LEVEL: 0 DIFFERENT FILL-ORIGIN LEVEL: 0

PSCL4 TOTAL     ACCESS:      22440  HIT:      22415  MISS:         25  HIT %:    99.8886  MISS %:   0.111408   MPKI: 0.0005
PSCL4 LOAD TRANSLATION ACCESS:      22440  HIT:      22415  MISS:         25  HIT %:    99.8886  MISS %:   0.111408   MPKI: 0.0005
PSCL4 PREFETCH  REQUESTED:          0  ISSUED:          0  USEFUL:          0  USELESS:          0
PSCL4 USEFUL LOAD PREFETCHES:          0 PREFETCH ISSUED TO LOWER LEVEL:          0  ACCURACY: -nan
PSCL4 TIMELY PREFETCHES:          0 LATE PREFETCHES: 0 DROPPED PREFETCHES: 0
PSCL4 PREFETCHES SAME FILL-ORIGIN LEVEL: 0 DIFFERENT FILL-ORIGIN LEVEL: 0

PSCL3 TOTAL     ACCESS:      24530  HIT:      24453  MISS:         77  HIT %:    99.6861  MISS %:   0.313901   MPKI: 0.00154
PSCL3 LOAD TRANSLATION ACCESS:      24530  HIT:      24453  MISS:         77  HIT %:    99.6861  MISS %:   0.313901   MPKI: 0.00154
PSCL3 PREFETCH  REQUESTED:          0  ISSUED:          0  USEFUL:          0  USELESS:          0
PSCL3 USEFUL LOAD PREFETCHES:          0 PREFETCH ISSUED TO LOWER LEVEL:          0  ACCURACY: -nan
PSCL3 TIMELY PREFETCHES:          0 LATE PREFETCHES: 0 DROPPED PREFETCHES: 0
PSCL3 PREFETCHES SAME FILL-ORIGIN LEVEL: 0 DIFFERENT FILL-ORIGIN LEVEL: 0

PSCL2 TOTAL     ACCESS:      24628  HIT:      21882  MISS:       2746  HIT %:    88.8501  MISS %:    11.1499   MPKI: 0.05492
PSCL2 LOAD TRANSLATION ACCESS:      24628  HIT:      21882  MISS:       2746  HIT %:    88.8501  MISS %:    11.1499   MPKI: 0.05492
PSCL2 PREFETCH  REQUESTED:          0  ISSUED:          0  USEFUL:          0  USELESS:          0
PSCL2 USEFUL LOAD PREFETCHES:          0 PREFETCH ISSUED TO LOWER LEVEL:          0  ACCURACY: -nan
PSCL2 TIMELY PREFETCHES:          0 LATE PREFETCHES: 0 DROPPED PREFETCHES: 0
PSCL2 PREFETCHES SAME FILL-ORIGIN LEVEL: 0 DIFFERENT FILL-ORIGIN LEVEL: 0

LLC TOTAL     ACCESS:    1284296  HIT:    1000776  MISS:     283520  HIT %:    77.9241  MISS %:    22.0759   MPKI: 5.6704
LLC LOAD      ACCESS:     323651  HIT:     220058  MISS:     103593  HIT %:    67.9924  MISS %:    32.0076   MPKI: 2.07186
LLC RFO       ACCESS:      55970  HIT:      12073  MISS:      43897  HIT %:    21.5705  MISS %:    78.4295   MPKI: 0.87794
LLC PREFETCH  ACCESS:     749526  HIT:     621934  MISS:     127592  HIT %:     82.977  MISS %:     17.023   MPKI: 2.55184
LLC WRITEBACK ACCESS:     142114  HIT:     141396  MISS:        718  HIT %:    99.4948  MISS %:   0.505228   MPKI: 0.01436
LLC LOAD TRANSLATION ACCESS:      13035  HIT:       5315  MISS:       7720  HIT %:    40.7748  MISS %:    59.2252   MPKI: 0.1544
LLC PREFETCH  REQUESTED:          0  ISSUED:          0  USEFUL:      70610  USELESS:      57417
LLC USEFUL LOAD PREFETCHES:      70610 PREFETCH ISSUED TO LOWER LEVEL:     145917  ACCURACY: 48.3905
LLC TIMELY PREFETCHES:      70610 LATE PREFETCHES: 18325 DROPPED PREFETCHES: 0
LLC PREFETCHES SAME FILL-ORIGIN LEVEL: 144319 DIFFERENT FILL-ORIGIN LEVEL: 0
LLC AVERAGE MISS LATENCY: 765.134 cycles
LLC RQ	ACCESS:     392656	FORWARD:          0	MERGED:          0	TO_CACHE:     392656
LLC WQ	ACCESS:     142114	FORWARD:          0	MERGED:          0	TO_CACHE:     142114
LLC PQ	ACCESS:    1012580	FORWARD:          0	MERGED:     177100	TO_CACHE:     835480

LLC Dense regions hint to LLC: 0

RAW hits: 796088
Loads Generated: 12951965
Loads sent to L1D: 12155874
Stores Generated: 4483996
Stores sent to L1D: 4484002
Major fault: 0 Minor fault: 9084
Allocated PAGES: 9084
 All Calls: 835490
 Critical Calls: 835490
------------------
Depth Distribution
------------------
depth 0: 0
depth 1: 713550
depth 2: 353256
depth 3: 255451
depth 4: 203469
depth 5: 167510
depth 6: 142896
depth 7: 120000
depth 8: 99660
depth 9: 74531
depth 10: 58668
depth 11: 43993
depth 12: 29942
depth 13: 16210
depth 14: 3701
depth 15: 3628
depth 16: 0
depth 17: 0
depth 18: 0
depth 19: 0
depth 20: 0
depth 21: 0
depth 22: 0
depth 23: 0
depth 24: 0
depth 25: 0
depth 26: 0
depth 27: 0
depth 28: 0
depth 29: 0
Total: 2286465
-----------------------------
-----------------------------
	Captured at Filter
-----------------------------
depth 0: 0
depth 1: 48705
depth 2: 36237
depth 3: 26504
depth 4: 11294
depth 5: 3329
depth 6: 1322
depth 7: 851
depth 8: 696
depth 9: 490
depth 10: 392
depth 11: 291
depth 12: 214
depth 13: 129
depth 14: 30
depth 15: 26
depth 16: 0
depth 17: 0
depth 18: 0
depth 19: 0
depth 20: 0
depth 21: 0
depth 22: 0
depth 23: 0
depth 24: 0
depth 25: 0
depth 26: 0
depth 27: 0
depth 28: 0
depth 29: 0
-----------------------------
-----------------------------
		Lost at Page
-----------------------------
depth 0: 0
depth 1: 61212
depth 2: 16467
depth 3: 16708
depth 4: 16722
depth 5: 15507
depth 6: 15329
depth 7: 15158
depth 8: 14657
depth 9: 12586
depth 10: 11154
depth 11: 9331
depth 12: 7233
depth 13: 4604
depth 14: 1122
depth 15: 1180
depth 16: 0
depth 17: 0
depth 18: 0
depth 19: 0
depth 20: 0
depth 21: 0
depth 22: 0
depth 23: 0
depth 24: 0
depth 25: 0
depth 26: 0
depth 27: 0
depth 28: 0
depth 29: 0
-----------------------------
-----------------------------
	Lost due to PQ Size
-----------------------------
24225
-----------------------------
ST read accesses: 612490
ST write accesses: 51050
PT read accesses: 15247485
PT write accesses: 849523
FILTER read accesses: 3202162
FILTER write accesses: 673079
GHR read accesses: 1397481
GHR write accesses: 176578
GHR counter read accesses: 12775132
GHR counter write accesses: 879547
ST tag read accesses: 281593800
ST tag write accesses: 29767847

DRAM Statistics
 CHANNEL 0
 RQ ROW_BUFFER_HIT:      71436  ROW_BUFFER_MISS:     211356
 DBUS_CONGESTED:     374836
 WQ ROW_BUFFER_HIT:      39911  ROW_BUFFER_MISS:      83944  FULL:          0

 AVG_CONGESTED_CYCLE: 135
 All warmup complete: 2
Channel 0 Bank busy for read cycles: 0
Channel 0 Bank busy for write cycles: 0
Channel 0
Rank 0
0banks busy for read cycles: 38947556
0banks busy for write cycles: 18353
1banks busy for read cycles: 14661690
1banks busy for write cycles: 3664596
2banks busy for read cycles: 10086098
2banks busy for write cycles: 2145637
3banks busy for read cycles: 6439074
3banks busy for write cycles: 1721411
4banks busy for read cycles: 3780154
4banks busy for write cycles: 1507205
5banks busy for read cycles: 1921094
5banks busy for write cycles: 1433371
6banks busy for read cycles: 981707
6banks busy for write cycles: 1493518
7banks busy for read cycles: 711461
7banks busy for write cycles: 2479339
8banks busy for read cycles: 5207310
8banks busy for write cycles: 9252748

CPU 0 Branch Prediction Accuracy: 95.4558% MPKI: 7.81132 Average ROB Occupancy at Mispredict: 47.2833
Branch types
NOT_BRANCH: 41404794 82.8096%
BRANCH_DIRECT_JUMP: 468887 0.937774%
BRANCH_INDIRECT: 51898 0.103796%
BRANCH_CONDITIONAL: 6549378 13.0988%
BRANCH_DIRECT_CALL: 511782 1.02356%
BRANCH_INDIRECT_CALL: 249632 0.499264%
BRANCH_RETURN: 763279 1.52656%
BRANCH_OTHER: 0 0%

@sumon_overall_L1D         0         0         0         0         0         0
@Sumon_Early_by_class_L1D         0         0         0         0
@Sumon_Late_by_class_L1D         0         0         0         0

@Sumon_Early_by_cycle_L1D         0         0         0         0         0         0         0         0         0         0         0         0
@Sumon_Late_by_cycle_L1D         0         0         0         0         0         0         0         0         0         0         0         0
@Sumon_Early_stream_L1D         0         0         0         0         0         0         0         0         0         0         0         0
@Sumon_Early_CS_L1D         0         0         0         0         0         0         0         0         0         0         0         0
@Sumon_Early_CPLX_L1D         0         0         0         0         0         0         0         0         0         0         0         0
@Sumon_Late_stream_L1D         0         0         0         0         0         0         0         0         0         0         0         0
@Sumon_Late_CS_L1D         0         0         0         0         0         0         0         0         0         0         0         0
@Sumon_Late_CPLX_L1D         0         0         0         0         0         0         0         0         0         0         0         0
@sumon_overall_L2C     15151     46043       956     16038   2003906   2017431
@Sumon_Early_by_class_L2C         0         0         0         0
@Sumon_Late_by_class_L2C         0         0         0         0

@Sumon_Early_by_cycle_L2C      4834      3265       498       670      1064      3449       675       456        61        45        28       106
@Sumon_Late_by_cycle_L2C     43498       377       316        86        43       362      1096       265         0         0         0         0
@Sumon_Early_stream_L2C         0         0         0         0         0         0         0         0         0         0         0         0
@Sumon_Early_CS_L2C         0         0         0         0         0         0         0         0         0         0         0         0
@Sumon_Early_CPLX_L2C         0         0         0         0         0         0         0         0         0         0         0         0
@Sumon_Late_stream_L2C         0         0         0         0         0         0         0         0         0         0         0         0
@Sumon_Late_CS_L2C         0         0         0         0         0         0         0         0         0         0         0         0
@Sumon_Late_CPLX_L2C         0         0         0         0         0         0         0         0         0         0         0         0
DRAM PAGES: 1048576
Allocated PAGES: 9084
