Initialize SIGNATURE TABLE
ST_SET: 1
ST_WAY: 256
ST_TAG_BIT: 16
ST_TAG_MASK: ffff

Initialize PATTERN TABLE
PT_SET: 512
PT_WAY: 4
SIG_DELTA_BIT: 7
C_SIG_BIT: 4
C_DELTA_BIT: 4

Initialize PREFETCH FILTER
FILTER_SET: 1024

*** ChampSim Multicore Out-of-Order Simulator ***

Warmup Instructions: 10000000
Simulation Instructions: 50000000
Number of CPUs: 1
LLC sets: 2048
LLC ways: 16
Off-chip DRAM Size: 4096 MB Channels: 1 Width: 64-bit Data Rate: 200 MT/s
CPU 0 runs traces/clientserver/server_030.champsimtrace.xz
.xz
CPU 0 Bimodal branch predictor
BTB has LRU replacement policy
ITLB has LRU replacement policy
DTLB has LRU replacement policy
STLB has LRU replacement policy
L1I has LRU replacement policy
L1D has LRU replacement policy
ST_WAYS: 256
PT_SETS: 512
L2C has LRU replacement policy
LLC has LRU replacement policy
Heartbeat CPU 0 instructions: 10000003 cycles: 2894500 heartbeat IPC: 3.45483 cumulative IPC: 3.45483 (Simulation time: 0 hr 12 min 34 sec) 

Warmup complete CPU 0 instructions: 10000003 cycles: 2894500 (Simulation time: 0 hr 12 min 34 sec) 

Heartbeat CPU 0 instructions: 20000002 cycles: 27837403 heartbeat IPC: 0.400916 cumulative IPC: 0.400916 (Simulation time: 0 hr 31 min 22 sec) 
Heartbeat CPU 0 instructions: 30000003 cycles: 52777393 heartbeat IPC: 0.400963 cumulative IPC: 0.400939 (Simulation time: 0 hr 50 min 36 sec) 
Heartbeat CPU 0 instructions: 40000000 cycles: 77568109 heartbeat IPC: 0.403377 cumulative IPC: 0.401748 (Simulation time: 1 hr 10 min 3 sec) 
Heartbeat CPU 0 instructions: 50000001 cycles: 102612984 heartbeat IPC: 0.399283 cumulative IPC: 0.401129 (Simulation time: 1 hr 30 min 4 sec) 
Heartbeat CPU 0 instructions: 60000000 cycles: 127411899 heartbeat IPC: 0.403243 cumulative IPC: 0.40155 (Simulation time: 1 hr 47 min 30 sec) 
Finished CPU 0 instructions: 50000001 cycles: 124517405 cumulative IPC: 0.40155 (Simulation time: 1 hr 47 min 30 sec) 

ChampSim completed all CPUs

Region of Interest Statistics

CPU 0 cumulative IPC: 0.40155 instructions: 50000001 cycles: 124517405
ITLB TOTAL     ACCESS:    8703495  HIT:    8160980  MISS:     542515  HIT %:    93.7667  MISS %:     6.2333   MPKI: 10.8503
ITLB LOAD TRANSLATION ACCESS:    8703495  HIT:    8160980  MISS:     542515  HIT %:    93.7667  MISS %:     6.2333   MPKI: 10.8503
ITLB PREFETCH  REQUESTED:          0  ISSUED:          0  USEFUL:          0  USELESS:          0
ITLB USEFUL LOAD PREFETCHES:          0 PREFETCH ISSUED TO LOWER LEVEL:          0  ACCURACY: -nan
ITLB TIMELY PREFETCHES:          0 LATE PREFETCHES: 0 DROPPED PREFETCHES: 0
ITLB PREFETCHES SAME FILL-ORIGIN LEVEL: 0 DIFFERENT FILL-ORIGIN LEVEL: 0
ITLB AVERAGE MISS LATENCY: 9.16633 cycles
ITLB RQ	ACCESS:   10384526	FORWARD:          0	MERGED:    1543225	TO_CACHE:    8841301

DTLB TOTAL     ACCESS:   12359003  HIT:   11831121  MISS:     527882  HIT %:    95.7288  MISS %:    4.27123   MPKI: 10.5576
DTLB LOAD TRANSLATION ACCESS:   12359003  HIT:   11831121  MISS:     527882  HIT %:    95.7288  MISS %:    4.27123   MPKI: 10.5576
DTLB PREFETCH  REQUESTED:          0  ISSUED:          0  USEFUL:          0  USELESS:          0
DTLB USEFUL LOAD PREFETCHES:          0 PREFETCH ISSUED TO LOWER LEVEL:          0  ACCURACY: -nan
DTLB TIMELY PREFETCHES:          0 LATE PREFETCHES: 0 DROPPED PREFETCHES: 0
DTLB PREFETCHES SAME FILL-ORIGIN LEVEL: 0 DIFFERENT FILL-ORIGIN LEVEL: 0
DTLB AVERAGE MISS LATENCY: 9.38417 cycles
DTLB RQ	ACCESS:   15494974	FORWARD:          0	MERGED:    3116946	TO_CACHE:   12378028

STLB TOTAL     ACCESS:    1070397  HIT:    1063007  MISS:       7390  HIT %:    99.3096  MISS %:   0.690398   MPKI: 0.1478
STLB LOAD TRANSLATION ACCESS:    1070397  HIT:    1063007  MISS:       7390  HIT %:    99.3096  MISS %:   0.690398   MPKI: 0.1478
STLB PREFETCH  REQUESTED:          0  ISSUED:          0  USEFUL:          0  USELESS:          0
STLB USEFUL LOAD PREFETCHES:          0 PREFETCH ISSUED TO LOWER LEVEL:          0  ACCURACY: -nan
STLB TIMELY PREFETCHES:          0 LATE PREFETCHES: 0 DROPPED PREFETCHES: 0
STLB PREFETCHES SAME FILL-ORIGIN LEVEL: 0 DIFFERENT FILL-ORIGIN LEVEL: 0
STLB AVERAGE MISS LATENCY: 37.716 cycles
STLB RQ	ACCESS:    1070397	FORWARD:          0	MERGED:          0	TO_CACHE:    1070397

STLB Hit, L1D data hit: 0
STLB Hit, L2C data hit: 0
STLB Hit, LLC data hit: 0
STLB Hit, LLC data miss: 0
STLB STLB hints to L2: 0
L1D TOTAL     ACCESS:   15013877  HIT:   13536953  MISS:    1476924  HIT %:    90.1629  MISS %:    9.83706   MPKI: 29.5385
L1D LOAD      ACCESS:    8669383  HIT:    7504560  MISS:    1164823  HIT %:    86.5639  MISS %:    13.4361   MPKI: 23.2965
L1D RFO       ACCESS:    6344494  HIT:    6032393  MISS:     312101  HIT %:    95.0808  MISS %:    4.91924   MPKI: 6.24202
L1D PREFETCH  REQUESTED:          0  ISSUED:          0  USEFUL:          0  USELESS:          0
L1D USEFUL LOAD PREFETCHES:          0 PREFETCH ISSUED TO LOWER LEVEL:          0  ACCURACY: -nan
L1D TIMELY PREFETCHES:          0 LATE PREFETCHES: 0 DROPPED PREFETCHES: 0
L1D PREFETCHES SAME FILL-ORIGIN LEVEL: 0 DIFFERENT FILL-ORIGIN LEVEL: 0
L1D AVERAGE MISS LATENCY: 23.1538 cycles
L1D RQ	ACCESS:   11825913	FORWARD:          0	MERGED:    2991312	TO_CACHE:    8709032
L1D WQ	ACCESS:    6828105	FORWARD:     125569	MERGED:      42163	TO_CACHE:    6785942

L1D UNIQUE REGIONS ACCESSED: 0
L1D REGIONS CONFLICTS: 0
L1D Cross Page Prefetch Requests: 0
L1D Same Page Prefetch Requests: 0
L1D ROI Sum of L1D PQ occupancy: 0
L1D PREFETCHES PUSHED FROM L2C: 0
L1I TOTAL     ACCESS:    9865042  HIT:    6909017  MISS:    2956025  HIT %:    70.0354  MISS %:    29.9646   MPKI: 59.1205
L1I LOAD      ACCESS:    9865042  HIT:    6909017  MISS:    2956025  HIT %:    70.0354  MISS %:    29.9646   MPKI: 59.1205
L1I PREFETCH  REQUESTED:          0  ISSUED:          0  USEFUL:          0  USELESS:          0
L1I USEFUL LOAD PREFETCHES:          0 PREFETCH ISSUED TO LOWER LEVEL:          0  ACCURACY: -nan
L1I TIMELY PREFETCHES:          0 LATE PREFETCHES: 0 DROPPED PREFETCHES: 0
L1I PREFETCHES SAME FILL-ORIGIN LEVEL: 0 DIFFERENT FILL-ORIGIN LEVEL: 0
L1I AVERAGE MISS LATENCY: 17.0321 cycles
L1I RQ	ACCESS:   13939542	FORWARD:          0	MERGED:    3555016	TO_CACHE:   10384526

BTB TOTAL     ACCESS:    6029458  HIT:    4118850  MISS:    1910608  HIT %:    68.3121  MISS %:    31.6879   MPKI: 38.2122
BTB BRANCH_DIRECT_JUMP	ACCESS:     489855  HIT:     330874  MISS:     158981
BTB BRANCH_INDIRECT	ACCESS:     174632  HIT:     139695  MISS:      34937
BTB BRANCH_CONDITIONAL	ACCESS:    2970795  HIT:    2448632  MISS:     522163
BTB BRANCH_DIRECT_CALL	ACCESS:    1006426  HIT:     627337  MISS:     379089
BTB BRANCH_INDIRECT_CALL	ACCESS:     190665  HIT:     118830  MISS:      71835
BTB BRANCH_RETURN	ACCESS:    1197085  HIT:     453482  MISS:     743603
BTB BRANCH_OTHER ACCESS:          0  HIT:          0  MISS:          0

L2C TOTAL     ACCESS:    6181541  HIT:    5718715  MISS:     462826  HIT %:    92.5128  MISS %:    7.48723   MPKI: 9.25652
L2C LOAD      ACCESS:    4120811  HIT:    3704691  MISS:     416120  HIT %:     89.902  MISS %:     10.098   MPKI: 8.3224
L2C DATA LOAD MPKI: 2.59112
L2C INSTRUCTION LOAD MPKI: 5.73128
L2C RFO       ACCESS:     312101  HIT:     275070  MISS:      37031  HIT %:    88.1349  MISS %:    11.8651   MPKI: 0.74062
L2C PREFETCH  ACCESS:    1140457  HIT:    1138091  MISS:       2366  HIT %:    99.7925  MISS %:   0.207461   MPKI: 0.04732
L2C DATA PREFETCH MPKI: 0.04732
L2C INSTRUCTION PREFETCH MPKI: 0
L2C WRITEBACK ACCESS:     600500  HIT:     594997  MISS:       5503  HIT %:    99.0836  MISS %:   0.916403   MPKI: 0.11006
L2C LOAD TRANSLATION ACCESS:       7672  HIT:       5866  MISS:       1806  HIT %:    76.4599  MISS %:    23.5401   MPKI: 0.03612
L2C PREFETCH  REQUESTED:    2012897  ISSUED:    2012895  USEFUL:       1020  USELESS:       1314
L2C USEFUL LOAD PREFETCHES:       1020 PREFETCH ISSUED TO LOWER LEVEL:     588369  ACCURACY: 0.173361
L2C TIMELY PREFETCHES:       1020 LATE PREFETCHES: 6495 DROPPED PREFETCHES: 0
L2C PREFETCHES SAME FILL-ORIGIN LEVEL: 8861 DIFFERENT FILL-ORIGIN LEVEL: 579508
L2C AVERAGE MISS LATENCY: 45.2231 cycles
L2C RQ	ACCESS:    4440620	FORWARD:          0	MERGED:          0	TO_CACHE:    4440584
L2C WQ	ACCESS:     600501	FORWARD:         36	MERGED:          0	TO_CACHE:     600501
L2C PQ	ACCESS:    2012895	FORWARD:          0	MERGED:     274236	TO_CACHE:    1738659

L2C Instructions Evicting Data 98203
L2C Translations Evicting Data 1124
L2C Data Evicting Data 73589
L2C Instructions Evicting Instructions 187540
L2C Translations Evicting Instructions 646
L2C Data Evicting Instructions 94321
L2C Instructions Evicting Translations 819
L2C Translations Evicting Translations 36
L2C Data Evicting Translations 988
L2C Dense regions hint from L2: 0
PSCL5 TOTAL     ACCESS:       7390  HIT:       7390  MISS:          0  HIT %:        100  MISS %:          0   MPKI: 0
PSCL5 LOAD TRANSLATION ACCESS:       7390  HIT:       7390  MISS:          0  HIT %:        100  MISS %:          0   MPKI: 0
PSCL5 PREFETCH  REQUESTED:          0  ISSUED:          0  USEFUL:          0  USELESS:          0
PSCL5 USEFUL LOAD PREFETCHES:          0 PREFETCH ISSUED TO LOWER LEVEL:          0  ACCURACY: -nan
PSCL5 TIMELY PREFETCHES:          0 LATE PREFETCHES: 0 DROPPED PREFETCHES: 0
PSCL5 PREFETCHES SAME FILL-ORIGIN LEVEL: 0 DIFFERENT FILL-ORIGIN LEVEL: 0

PSCL4 TOTAL     ACCESS:       5779  HIT:       5763  MISS:         16  HIT %:    99.7231  MISS %:   0.276865   MPKI: 0.00032
PSCL4 LOAD TRANSLATION ACCESS:       5779  HIT:       5763  MISS:         16  HIT %:    99.7231  MISS %:   0.276865   MPKI: 0.00032
PSCL4 PREFETCH  REQUESTED:          0  ISSUED:          0  USEFUL:          0  USELESS:          0
PSCL4 USEFUL LOAD PREFETCHES:          0 PREFETCH ISSUED TO LOWER LEVEL:          0  ACCURACY: -nan
PSCL4 TIMELY PREFETCHES:          0 LATE PREFETCHES: 0 DROPPED PREFETCHES: 0
PSCL4 PREFETCHES SAME FILL-ORIGIN LEVEL: 0 DIFFERENT FILL-ORIGIN LEVEL: 0

PSCL3 TOTAL     ACCESS:       7322  HIT:       7304  MISS:         18  HIT %:    99.7542  MISS %:   0.245834   MPKI: 0.00036
PSCL3 LOAD TRANSLATION ACCESS:       7322  HIT:       7304  MISS:         18  HIT %:    99.7542  MISS %:   0.245834   MPKI: 0.00036
PSCL3 PREFETCH  REQUESTED:          0  ISSUED:          0  USEFUL:          0  USELESS:          0
PSCL3 USEFUL LOAD PREFETCHES:          0 PREFETCH ISSUED TO LOWER LEVEL:          0  ACCURACY: -nan
PSCL3 TIMELY PREFETCHES:          0 LATE PREFETCHES: 0 DROPPED PREFETCHES: 0
PSCL3 PREFETCHES SAME FILL-ORIGIN LEVEL: 0 DIFFERENT FILL-ORIGIN LEVEL: 0

PSCL2 TOTAL     ACCESS:       7390  HIT:       7135  MISS:        255  HIT %:    96.5494  MISS %:    3.45061   MPKI: 0.0051
PSCL2 LOAD TRANSLATION ACCESS:       7390  HIT:       7135  MISS:        255  HIT %:    96.5494  MISS %:    3.45061   MPKI: 0.0051
PSCL2 PREFETCH  REQUESTED:          0  ISSUED:          0  USEFUL:          0  USELESS:          0
PSCL2 USEFUL LOAD PREFETCHES:          0 PREFETCH ISSUED TO LOWER LEVEL:          0  ACCURACY: -nan
PSCL2 TIMELY PREFETCHES:          0 LATE PREFETCHES: 0 DROPPED PREFETCHES: 0
PSCL2 PREFETCHES SAME FILL-ORIGIN LEVEL: 0 DIFFERENT FILL-ORIGIN LEVEL: 0

LLC TOTAL     ACCESS:    1072171  HIT:    1048612  MISS:      23559  HIT %:    97.8027  MISS %:    2.19732   MPKI: 0.47118
LLC LOAD      ACCESS:     409625  HIT:     400533  MISS:       9092  HIT %:    97.7804  MISS %:    2.21959   MPKI: 0.18184
LLC RFO       ACCESS:      37031  HIT:      34501  MISS:       2530  HIT %:    93.1679  MISS %:    6.83211   MPKI: 0.0506
LLC PREFETCH  ACCESS:     549518  HIT:     537735  MISS:      11783  HIT %:    97.8558  MISS %:    2.14424   MPKI: 0.23566
LLC WRITEBACK ACCESS:      74191  HIT:      74121  MISS:         70  HIT %:    99.9056  MISS %:  0.0943511   MPKI: 0.0014
LLC LOAD TRANSLATION ACCESS:       1806  HIT:       1722  MISS:         84  HIT %:    95.3488  MISS %:    4.65116   MPKI: 0.00168
LLC PREFETCH  REQUESTED:          0  ISSUED:          0  USEFUL:       3448  USELESS:       2735
LLC USEFUL LOAD PREFETCHES:       3448 PREFETCH ISSUED TO LOWER LEVEL:      15761  ACCURACY: 21.8768
LLC TIMELY PREFETCHES:       3448 LATE PREFETCHES: 3978 DROPPED PREFETCHES: 0
LLC PREFETCHES SAME FILL-ORIGIN LEVEL: 15714 DIFFERENT FILL-ORIGIN LEVEL: 0
LLC AVERAGE MISS LATENCY: 518.267 cycles
LLC RQ	ACCESS:     448462	FORWARD:          0	MERGED:          0	TO_CACHE:     448462
LLC WQ	ACCESS:      74191	FORWARD:          0	MERGED:          0	TO_CACHE:      74191
LLC PQ	ACCESS:     588369	FORWARD:          0	MERGED:      24773	TO_CACHE:     563596

LLC Dense regions hint to LLC: 0

RAW hits: 558309
Loads Generated: 12384220
Loads sent to L1D: 11825913
Stores Generated: 6828094
Stores sent to L1D: 6828105
Major fault: 0 Minor fault: 2024
Allocated PAGES: 2024
 All Calls: 1401762
 Critical Calls: 1401762
------------------
Depth Distribution
------------------
depth 0: 0
depth 1: 1208932
depth 2: 361516
depth 3: 223584
depth 4: 191154
depth 5: 165253
depth 6: 135261
depth 7: 81483
depth 8: 30373
depth 9: 6467
depth 10: 486
depth 11: 62
depth 12: 13
depth 13: 0
depth 14: 0
depth 15: 0
depth 16: 0
depth 17: 0
depth 18: 0
depth 19: 0
depth 20: 0
depth 21: 0
depth 22: 0
depth 23: 0
depth 24: 0
depth 25: 0
depth 26: 0
depth 27: 0
depth 28: 0
depth 29: 0
Total: 2404584
-----------------------------
-----------------------------
	Captured at Filter
-----------------------------
depth 0: 0
depth 1: 125685
depth 2: 106309
depth 3: 96993
depth 4: 90387
depth 5: 83307
depth 6: 73202
depth 7: 45966
depth 8: 17885
depth 9: 3635
depth 10: 222
depth 11: 3
depth 12: 0
depth 13: 0
depth 14: 0
depth 15: 0
depth 16: 0
depth 17: 0
depth 18: 0
depth 19: 0
depth 20: 0
depth 21: 0
depth 22: 0
depth 23: 0
depth 24: 0
depth 25: 0
depth 26: 0
depth 27: 0
depth 28: 0
depth 29: 0
-----------------------------
-----------------------------
		Lost at Page
-----------------------------
depth 0: 0
depth 1: 124271
depth 2: 29877
depth 3: 16415
depth 4: 19095
depth 5: 22216
depth 6: 24044
depth 7: 19226
depth 8: 8786
depth 9: 2108
depth 10: 175
depth 11: 23
depth 12: 6
depth 13: 0
depth 14: 0
depth 15: 0
depth 16: 0
depth 17: 0
depth 18: 0
depth 19: 0
depth 20: 0
depth 21: 0
depth 22: 0
depth 23: 0
depth 24: 0
depth 25: 0
depth 26: 0
depth 27: 0
depth 28: 0
depth 29: 0
-----------------------------
-----------------------------
	Lost due to PQ Size
-----------------------------
19816
-----------------------------
ST read accesses: 995515
ST write accesses: 169271
PT read accesses: 19839471
PT write accesses: 1334954
FILTER read accesses: 4139544
FILTER write accesses: 642835
GHR read accesses: 2845289
GHR write accesses: 216807
GHR counter read accesses: 16995024
GHR counter write accesses: 1342135
ST tag read accesses: 530312778
ST tag write accesses: 70427551

DRAM Statistics
 CHANNEL 0
 RQ ROW_BUFFER_HIT:       9858  ROW_BUFFER_MISS:      13631
 DBUS_CONGESTED:      16619
 WQ ROW_BUFFER_HIT:         63  ROW_BUFFER_MISS:        510  FULL:          0

 AVG_CONGESTED_CYCLE: 142
 All warmup complete: 2
Channel 0 Bank busy for read cycles: 0
Channel 0 Bank busy for write cycles: 0
Channel 0
Rank 0
0banks busy for read cycles: 120806869
0banks busy for write cycles: 394
1banks busy for read cycles: 1443879
1banks busy for write cycles: 82216
2banks busy for read cycles: 580241
2banks busy for write cycles: 20247
3banks busy for read cycles: 350952
3banks busy for write cycles: 6284
4banks busy for read cycles: 301426
4banks busy for write cycles: 3115
5banks busy for read cycles: 259131
5banks busy for write cycles: 1365
6banks busy for read cycles: 191417
6banks busy for write cycles: 949
7banks busy for read cycles: 136269
7banks busy for write cycles: 772
8banks busy for read cycles: 324093
8banks busy for write cycles: 7787

CPU 0 Branch Prediction Accuracy: 92.4998% MPKI: 14.0697 Average ROB Occupancy at Mispredict: 17.1662
Branch types
NOT_BRANCH: 40620265 81.2405%
BRANCH_DIRECT_JUMP: 489855 0.97971%
BRANCH_INDIRECT: 174632 0.349264%
BRANCH_CONDITIONAL: 6320948 12.6419%
BRANCH_DIRECT_CALL: 1006426 2.01285%
BRANCH_INDIRECT_CALL: 190665 0.38133%
BRANCH_RETURN: 1197085 2.39417%
BRANCH_OTHER: 0 0%

@sumon_overall_L1D         0         0         0         0         0         0
@Sumon_Early_by_class_L1D         0         0         0         0
@Sumon_Late_by_class_L1D         0         0         0         0

@Sumon_Early_by_cycle_L1D         0         0         0         0         0         0         0         0         0         0         0         0
@Sumon_Late_by_cycle_L1D         0         0         0         0         0         0         0         0         0         0         0         0
@Sumon_Early_stream_L1D         0         0         0         0         0         0         0         0         0         0         0         0
@Sumon_Early_CS_L1D         0         0         0         0         0         0         0         0         0         0         0         0
@Sumon_Early_CPLX_L1D         0         0         0         0         0         0         0         0         0         0         0         0
@Sumon_Late_stream_L1D         0         0         0         0         0         0         0         0         0         0         0         0
@Sumon_Late_CS_L1D         0         0         0         0         0         0         0         0         0         0         0         0
@Sumon_Late_CPLX_L1D         0         0         0         0         0         0         0         0         0         0         0         0
@sumon_overall_L2C      1020      6495      1314      2366   2012895   2012897
@Sumon_Early_by_class_L2C         0         0         0         0
@Sumon_Late_by_class_L2C         0         0         0         0

@Sumon_Early_by_cycle_L2C       656       149        14         7         4       118         4         2         2         0         4        60
@Sumon_Late_by_cycle_L2C      6272       209        14         0         0         0         0         0         0         0         0         0
@Sumon_Early_stream_L2C         0         0         0         0         0         0         0         0         0         0         0         0
@Sumon_Early_CS_L2C         0         0         0         0         0         0         0         0         0         0         0         0
@Sumon_Early_CPLX_L2C         0         0         0         0         0         0         0         0         0         0         0         0
@Sumon_Late_stream_L2C         0         0         0         0         0         0         0         0         0         0         0         0
@Sumon_Late_CS_L2C         0         0         0         0         0         0         0         0         0         0         0         0
@Sumon_Late_CPLX_L2C         0         0         0         0         0         0         0         0         0         0         0         0
DRAM PAGES: 1048576
Allocated PAGES: 2024
