Initialize SIGNATURE TABLE
ST_SET: 1
ST_WAY: 256
ST_TAG_BIT: 16
ST_TAG_MASK: ffff

Initialize PATTERN TABLE
PT_SET: 512
PT_WAY: 4
SIG_DELTA_BIT: 7
C_SIG_BIT: 4
C_DELTA_BIT: 4

Initialize PREFETCH FILTER
FILTER_SET: 1024

*** ChampSim Multicore Out-of-Order Simulator ***

Warmup Instructions: 10000000
Simulation Instructions: 50000000
Number of CPUs: 1
LLC sets: 2048
LLC ways: 16
Off-chip DRAM Size: 4096 MB Channels: 1 Width: 64-bit Data Rate: 200 MT/s
CPU 0 runs traces/clientserver/server_017.champsimtrace.xz
.xz
CPU 0 Bimodal branch predictor
BTB has LRU replacement policy
ITLB has LRU replacement policy
DTLB has LRU replacement policy
STLB has LRU replacement policy
L1I has LRU replacement policy
L1D has LRU replacement policy
ST_WAYS: 256
PT_SETS: 512
L2C has LRU replacement policy
LLC has LRU replacement policy
Heartbeat CPU 0 instructions: 10000000 cycles: 3213420 heartbeat IPC: 3.11195 cumulative IPC: 3.11195 (Simulation time: 0 hr 12 min 52 sec) 

Warmup complete CPU 0 instructions: 10000004 cycles: 3213421 (Simulation time: 0 hr 12 min 52 sec) 

Heartbeat CPU 0 instructions: 20000000 cycles: 79813870 heartbeat IPC: 0.130548 cumulative IPC: 0.130547 (Simulation time: 1 hr 42 min 3 sec) 
Heartbeat CPU 0 instructions: 30000001 cycles: 155317795 heartbeat IPC: 0.132443 cumulative IPC: 0.131489 (Simulation time: 2 hr 11 min 51 sec) 
Heartbeat CPU 0 instructions: 40000003 cycles: 232483425 heartbeat IPC: 0.129591 cumulative IPC: 0.13085 (Simulation time: 2 hr 24 min 31 sec) 
Heartbeat CPU 0 instructions: 50000001 cycles: 307828368 heartbeat IPC: 0.132723 cumulative IPC: 0.131313 (Simulation time: 2 hr 31 min 41 sec) 
Heartbeat CPU 0 instructions: 60000001 cycles: 383751968 heartbeat IPC: 0.131711 cumulative IPC: 0.131393 (Simulation time: 2 hr 37 min 34 sec) 
Finished CPU 0 instructions: 50000001 cycles: 380538549 cumulative IPC: 0.131393 (Simulation time: 2 hr 37 min 34 sec) 

ChampSim completed all CPUs

Region of Interest Statistics

CPU 0 cumulative IPC: 0.131393 instructions: 50000001 cycles: 380538549
ITLB TOTAL     ACCESS:    9260002  HIT:    8888735  MISS:     371267  HIT %:    95.9906  MISS %:    4.00936   MPKI: 7.42534
ITLB LOAD TRANSLATION ACCESS:    9260002  HIT:    8888735  MISS:     371267  HIT %:    95.9906  MISS %:    4.00936   MPKI: 7.42534
ITLB PREFETCH  REQUESTED:          0  ISSUED:          0  USEFUL:          0  USELESS:          0
ITLB USEFUL LOAD PREFETCHES:          0 PREFETCH ISSUED TO LOWER LEVEL:          0  ACCURACY: -nan
ITLB TIMELY PREFETCHES:          0 LATE PREFETCHES: 0 DROPPED PREFETCHES: 0
ITLB PREFETCHES SAME FILL-ORIGIN LEVEL: 0 DIFFERENT FILL-ORIGIN LEVEL: 0
ITLB AVERAGE MISS LATENCY: 10.0428 cycles
ITLB RQ	ACCESS:   10852305	FORWARD:          0	MERGED:    1472327	TO_CACHE:    9379978

DTLB TOTAL     ACCESS:   11864648  HIT:   11437663  MISS:     426985  HIT %:    96.4012  MISS %:     3.5988   MPKI: 8.5397
DTLB LOAD TRANSLATION ACCESS:   11864648  HIT:   11437663  MISS:     426985  HIT %:    96.4012  MISS %:     3.5988   MPKI: 8.5397
DTLB PREFETCH  REQUESTED:          0  ISSUED:          0  USEFUL:          0  USELESS:          0
DTLB USEFUL LOAD PREFETCHES:          0 PREFETCH ISSUED TO LOWER LEVEL:          0  ACCURACY: -nan
DTLB TIMELY PREFETCHES:          0 LATE PREFETCHES: 0 DROPPED PREFETCHES: 0
DTLB PREFETCHES SAME FILL-ORIGIN LEVEL: 0 DIFFERENT FILL-ORIGIN LEVEL: 0
DTLB AVERAGE MISS LATENCY: 43.4177 cycles
DTLB RQ	ACCESS:   16615064	FORWARD:          0	MERGED:    4691103	TO_CACHE:   11923961

STLB TOTAL     ACCESS:     798252  HIT:     759517  MISS:      38735  HIT %:    95.1475  MISS %:    4.85248   MPKI: 0.7747
STLB LOAD TRANSLATION ACCESS:     798252  HIT:     759517  MISS:      38735  HIT %:    95.1475  MISS %:    4.85248   MPKI: 0.7747
STLB PREFETCH  REQUESTED:          0  ISSUED:          0  USEFUL:          0  USELESS:          0
STLB USEFUL LOAD PREFETCHES:          0 PREFETCH ISSUED TO LOWER LEVEL:          0  ACCURACY: -nan
STLB TIMELY PREFETCHES:          0 LATE PREFETCHES: 0 DROPPED PREFETCHES: 0
STLB PREFETCHES SAME FILL-ORIGIN LEVEL: 0 DIFFERENT FILL-ORIGIN LEVEL: 0
STLB AVERAGE MISS LATENCY: 389.165 cycles
STLB RQ	ACCESS:     798252	FORWARD:          0	MERGED:          0	TO_CACHE:     798252

STLB Hit, L1D data hit: 0
STLB Hit, L2C data hit: 0
STLB Hit, LLC data hit: 0
STLB Hit, LLC data miss: 0
STLB STLB hints to L2: 0
L1D TOTAL     ACCESS:   14029313  HIT:   12240667  MISS:    1788646  HIT %:    87.2507  MISS %:    12.7493   MPKI: 35.7729
L1D LOAD      ACCESS:    7948362  HIT:    7119764  MISS:     828598  HIT %:    89.5752  MISS %:    10.4248   MPKI: 16.572
L1D RFO       ACCESS:    6080951  HIT:    5120903  MISS:     960048  HIT %:    84.2122  MISS %:    15.7878   MPKI: 19.201
L1D PREFETCH  REQUESTED:          0  ISSUED:          0  USEFUL:          0  USELESS:          0
L1D USEFUL LOAD PREFETCHES:          0 PREFETCH ISSUED TO LOWER LEVEL:          0  ACCURACY: -nan
L1D TIMELY PREFETCHES:          0 LATE PREFETCHES: 0 DROPPED PREFETCHES: 0
L1D PREFETCHES SAME FILL-ORIGIN LEVEL: 0 DIFFERENT FILL-ORIGIN LEVEL: 0
L1D AVERAGE MISS LATENCY: 1779.92 cycles
L1D RQ	ACCESS:   11475909	FORWARD:          0	MERGED:    3356719	TO_CACHE:    7997073
L1D WQ	ACCESS:    8685052	FORWARD:     122117	MERGED:      67061	TO_CACHE:    8617991

L1D UNIQUE REGIONS ACCESSED: 0
L1D REGIONS CONFLICTS: 0
L1D Cross Page Prefetch Requests: 0
L1D Same Page Prefetch Requests: 0
L1D ROI Sum of L1D PQ occupancy: 0
L1D PREFETCHES PUSHED FROM L2C: 0
L1I TOTAL     ACCESS:   10134698  HIT:    7746724  MISS:    2387974  HIT %:    76.4376  MISS %:    23.5624   MPKI: 47.7595
L1I LOAD      ACCESS:   10134698  HIT:    7746724  MISS:    2387974  HIT %:    76.4376  MISS %:    23.5624   MPKI: 47.7595
L1I PREFETCH  REQUESTED:          0  ISSUED:          0  USEFUL:          0  USELESS:          0
L1I USEFUL LOAD PREFETCHES:          0 PREFETCH ISSUED TO LOWER LEVEL:          0  ACCURACY: -nan
L1I TIMELY PREFETCHES:          0 LATE PREFETCHES: 0 DROPPED PREFETCHES: 0
L1I PREFETCHES SAME FILL-ORIGIN LEVEL: 0 DIFFERENT FILL-ORIGIN LEVEL: 0
L1I AVERAGE MISS LATENCY: 18.8859 cycles
L1I RQ	ACCESS:   14777729	FORWARD:          0	MERGED:    3925424	TO_CACHE:   10852305

BTB TOTAL     ACCESS:    5360500  HIT:    5095941  MISS:     264559  HIT %:    95.0647  MISS %:    4.93534   MPKI: 5.29118
BTB BRANCH_DIRECT_JUMP	ACCESS:     456444  HIT:     454688  MISS:       1756
BTB BRANCH_INDIRECT	ACCESS:      50083  HIT:      49903  MISS:        180
BTB BRANCH_CONDITIONAL	ACCESS:    3033035  HIT:    3027410  MISS:       5625
BTB BRANCH_DIRECT_CALL	ACCESS:     742789  HIT:     739175  MISS:       3614
BTB BRANCH_INDIRECT_CALL	ACCESS:     167677  HIT:     138914  MISS:      28763
BTB BRANCH_RETURN	ACCESS:     910472  HIT:     685851  MISS:     224621
BTB BRANCH_OTHER ACCESS:          0  HIT:          0  MISS:          0

L2C TOTAL     ACCESS:    5876593  HIT:    4159274  MISS:    1717319  HIT %:     70.777  MISS %:     29.223   MPKI: 34.3464
L2C LOAD      ACCESS:    3216563  HIT:    2577643  MISS:     638920  HIT %:    80.1366  MISS %:    19.8634   MPKI: 12.7784
L2C DATA LOAD MPKI: 10.1958
L2C INSTRUCTION LOAD MPKI: 2.58262
L2C RFO       ACCESS:     960040  HIT:      23681  MISS:     936359  HIT %:    2.46667  MISS %:    97.5333   MPKI: 18.7272
L2C PREFETCH  ACCESS:     501541  HIT:     391253  MISS:     110288  HIT %:    78.0102  MISS %:    21.9898   MPKI: 2.20576
L2C DATA PREFETCH MPKI: 2.20576
L2C INSTRUCTION PREFETCH MPKI: 0
L2C WRITEBACK ACCESS:    1147076  HIT:    1145182  MISS:       1894  HIT %:    99.8349  MISS %:   0.165115   MPKI: 0.03788
L2C LOAD TRANSLATION ACCESS:      51373  HIT:      21515  MISS:      29858  HIT %:      41.88  MISS %:      58.12   MPKI: 0.59716
L2C PREFETCH  REQUESTED:    2878217  ISSUED:    2878143  USEFUL:     107294  USELESS:       2994
L2C USEFUL LOAD PREFETCHES:     107294 PREFETCH ISSUED TO LOWER LEVEL:    2411056  ACCURACY: 4.45008
L2C TIMELY PREFETCHES:     107294 LATE PREFETCHES: 78601 DROPPED PREFETCHES: 0
L2C PREFETCHES SAME FILL-ORIGIN LEVEL: 188889 DIFFERENT FILL-ORIGIN LEVEL: 2222167
L2C AVERAGE MISS LATENCY: 1862.48 cycles
L2C RQ	ACCESS:    4228009	FORWARD:          0	MERGED:          0	TO_CACHE:    4227992
L2C WQ	ACCESS:    1147076	FORWARD:         18	MERGED:          0	TO_CACHE:    1147076
L2C PQ	ACCESS:    2878143	FORWARD:          0	MERGED:      44092	TO_CACHE:    2834050

L2C Instructions Evicting Data 119600
L2C Translations Evicting Data 27045
L2C Data Evicting Data 1410247
L2C Instructions Evicting Instructions 7096
L2C Translations Evicting Instructions 2317
L2C Data Evicting Instructions 119319
L2C Instructions Evicting Translations 2435
L2C Translations Evicting Translations 496
L2C Data Evicting Translations 26870
L2C Dense regions hint from L2: 0
PSCL5 TOTAL     ACCESS:      38735  HIT:      38735  MISS:          0  HIT %:        100  MISS %:          0   MPKI: 0
PSCL5 LOAD TRANSLATION ACCESS:      38735  HIT:      38735  MISS:          0  HIT %:        100  MISS %:          0   MPKI: 0
PSCL5 PREFETCH  REQUESTED:          0  ISSUED:          0  USEFUL:          0  USELESS:          0
PSCL5 USEFUL LOAD PREFETCHES:          0 PREFETCH ISSUED TO LOWER LEVEL:          0  ACCURACY: -nan
PSCL5 TIMELY PREFETCHES:          0 LATE PREFETCHES: 0 DROPPED PREFETCHES: 0
PSCL5 PREFETCHES SAME FILL-ORIGIN LEVEL: 0 DIFFERENT FILL-ORIGIN LEVEL: 0

PSCL4 TOTAL     ACCESS:      37714  HIT:      37591  MISS:        123  HIT %:    99.6739  MISS %:   0.326139   MPKI: 0.00246
PSCL4 LOAD TRANSLATION ACCESS:      37714  HIT:      37591  MISS:        123  HIT %:    99.6739  MISS %:   0.326139   MPKI: 0.00246
PSCL4 PREFETCH  REQUESTED:          0  ISSUED:          0  USEFUL:          0  USELESS:          0
PSCL4 USEFUL LOAD PREFETCHES:          0 PREFETCH ISSUED TO LOWER LEVEL:          0  ACCURACY: -nan
PSCL4 TIMELY PREFETCHES:          0 LATE PREFETCHES: 0 DROPPED PREFETCHES: 0
PSCL4 PREFETCHES SAME FILL-ORIGIN LEVEL: 0 DIFFERENT FILL-ORIGIN LEVEL: 0

PSCL3 TOTAL     ACCESS:      38406  HIT:      37882  MISS:        524  HIT %:    98.6356  MISS %:    1.36437   MPKI: 0.01048
PSCL3 LOAD TRANSLATION ACCESS:      38406  HIT:      37882  MISS:        524  HIT %:    98.6356  MISS %:    1.36437   MPKI: 0.01048
PSCL3 PREFETCH  REQUESTED:          0  ISSUED:          0  USEFUL:          0  USELESS:          0
PSCL3 USEFUL LOAD PREFETCHES:          0 PREFETCH ISSUED TO LOWER LEVEL:          0  ACCURACY: -nan
PSCL3 TIMELY PREFETCHES:          0 LATE PREFETCHES: 0 DROPPED PREFETCHES: 0
PSCL3 PREFETCHES SAME FILL-ORIGIN LEVEL: 0 DIFFERENT FILL-ORIGIN LEVEL: 0

PSCL2 TOTAL     ACCESS:      38735  HIT:      26712  MISS:      12023  HIT %:    68.9609  MISS %:    31.0391   MPKI: 0.24046
PSCL2 LOAD TRANSLATION ACCESS:      38735  HIT:      26712  MISS:      12023  HIT %:    68.9609  MISS %:    31.0391   MPKI: 0.24046
PSCL2 PREFETCH  REQUESTED:          0  ISSUED:          0  USEFUL:          0  USELESS:          0
PSCL2 USEFUL LOAD PREFETCHES:          0 PREFETCH ISSUED TO LOWER LEVEL:          0  ACCURACY: -nan
PSCL2 TIMELY PREFETCHES:          0 LATE PREFETCHES: 0 DROPPED PREFETCHES: 0
PSCL2 PREFETCHES SAME FILL-ORIGIN LEVEL: 0 DIFFERENT FILL-ORIGIN LEVEL: 0

LLC TOTAL     ACCESS:    3658792  HIT:    2317365  MISS:    1341427  HIT %:    63.3369  MISS %:    36.6631   MPKI: 26.8285
LLC LOAD      ACCESS:     560321  HIT:     367298  MISS:     193023  HIT %:    65.5514  MISS %:    34.4486   MPKI: 3.86046
LLC RFO       ACCESS:     936357  HIT:     147079  MISS:     789278  HIT %:    15.7076  MISS %:    84.2924   MPKI: 15.7856
LLC PREFETCH  ACCESS:    1045417  HIT:     704566  MISS:     340851  HIT %:    67.3957  MISS %:    32.6043   MPKI: 6.81702
LLC WRITEBACK ACCESS:    1086839  HIT:    1085262  MISS:       1577  HIT %:    99.8549  MISS %:     0.1451   MPKI: 0.03154
LLC LOAD TRANSLATION ACCESS:      29858  HIT:      13160  MISS:      16698  HIT %:    44.0753  MISS %:    55.9247   MPKI: 0.33396
LLC PREFETCH  REQUESTED:          0  ISSUED:          0  USEFUL:      80929  USELESS:     259922
LLC USEFUL LOAD PREFETCHES:      80929 PREFETCH ISSUED TO LOWER LEVEL:     410686  ACCURACY: 19.7058
LLC TIMELY PREFETCHES:      80929 LATE PREFETCHES: 69835 DROPPED PREFETCHES: 0
LLC PREFETCHES SAME FILL-ORIGIN LEVEL: 407323 DIFFERENT FILL-ORIGIN LEVEL: 0
LLC AVERAGE MISS LATENCY: 2845.64 cycles
LLC RQ	ACCESS:    1526551	FORWARD:          0	MERGED:          0	TO_CACHE:    1526551
LLC WQ	ACCESS:    1086839	FORWARD:          0	MERGED:          0	TO_CACHE:    1086839
LLC PQ	ACCESS:    2411056	FORWARD:          0	MERGED:       2382	TO_CACHE:    2408674

LLC Dense regions hint to LLC: 0

RAW hits: 910105
Loads Generated: 12386017
Loads sent to L1D: 11475909
Stores Generated: 8685074
Stores sent to L1D: 8685052
Major fault: 0 Minor fault: 17732
Allocated PAGES: 17732
 All Calls: 996807
 Critical Calls: 996807
------------------
Depth Distribution
------------------
depth 0: 0
depth 1: 761891
depth 2: 470571
depth 3: 402946
depth 4: 373430
depth 5: 355079
depth 6: 338875
depth 7: 313280
depth 8: 229902
depth 9: 159523
depth 10: 39950
depth 11: 5679
depth 12: 471
depth 13: 94
depth 14: 0
depth 15: 0
depth 16: 0
depth 17: 0
depth 18: 0
depth 19: 0
depth 20: 0
depth 21: 0
depth 22: 0
depth 23: 0
depth 24: 0
depth 25: 0
depth 26: 0
depth 27: 0
depth 28: 0
depth 29: 0
Total: 3451691
-----------------------------
-----------------------------
	Captured at Filter
-----------------------------
depth 0: 0
depth 1: 3782
depth 2: 1446
depth 3: 1026
depth 4: 872
depth 5: 883
depth 6: 893
depth 7: 899
depth 8: 715
depth 9: 581
depth 10: 159
depth 11: 23
depth 12: 4
depth 13: 0
depth 14: 0
depth 15: 0
depth 16: 0
depth 17: 0
depth 18: 0
depth 19: 0
depth 20: 0
depth 21: 0
depth 22: 0
depth 23: 0
depth 24: 0
depth 25: 0
depth 26: 0
depth 27: 0
depth 28: 0
depth 29: 0
-----------------------------
-----------------------------
		Lost at Page
-----------------------------
depth 0: 0
depth 1: 34830
depth 2: 16879
depth 3: 16498
depth 4: 20043
depth 5: 24913
depth 6: 30176
depth 7: 34229
depth 8: 29730
depth 9: 24053
depth 10: 7166
depth 11: 1116
depth 12: 83
depth 13: 21
depth 14: 0
depth 15: 0
depth 16: 0
depth 17: 0
depth 18: 0
depth 19: 0
depth 20: 0
depth 21: 0
depth 22: 0
depth 23: 0
depth 24: 0
depth 25: 0
depth 26: 0
depth 27: 0
depth 28: 0
depth 29: 0
-----------------------------
-----------------------------
	Lost due to PQ Size
-----------------------------
448
-----------------------------
ST read accesses: 768942
ST write accesses: 59647
PT read accesses: 20889973
PT write accesses: 1049486
FILTER read accesses: 5433386
FILTER write accesses: 2150852
GHR read accesses: 1739878
GHR write accesses: 199310
GHR counter read accesses: 17201662
GHR counter write accesses: 1260034
ST tag read accesses: 349020032
ST tag write accesses: 27533012

DRAM Statistics
 CHANNEL 0
 RQ ROW_BUFFER_HIT:     398561  ROW_BUFFER_MISS:     941046
 DBUS_CONGESTED:    2280323
 WQ ROW_BUFFER_HIT:     160514  ROW_BUFFER_MISS:     716766  FULL:          0

 AVG_CONGESTED_CYCLE: 145
 All warmup complete: 2
Channel 0 Bank busy for read cycles: 0
Channel 0 Bank busy for write cycles: 0
Channel 0
Rank 0
0banks busy for read cycles: 13481712
0banks busy for write cycles: 10416
1banks busy for read cycles: 22128022
1banks busy for write cycles: 2305289
2banks busy for read cycles: 14875611
2banks busy for write cycles: 1827419
3banks busy for read cycles: 10138416
3banks busy for write cycles: 1749252
4banks busy for read cycles: 8078569
4banks busy for write cycles: 1897894
5banks busy for read cycles: 7353877
5banks busy for write cycles: 2158584
6banks busy for read cycles: 7770176
6banks busy for write cycles: 2913723
7banks busy for read cycles: 10309533
7banks busy for write cycles: 8315372
8banks busy for read cycles: 137392077
8banks busy for write cycles: 127832608

CPU 0 Branch Prediction Accuracy: 96.293% MPKI: 6.14724 Average ROB Occupancy at Mispredict: 57.55
Branch types
NOT_BRANCH: 41708664 83.4173%
BRANCH_DIRECT_JUMP: 456444 0.912888%
BRANCH_INDIRECT: 50083 0.100166%
BRANCH_CONDITIONAL: 5963864 11.9277%
BRANCH_DIRECT_CALL: 742789 1.48558%
BRANCH_INDIRECT_CALL: 167677 0.335354%
BRANCH_RETURN: 910472 1.82094%
BRANCH_OTHER: 0 0%

@sumon_overall_L1D         0         0         0         0         0         0
@Sumon_Early_by_class_L1D         0         0         0         0
@Sumon_Late_by_class_L1D         0         0         0         0

@Sumon_Early_by_cycle_L1D         0         0         0         0         0         0         0         0         0         0         0         0
@Sumon_Late_by_cycle_L1D         0         0         0         0         0         0         0         0         0         0         0         0
@Sumon_Early_stream_L1D         0         0         0         0         0         0         0         0         0         0         0         0
@Sumon_Early_CS_L1D         0         0         0         0         0         0         0         0         0         0         0         0
@Sumon_Early_CPLX_L1D         0         0         0         0         0         0         0         0         0         0         0         0
@Sumon_Late_stream_L1D         0         0         0         0         0         0         0         0         0         0         0         0
@Sumon_Late_CS_L1D         0         0         0         0         0         0         0         0         0         0         0         0
@Sumon_Late_CPLX_L1D         0         0         0         0         0         0         0         0         0         0         0         0
@sumon_overall_L2C    107294     78601      2994    110288   2878143   2878217
@Sumon_Early_by_class_L2C         0         0         0         0
@Sumon_Late_by_class_L2C         0         0         0         0

@Sumon_Early_by_cycle_L2C     84290      8695      2473      1630       818      3442      2567       463        25        84      1132      1675
@Sumon_Late_by_cycle_L2C     52648      6628      2249      1587       776      6290      6379      2044         0         0         0         0
@Sumon_Early_stream_L2C         0         0         0         0         0         0         0         0         0         0         0         0
@Sumon_Early_CS_L2C         0         0         0         0         0         0         0         0         0         0         0         0
@Sumon_Early_CPLX_L2C         0         0         0         0         0         0         0         0         0         0         0         0
@Sumon_Late_stream_L2C         0         0         0         0         0         0         0         0         0         0         0         0
@Sumon_Late_CS_L2C         0         0         0         0         0         0         0         0         0         0         0         0
@Sumon_Late_CPLX_L2C         0         0         0         0         0         0         0         0         0         0         0         0
DRAM PAGES: 1048576
Allocated PAGES: 17732
