Initialize SIGNATURE TABLE
ST_SET: 1
ST_WAY: 256
ST_TAG_BIT: 16
ST_TAG_MASK: ffff

Initialize PATTERN TABLE
PT_SET: 512
PT_WAY: 4
SIG_DELTA_BIT: 7
C_SIG_BIT: 4
C_DELTA_BIT: 4

Initialize PREFETCH FILTER
FILTER_SET: 1024

*** ChampSim Multicore Out-of-Order Simulator ***

Warmup Instructions: 10000000
Simulation Instructions: 50000000
Number of CPUs: 1
LLC sets: 2048
LLC ways: 16
Off-chip DRAM Size: 4096 MB Channels: 1 Width: 64-bit Data Rate: 200 MT/s
CPU 0 runs traces/clientserver/server_029.champsimtrace.xz
.xz
CPU 0 Bimodal branch predictor
BTB has LRU replacement policy
ITLB has LRU replacement policy
DTLB has LRU replacement policy
STLB has LRU replacement policy
L1I has LRU replacement policy
L1D has LRU replacement policy
ST_WAYS: 256
PT_SETS: 512
L2C has LRU replacement policy
LLC has LRU replacement policy
Heartbeat CPU 0 instructions: 10000001 cycles: 2887933 heartbeat IPC: 3.46268 cumulative IPC: 3.46268 (Simulation time: 0 hr 11 min 50 sec) 

Warmup complete CPU 0 instructions: 10000001 cycles: 2887933 (Simulation time: 0 hr 11 min 50 sec) 

Heartbeat CPU 0 instructions: 20000000 cycles: 28083773 heartbeat IPC: 0.396891 cumulative IPC: 0.396891 (Simulation time: 0 hr 30 min 41 sec) 
Heartbeat CPU 0 instructions: 30000000 cycles: 53032390 heartbeat IPC: 0.400824 cumulative IPC: 0.398848 (Simulation time: 0 hr 49 min 42 sec) 
Heartbeat CPU 0 instructions: 40000001 cycles: 78165690 heartbeat IPC: 0.397879 cumulative IPC: 0.398524 (Simulation time: 1 hr 9 min 9 sec) 
Heartbeat CPU 0 instructions: 50000000 cycles: 103325953 heartbeat IPC: 0.397452 cumulative IPC: 0.398256 (Simulation time: 1 hr 28 min 39 sec) 
Heartbeat CPU 0 instructions: 60000000 cycles: 128570449 heartbeat IPC: 0.396126 cumulative IPC: 0.397828 (Simulation time: 1 hr 46 min 29 sec) 
Finished CPU 0 instructions: 50000002 cycles: 125682517 cumulative IPC: 0.397828 (Simulation time: 1 hr 46 min 29 sec) 

ChampSim completed all CPUs

Region of Interest Statistics

CPU 0 cumulative IPC: 0.397828 instructions: 50000002 cycles: 125682517
ITLB TOTAL     ACCESS:    8689533  HIT:    8156545  MISS:     532988  HIT %:    93.8663  MISS %:    6.13368   MPKI: 10.6598
ITLB LOAD TRANSLATION ACCESS:    8689533  HIT:    8156545  MISS:     532988  HIT %:    93.8663  MISS %:    6.13368   MPKI: 10.6598
ITLB PREFETCH  REQUESTED:          0  ISSUED:          0  USEFUL:          0  USELESS:          0
ITLB USEFUL LOAD PREFETCHES:          0 PREFETCH ISSUED TO LOWER LEVEL:          0  ACCURACY: -nan
ITLB TIMELY PREFETCHES:          0 LATE PREFETCHES: 0 DROPPED PREFETCHES: 0
ITLB PREFETCHES SAME FILL-ORIGIN LEVEL: 0 DIFFERENT FILL-ORIGIN LEVEL: 0
ITLB AVERAGE MISS LATENCY: 9.18315 cycles
ITLB RQ	ACCESS:   10352416	FORWARD:          0	MERGED:    1528101	TO_CACHE:    8824315

DTLB TOTAL     ACCESS:   12223634  HIT:   11679035  MISS:     544599  HIT %:    95.5447  MISS %:     4.4553   MPKI: 10.892
DTLB LOAD TRANSLATION ACCESS:   12223634  HIT:   11679035  MISS:     544599  HIT %:    95.5447  MISS %:     4.4553   MPKI: 10.892
DTLB PREFETCH  REQUESTED:          0  ISSUED:          0  USEFUL:          0  USELESS:          0
DTLB USEFUL LOAD PREFETCHES:          0 PREFETCH ISSUED TO LOWER LEVEL:          0  ACCURACY: -nan
DTLB TIMELY PREFETCHES:          0 LATE PREFETCHES: 0 DROPPED PREFETCHES: 0
DTLB PREFETCHES SAME FILL-ORIGIN LEVEL: 0 DIFFERENT FILL-ORIGIN LEVEL: 0
DTLB AVERAGE MISS LATENCY: 12.4901 cycles
DTLB RQ	ACCESS:   15350069	FORWARD:          0	MERGED:    3107206	TO_CACHE:   12242863

STLB TOTAL     ACCESS:    1077587  HIT:    1063961  MISS:      13626  HIT %:    98.7355  MISS %:    1.26449   MPKI: 0.27252
STLB LOAD TRANSLATION ACCESS:    1077587  HIT:    1063961  MISS:      13626  HIT %:    98.7355  MISS %:    1.26449   MPKI: 0.27252
STLB PREFETCH  REQUESTED:          0  ISSUED:          0  USEFUL:          0  USELESS:          0
STLB USEFUL LOAD PREFETCHES:          0 PREFETCH ISSUED TO LOWER LEVEL:          0  ACCURACY: -nan
STLB TIMELY PREFETCHES:          0 LATE PREFETCHES: 0 DROPPED PREFETCHES: 0
STLB PREFETCHES SAME FILL-ORIGIN LEVEL: 0 DIFFERENT FILL-ORIGIN LEVEL: 0
STLB AVERAGE MISS LATENCY: 145.679 cycles
STLB RQ	ACCESS:    1077587	FORWARD:          0	MERGED:          0	TO_CACHE:    1077587

STLB Hit, L1D data hit: 0
STLB Hit, L2C data hit: 0
STLB Hit, LLC data hit: 0
STLB Hit, LLC data miss: 0
STLB STLB hints to L2: 0
L1D TOTAL     ACCESS:   14852571  HIT:   13392628  MISS:    1459943  HIT %:    90.1704  MISS %:    9.82956   MPKI: 29.1989
L1D LOAD      ACCESS:    8586385  HIT:    7437543  MISS:    1148842  HIT %:    86.6202  MISS %:    13.3798   MPKI: 22.9768
L1D RFO       ACCESS:    6266186  HIT:    5955085  MISS:     311101  HIT %:    95.0352  MISS %:    4.96476   MPKI: 6.22202
L1D PREFETCH  REQUESTED:          0  ISSUED:          0  USEFUL:          0  USELESS:          0
L1D USEFUL LOAD PREFETCHES:          0 PREFETCH ISSUED TO LOWER LEVEL:          0  ACCURACY: -nan
L1D TIMELY PREFETCHES:          0 LATE PREFETCHES: 0 DROPPED PREFETCHES: 0
L1D PREFETCHES SAME FILL-ORIGIN LEVEL: 0 DIFFERENT FILL-ORIGIN LEVEL: 0
L1D AVERAGE MISS LATENCY: 28.1592 cycles
L1D RQ	ACCESS:   11739766	FORWARD:          0	MERGED:    2986575	TO_CACHE:    8631430
L1D WQ	ACCESS:    6762648	FORWARD:     121761	MERGED:      44009	TO_CACHE:    6718639

L1D UNIQUE REGIONS ACCESSED: 0
L1D REGIONS CONFLICTS: 0
L1D Cross Page Prefetch Requests: 0
L1D Same Page Prefetch Requests: 0
L1D ROI Sum of L1D PQ occupancy: 0
L1D PREFETCHES PUSHED FROM L2C: 0
L1I TOTAL     ACCESS:    9839150  HIT:    6935422  MISS:    2903728  HIT %:     70.488  MISS %:     29.512   MPKI: 58.0746
L1I LOAD      ACCESS:    9839150  HIT:    6935422  MISS:    2903728  HIT %:     70.488  MISS %:     29.512   MPKI: 58.0746
L1I PREFETCH  REQUESTED:          0  ISSUED:          0  USEFUL:          0  USELESS:          0
L1I USEFUL LOAD PREFETCHES:          0 PREFETCH ISSUED TO LOWER LEVEL:          0  ACCURACY: -nan
L1I TIMELY PREFETCHES:          0 LATE PREFETCHES: 0 DROPPED PREFETCHES: 0
L1I PREFETCHES SAME FILL-ORIGIN LEVEL: 0 DIFFERENT FILL-ORIGIN LEVEL: 0
L1I AVERAGE MISS LATENCY: 16.3698 cycles
L1I RQ	ACCESS:   13963160	FORWARD:          0	MERGED:    3610744	TO_CACHE:   10352416

BTB TOTAL     ACCESS:    6134172  HIT:    4300135  MISS:    1834037  HIT %:    70.1013  MISS %:    29.8987   MPKI: 36.6807
BTB BRANCH_DIRECT_JUMP	ACCESS:     525618  HIT:     378588  MISS:     147030
BTB BRANCH_INDIRECT	ACCESS:     166508  HIT:     130989  MISS:      35519
BTB BRANCH_CONDITIONAL	ACCESS:    3093621  HIT:    2589787  MISS:     503834
BTB BRANCH_DIRECT_CALL	ACCESS:     988709  HIT:     629772  MISS:     358937
BTB BRANCH_INDIRECT_CALL	ACCESS:     185503  HIT:     117008  MISS:      68495
BTB BRANCH_RETURN	ACCESS:    1174213  HIT:     453991  MISS:     720222
BTB BRANCH_OTHER ACCESS:          0  HIT:          0  MISS:          0

L2C TOTAL     ACCESS:    6061899  HIT:    5653470  MISS:     408429  HIT %:    93.2624  MISS %:    6.73764   MPKI: 8.16858
L2C LOAD      ACCESS:    4052569  HIT:    3713014  MISS:     339555  HIT %:    91.6212  MISS %:    8.37876   MPKI: 6.7911
L2C DATA LOAD MPKI: 2.58534
L2C INSTRUCTION LOAD MPKI: 4.20576
L2C RFO       ACCESS:     311101  HIT:     259811  MISS:      51290  HIT %:    83.5134  MISS %:    16.4866   MPKI: 1.0258
L2C PREFETCH  ACCESS:    1085583  HIT:    1082476  MISS:       3107  HIT %:    99.7138  MISS %:   0.286206   MPKI: 0.06214
L2C DATA PREFETCH MPKI: 0.06214
L2C INSTRUCTION PREFETCH MPKI: 0
L2C WRITEBACK ACCESS:     592094  HIT:     588701  MISS:       3393  HIT %:    99.4269  MISS %:   0.573051   MPKI: 0.06786
L2C LOAD TRANSLATION ACCESS:      20552  HIT:       9468  MISS:      11084  HIT %:    46.0685  MISS %:    53.9315   MPKI: 0.22168
L2C PREFETCH  REQUESTED:    1911011  ISSUED:    1911008  USEFUL:       1871  USELESS:       1189
L2C USEFUL LOAD PREFETCHES:       1871 PREFETCH ISSUED TO LOWER LEVEL:     576719  ACCURACY: 0.324421
L2C TIMELY PREFETCHES:       1871 LATE PREFETCHES: 2098 DROPPED PREFETCHES: 0
L2C PREFETCHES SAME FILL-ORIGIN LEVEL: 5205 DIFFERENT FILL-ORIGIN LEVEL: 571514
L2C AVERAGE MISS LATENCY: 66.4228 cycles
L2C RQ	ACCESS:    4384217	FORWARD:          0	MERGED:          0	TO_CACHE:    4384217
L2C WQ	ACCESS:     592094	FORWARD:          0	MERGED:          0	TO_CACHE:     592094
L2C PQ	ACCESS:    1911008	FORWARD:          0	MERGED:     238202	TO_CACHE:    1672806

L2C Instructions Evicting Data 82799
L2C Translations Evicting Data 7309
L2C Data Evicting Data 96611
L2C Instructions Evicting Instructions 124557
L2C Translations Evicting Instructions 2833
L2C Data Evicting Instructions 79879
L2C Instructions Evicting Translations 2932
L2C Translations Evicting Translations 942
L2C Data Evicting Translations 7166
L2C Dense regions hint from L2: 0
PSCL5 TOTAL     ACCESS:      13626  HIT:      13626  MISS:          0  HIT %:        100  MISS %:          0   MPKI: 0
PSCL5 LOAD TRANSLATION ACCESS:      13626  HIT:      13626  MISS:          0  HIT %:        100  MISS %:          0   MPKI: 0
PSCL5 PREFETCH  REQUESTED:          0  ISSUED:          0  USEFUL:          0  USELESS:          0
PSCL5 USEFUL LOAD PREFETCHES:          0 PREFETCH ISSUED TO LOWER LEVEL:          0  ACCURACY: -nan
PSCL5 TIMELY PREFETCHES:          0 LATE PREFETCHES: 0 DROPPED PREFETCHES: 0
PSCL5 PREFETCHES SAME FILL-ORIGIN LEVEL: 0 DIFFERENT FILL-ORIGIN LEVEL: 0

PSCL4 TOTAL     ACCESS:      13165  HIT:      12990  MISS:        175  HIT %:    98.6707  MISS %:    1.32928   MPKI: 0.0035
PSCL4 LOAD TRANSLATION ACCESS:      13165  HIT:      12990  MISS:        175  HIT %:    98.6707  MISS %:    1.32928   MPKI: 0.0035
PSCL4 PREFETCH  REQUESTED:          0  ISSUED:          0  USEFUL:          0  USELESS:          0
PSCL4 USEFUL LOAD PREFETCHES:          0 PREFETCH ISSUED TO LOWER LEVEL:          0  ACCURACY: -nan
PSCL4 TIMELY PREFETCHES:          0 LATE PREFETCHES: 0 DROPPED PREFETCHES: 0
PSCL4 PREFETCHES SAME FILL-ORIGIN LEVEL: 0 DIFFERENT FILL-ORIGIN LEVEL: 0

PSCL3 TOTAL     ACCESS:      13607  HIT:      13432  MISS:        175  HIT %:    98.7139  MISS %:     1.2861   MPKI: 0.0035
PSCL3 LOAD TRANSLATION ACCESS:      13607  HIT:      13432  MISS:        175  HIT %:    98.7139  MISS %:     1.2861   MPKI: 0.0035
PSCL3 PREFETCH  REQUESTED:          0  ISSUED:          0  USEFUL:          0  USELESS:          0
PSCL3 USEFUL LOAD PREFETCHES:          0 PREFETCH ISSUED TO LOWER LEVEL:          0  ACCURACY: -nan
PSCL3 TIMELY PREFETCHES:          0 LATE PREFETCHES: 0 DROPPED PREFETCHES: 0
PSCL3 PREFETCHES SAME FILL-ORIGIN LEVEL: 0 DIFFERENT FILL-ORIGIN LEVEL: 0

PSCL2 TOTAL     ACCESS:      13626  HIT:       7043  MISS:       6583  HIT %:    51.6879  MISS %:    48.3121   MPKI: 0.13166
PSCL2 LOAD TRANSLATION ACCESS:      13626  HIT:       7043  MISS:       6583  HIT %:    51.6879  MISS %:    48.3121   MPKI: 0.13166
PSCL2 PREFETCH  REQUESTED:          0  ISSUED:          0  USEFUL:          0  USELESS:          0
PSCL2 USEFUL LOAD PREFETCHES:          0 PREFETCH ISSUED TO LOWER LEVEL:          0  ACCURACY: -nan
PSCL2 TIMELY PREFETCHES:          0 LATE PREFETCHES: 0 DROPPED PREFETCHES: 0
PSCL2 PREFETCHES SAME FILL-ORIGIN LEVEL: 0 DIFFERENT FILL-ORIGIN LEVEL: 0

LLC TOTAL     ACCESS:    1027484  HIT:     967914  MISS:      59570  HIT %:    94.2023  MISS %:    5.79766   MPKI: 1.1914
LLC LOAD      ACCESS:     337457  HIT:     310130  MISS:      27327  HIT %:    91.9021  MISS %:    8.09792   MPKI: 0.54654
LLC RFO       ACCESS:      51290  HIT:      48690  MISS:       2600  HIT %:    94.9308  MISS %:    5.06921   MPKI: 0.052
LLC PREFETCH  ACCESS:     541421  HIT:     514531  MISS:      26890  HIT %:    95.0334  MISS %:    4.96656   MPKI: 0.5378
LLC WRITEBACK ACCESS:      86232  HIT:      85963  MISS:        269  HIT %:    99.6881  MISS %:   0.311949   MPKI: 0.00538
LLC LOAD TRANSLATION ACCESS:      11084  HIT:       8600  MISS:       2484  HIT %:    77.5893  MISS %:    22.4107   MPKI: 0.04968
LLC PREFETCH  REQUESTED:          0  ISSUED:          0  USEFUL:       5154  USELESS:      17642
LLC USEFUL LOAD PREFETCHES:       5154 PREFETCH ISSUED TO LOWER LEVEL:      34220  ACCURACY: 15.0614
LLC TIMELY PREFETCHES:       5154 LATE PREFETCHES: 7330 DROPPED PREFETCHES: 0
LLC PREFETCHES SAME FILL-ORIGIN LEVEL: 33994 DIFFERENT FILL-ORIGIN LEVEL: 0
LLC AVERAGE MISS LATENCY: 467.888 cycles
LLC RQ	ACCESS:     399831	FORWARD:          0	MERGED:          0	TO_CACHE:     399831
LLC WQ	ACCESS:      86232	FORWARD:          0	MERGED:          0	TO_CACHE:      86232
LLC PQ	ACCESS:     576719	FORWARD:          0	MERGED:      14092	TO_CACHE:     562627

LLC Dense regions hint to LLC: 0

RAW hits: 556830
Loads Generated: 12296596
Loads sent to L1D: 11739766
Stores Generated: 6762648
Stores sent to L1D: 6762648
Major fault: 0 Minor fault: 5445
Allocated PAGES: 5445
 All Calls: 1379795
 Critical Calls: 1379795
------------------
Depth Distribution
------------------
depth 0: 0
depth 1: 1246988
depth 2: 350097
depth 3: 202939
depth 4: 165785
depth 5: 139660
depth 6: 104133
depth 7: 47671
depth 8: 9489
depth 9: 806
depth 10: 127
depth 11: 40
depth 12: 12
depth 13: 1
depth 14: 1
depth 15: 1
depth 16: 1
depth 17: 0
depth 18: 0
depth 19: 0
depth 20: 0
depth 21: 0
depth 22: 0
depth 23: 0
depth 24: 0
depth 25: 0
depth 26: 0
depth 27: 0
depth 28: 0
depth 29: 0
Total: 2267751
-----------------------------
-----------------------------
	Captured at Filter
-----------------------------
depth 0: 0
depth 1: 130461
depth 2: 101393
depth 3: 92240
depth 4: 87174
depth 5: 79678
depth 6: 63318
depth 7: 30302
depth 8: 5628
depth 9: 357
depth 10: 11
depth 11: 0
depth 12: 0
depth 13: 0
depth 14: 0
depth 15: 0
depth 16: 0
depth 17: 0
depth 18: 0
depth 19: 0
depth 20: 0
depth 21: 0
depth 22: 0
depth 23: 0
depth 24: 0
depth 25: 0
depth 26: 0
depth 27: 0
depth 28: 0
depth 29: 0
-----------------------------
-----------------------------
		Lost at Page
-----------------------------
depth 0: 0
depth 1: 75587
depth 2: 23331
depth 3: 13161
depth 4: 15302
depth 5: 18185
depth 6: 17839
depth 7: 10728
depth 8: 2471
depth 9: 201
depth 10: 36
depth 11: 10
depth 12: 3
depth 13: 0
depth 14: 0
depth 15: 0
depth 16: 0
depth 17: 0
depth 18: 0
depth 19: 0
depth 20: 0
depth 21: 0
depth 22: 0
depth 23: 0
depth 24: 0
depth 25: 0
depth 26: 0
depth 27: 0
depth 28: 0
depth 29: 0
-----------------------------
-----------------------------
	Lost due to PQ Size
-----------------------------
17075
-----------------------------
ST read accesses: 948465
ST write accesses: 200376
PT read accesses: 18539514
PT write accesses: 1235941
FILTER read accesses: 3939350
FILTER write accesses: 565638
GHR read accesses: 2604357
GHR write accesses: 146360
GHR counter read accesses: 16146726
GHR counter write accesses: 1301604
ST tag read accesses: 543772602
ST tag write accesses: 78311470

DRAM Statistics
 CHANNEL 0
 RQ ROW_BUFFER_HIT:      17419  ROW_BUFFER_MISS:      41882
 DBUS_CONGESTED:      48914
 WQ ROW_BUFFER_HIT:        704  ROW_BUFFER_MISS:       2260  FULL:          0

 AVG_CONGESTED_CYCLE: 139
 All warmup complete: 2
Channel 0 Bank busy for read cycles: 0
Channel 0 Bank busy for write cycles: 0
Channel 0
Rank 0
0banks busy for read cycles: 115734631
0banks busy for write cycles: 1683
1banks busy for read cycles: 3087308
1banks busy for write cycles: 440183
2banks busy for read cycles: 2028469
2banks busy for write cycles: 178555
3banks busy for read cycles: 1457363
3banks busy for write cycles: 92094
4banks busy for read cycles: 1037794
4banks busy for write cycles: 36674
5banks busy for read cycles: 694639
5banks busy for write cycles: 17417
6banks busy for read cycles: 371692
6banks busy for write cycles: 10024
7banks busy for read cycles: 170968
7banks busy for write cycles: 706
8banks busy for read cycles: 316842
8banks busy for write cycles: 5476

CPU 0 Branch Prediction Accuracy: 92.2332% MPKI: 14.6271 Average ROB Occupancy at Mispredict: 19.8325
Branch types
NOT_BRANCH: 40583277 81.1666%
BRANCH_DIRECT_JUMP: 525618 1.05124%
BRANCH_INDIRECT: 166508 0.333016%
BRANCH_CONDITIONAL: 6375895 12.7518%
BRANCH_DIRECT_CALL: 988709 1.97742%
BRANCH_INDIRECT_CALL: 185503 0.371006%
BRANCH_RETURN: 1174213 2.34843%
BRANCH_OTHER: 0 0%

@sumon_overall_L1D         0         0         0         0         0         0
@Sumon_Early_by_class_L1D         0         0         0         0
@Sumon_Late_by_class_L1D         0         0         0         0

@Sumon_Early_by_cycle_L1D         0         0         0         0         0         0         0         0         0         0         0         0
@Sumon_Late_by_cycle_L1D         0         0         0         0         0         0         0         0         0         0         0         0
@Sumon_Early_stream_L1D         0         0         0         0         0         0         0         0         0         0         0         0
@Sumon_Early_CS_L1D         0         0         0         0         0         0         0         0         0         0         0         0
@Sumon_Early_CPLX_L1D         0         0         0         0         0         0         0         0         0         0         0         0
@Sumon_Late_stream_L1D         0         0         0         0         0         0         0         0         0         0         0         0
@Sumon_Late_CS_L1D         0         0         0         0         0         0         0         0         0         0         0         0
@Sumon_Late_CPLX_L1D         0         0         0         0         0         0         0         0         0         0         0         0
@sumon_overall_L2C      1871      2098      1189      3107   1911008   1911011
@Sumon_Early_by_class_L2C         0         0         0         0
@Sumon_Late_by_class_L2C         0         0         0         0

@Sumon_Early_by_cycle_L2C      1272       314        17         4         3        13        43        82        76        21         1        25
@Sumon_Late_by_cycle_L2C      1863       222        10         2         0         1         0         0         0         0         0         0
@Sumon_Early_stream_L2C         0         0         0         0         0         0         0         0         0         0         0         0
@Sumon_Early_CS_L2C         0         0         0         0         0         0         0         0         0         0         0         0
@Sumon_Early_CPLX_L2C         0         0         0         0         0         0         0         0         0         0         0         0
@Sumon_Late_stream_L2C         0         0         0         0         0         0         0         0         0         0         0         0
@Sumon_Late_CS_L2C         0         0         0         0         0         0         0         0         0         0         0         0
@Sumon_Late_CPLX_L2C         0         0         0         0         0         0         0         0         0         0         0         0
DRAM PAGES: 1048576
Allocated PAGES: 5445
