Initialize SIGNATURE TABLE
ST_SET: 1
ST_WAY: 256
ST_TAG_BIT: 16
ST_TAG_MASK: ffff

Initialize PATTERN TABLE
PT_SET: 512
PT_WAY: 4
SIG_DELTA_BIT: 7
C_SIG_BIT: 4
C_DELTA_BIT: 4

Initialize PREFETCH FILTER
FILTER_SET: 1024

*** ChampSim Multicore Out-of-Order Simulator ***

Warmup Instructions: 10000000
Simulation Instructions: 50000000
Number of CPUs: 1
LLC sets: 2048
LLC ways: 16
Off-chip DRAM Size: 4096 MB Channels: 1 Width: 64-bit Data Rate: 200 MT/s
CPU 0 runs traces/clientserver/server_031.champsimtrace.xz
.xz
CPU 0 Bimodal branch predictor
BTB has LRU replacement policy
ITLB has LRU replacement policy
DTLB has LRU replacement policy
STLB has LRU replacement policy
L1I has LRU replacement policy
L1D has LRU replacement policy
ST_WAYS: 256
PT_SETS: 512
L2C has LRU replacement policy
LLC has LRU replacement policy
Heartbeat CPU 0 instructions: 10000000 cycles: 2889678 heartbeat IPC: 3.46059 cumulative IPC: 3.46059 (Simulation time: 0 hr 12 min 15 sec) 

Warmup complete CPU 0 instructions: 10000004 cycles: 2889679 (Simulation time: 0 hr 12 min 15 sec) 

Heartbeat CPU 0 instructions: 20000003 cycles: 28684753 heartbeat IPC: 0.387671 cumulative IPC: 0.387671 (Simulation time: 0 hr 31 min 16 sec) 
Heartbeat CPU 0 instructions: 30000001 cycles: 54264287 heartbeat IPC: 0.390937 cumulative IPC: 0.389297 (Simulation time: 0 hr 50 min 35 sec) 
Heartbeat CPU 0 instructions: 40000002 cycles: 79827609 heartbeat IPC: 0.391185 cumulative IPC: 0.389925 (Simulation time: 1 hr 10 min 5 sec) 
Heartbeat CPU 0 instructions: 50000001 cycles: 105307239 heartbeat IPC: 0.39247 cumulative IPC: 0.390558 (Simulation time: 1 hr 29 min 49 sec) 
Heartbeat CPU 0 instructions: 60000002 cycles: 131067030 heartbeat IPC: 0.388202 cumulative IPC: 0.390085 (Simulation time: 1 hr 47 min 40 sec) 
Finished CPU 0 instructions: 50000002 cycles: 128177352 cumulative IPC: 0.390085 (Simulation time: 1 hr 47 min 40 sec) 

ChampSim completed all CPUs

Region of Interest Statistics

CPU 0 cumulative IPC: 0.390085 instructions: 50000002 cycles: 128177352
ITLB TOTAL     ACCESS:    8592494  HIT:    8040454  MISS:     552040  HIT %:    93.5753  MISS %:    6.42468   MPKI: 11.0408
ITLB LOAD TRANSLATION ACCESS:    8592494  HIT:    8040454  MISS:     552040  HIT %:    93.5753  MISS %:    6.42468   MPKI: 11.0408
ITLB PREFETCH  REQUESTED:          0  ISSUED:          0  USEFUL:          0  USELESS:          0
ITLB USEFUL LOAD PREFETCHES:          0 PREFETCH ISSUED TO LOWER LEVEL:          0  ACCURACY: -nan
ITLB TIMELY PREFETCHES:          0 LATE PREFETCHES: 0 DROPPED PREFETCHES: 0
ITLB PREFETCHES SAME FILL-ORIGIN LEVEL: 0 DIFFERENT FILL-ORIGIN LEVEL: 0
ITLB AVERAGE MISS LATENCY: 9.14937 cycles
ITLB RQ	ACCESS:   10311921	FORWARD:          0	MERGED:    1580279	TO_CACHE:    8731642

DTLB TOTAL     ACCESS:   12556113  HIT:   11995802  MISS:     560311  HIT %:    95.5375  MISS %:    4.46246   MPKI: 11.2062
DTLB LOAD TRANSLATION ACCESS:   12556113  HIT:   11995802  MISS:     560311  HIT %:    95.5375  MISS %:    4.46246   MPKI: 11.2062
DTLB PREFETCH  REQUESTED:          0  ISSUED:          0  USEFUL:          0  USELESS:          0
DTLB USEFUL LOAD PREFETCHES:          0 PREFETCH ISSUED TO LOWER LEVEL:          0  ACCURACY: -nan
DTLB TIMELY PREFETCHES:          0 LATE PREFETCHES: 0 DROPPED PREFETCHES: 0
DTLB PREFETCHES SAME FILL-ORIGIN LEVEL: 0 DIFFERENT FILL-ORIGIN LEVEL: 0
DTLB AVERAGE MISS LATENCY: 12.2031 cycles
DTLB RQ	ACCESS:   15691168	FORWARD:          0	MERGED:    3116373	TO_CACHE:   12574795

STLB TOTAL     ACCESS:    1112351  HIT:    1098515  MISS:      13836  HIT %:    98.7561  MISS %:    1.24385   MPKI: 0.27672
STLB LOAD TRANSLATION ACCESS:    1112351  HIT:    1098515  MISS:      13836  HIT %:    98.7561  MISS %:    1.24385   MPKI: 0.27672
STLB PREFETCH  REQUESTED:          0  ISSUED:          0  USEFUL:          0  USELESS:          0
STLB USEFUL LOAD PREFETCHES:          0 PREFETCH ISSUED TO LOWER LEVEL:          0  ACCURACY: -nan
STLB TIMELY PREFETCHES:          0 LATE PREFETCHES: 0 DROPPED PREFETCHES: 0
STLB PREFETCHES SAME FILL-ORIGIN LEVEL: 0 DIFFERENT FILL-ORIGIN LEVEL: 0
STLB AVERAGE MISS LATENCY: 134.785 cycles
STLB RQ	ACCESS:    1112351	FORWARD:          0	MERGED:          0	TO_CACHE:    1112351

STLB Hit, L1D data hit: 0
STLB Hit, L2C data hit: 0
STLB Hit, LLC data hit: 0
STLB Hit, LLC data miss: 0
STLB STLB hints to L2: 0
L1D TOTAL     ACCESS:   15206414  HIT:   13959171  MISS:    1247243  HIT %:    91.7979  MISS %:    8.20208   MPKI: 24.9449
L1D LOAD      ACCESS:    8705858  HIT:    7763714  MISS:     942144  HIT %:     89.178  MISS %:     10.822   MPKI: 18.8429
L1D RFO       ACCESS:    6500556  HIT:    6195457  MISS:     305099  HIT %:    95.3066  MISS %:    4.69343   MPKI: 6.10198
L1D PREFETCH  REQUESTED:          0  ISSUED:          0  USEFUL:          0  USELESS:          0
L1D USEFUL LOAD PREFETCHES:          0 PREFETCH ISSUED TO LOWER LEVEL:          0  ACCURACY: -nan
L1D TIMELY PREFETCHES:          0 LATE PREFETCHES: 0 DROPPED PREFETCHES: 0
L1D PREFETCHES SAME FILL-ORIGIN LEVEL: 0 DIFFERENT FILL-ORIGIN LEVEL: 0
L1D AVERAGE MISS LATENCY: 29.7753 cycles
L1D RQ	ACCESS:   11873958	FORWARD:          0	MERGED:    3004543	TO_CACHE:    8747289
L1D WQ	ACCESS:    6988846	FORWARD:     122126	MERGED:      44967	TO_CACHE:    6943879

L1D UNIQUE REGIONS ACCESSED: 0
L1D REGIONS CONFLICTS: 0
L1D Cross Page Prefetch Requests: 0
L1D Same Page Prefetch Requests: 0
L1D ROI Sum of L1D PQ occupancy: 0
L1D PREFETCHES PUSHED FROM L2C: 0
L1I TOTAL     ACCESS:    9785569  HIT:    6778294  MISS:    3007275  HIT %:    69.2683  MISS %:    30.7317   MPKI: 60.1455
L1I LOAD      ACCESS:    9785569  HIT:    6778294  MISS:    3007275  HIT %:    69.2683  MISS %:    30.7317   MPKI: 60.1455
L1I PREFETCH  REQUESTED:          0  ISSUED:          0  USEFUL:          0  USELESS:          0
L1I USEFUL LOAD PREFETCHES:          0 PREFETCH ISSUED TO LOWER LEVEL:          0  ACCURACY: -nan
L1I TIMELY PREFETCHES:          0 LATE PREFETCHES: 0 DROPPED PREFETCHES: 0
L1I PREFETCHES SAME FILL-ORIGIN LEVEL: 0 DIFFERENT FILL-ORIGIN LEVEL: 0
L1I AVERAGE MISS LATENCY: 16.5912 cycles
L1I RQ	ACCESS:   14050800	FORWARD:          0	MERGED:    3738879	TO_CACHE:   10311921

BTB TOTAL     ACCESS:    6102276  HIT:    4206282  MISS:    1895994  HIT %:    68.9297  MISS %:    31.0703   MPKI: 37.9199
BTB BRANCH_DIRECT_JUMP	ACCESS:     546758  HIT:     394739  MISS:     152019
BTB BRANCH_INDIRECT	ACCESS:     172660  HIT:     135870  MISS:      36790
BTB BRANCH_CONDITIONAL	ACCESS:    2968197  HIT:    2446713  MISS:     521484
BTB BRANCH_DIRECT_CALL	ACCESS:    1018538  HIT:     647411  MISS:     371127
BTB BRANCH_INDIRECT_CALL	ACCESS:     188789  HIT:     117745  MISS:      71044
BTB BRANCH_RETURN	ACCESS:    1207334  HIT:     463804  MISS:     743530
BTB BRANCH_OTHER ACCESS:          0  HIT:          0  MISS:          0

L2C TOTAL     ACCESS:    5407189  HIT:    4997258  MISS:     409931  HIT %:    92.4188  MISS %:    7.58122   MPKI: 8.19862
L2C LOAD      ACCESS:    3949417  HIT:    3590483  MISS:     358934  HIT %:    90.9117  MISS %:    9.08828   MPKI: 7.17868
L2C DATA LOAD MPKI: 2.36984
L2C INSTRUCTION LOAD MPKI: 4.80884
L2C RFO       ACCESS:     305097  HIT:     270941  MISS:      34156  HIT %:    88.8049  MISS %:    11.1951   MPKI: 0.68312
L2C PREFETCH  ACCESS:     553685  HIT:     551799  MISS:       1886  HIT %:    99.6594  MISS %:   0.340627   MPKI: 0.03772
L2C DATA PREFETCH MPKI: 0.03772
L2C INSTRUCTION PREFETCH MPKI: 0
L2C WRITEBACK ACCESS:     578019  HIT:     573786  MISS:       4233  HIT %:    99.2677  MISS %:   0.732329   MPKI: 0.08466
L2C LOAD TRANSLATION ACCESS:      20971  HIT:      10249  MISS:      10722  HIT %:    48.8723  MISS %:    51.1277   MPKI: 0.21444
L2C PREFETCH  REQUESTED:    1080667  ISSUED:    1080667  USEFUL:        881  USELESS:        984
L2C USEFUL LOAD PREFETCHES:        881 PREFETCH ISSUED TO LOWER LEVEL:     494488  ACCURACY: 0.178164
L2C TIMELY PREFETCHES:        881 LATE PREFETCHES: 564 DROPPED PREFETCHES: 0
L2C PREFETCHES SAME FILL-ORIGIN LEVEL: 2450 DIFFERENT FILL-ORIGIN LEVEL: 492038
L2C AVERAGE MISS LATENCY: 66.0038 cycles
L2C RQ	ACCESS:    4275487	FORWARD:          0	MERGED:          0	TO_CACHE:    4275485
L2C WQ	ACCESS:     578019	FORWARD:          2	MERGED:          0	TO_CACHE:     578019
L2C PQ	ACCESS:    1080667	FORWARD:          0	MERGED:      27554	TO_CACHE:    1053113

L2C Instructions Evicting Data 74445
L2C Translations Evicting Data 6661
L2C Data Evicting Data 76970
L2C Instructions Evicting Instructions 162846
L2C Translations Evicting Instructions 3038
L2C Data Evicting Instructions 70963
L2C Instructions Evicting Translations 3151
L2C Translations Evicting Translations 1023
L2C Data Evicting Translations 6598
L2C Dense regions hint from L2: 0
PSCL5 TOTAL     ACCESS:      13836  HIT:      13836  MISS:          0  HIT %:        100  MISS %:          0   MPKI: 0
PSCL5 LOAD TRANSLATION ACCESS:      13836  HIT:      13836  MISS:          0  HIT %:        100  MISS %:          0   MPKI: 0
PSCL5 PREFETCH  REQUESTED:          0  ISSUED:          0  USEFUL:          0  USELESS:          0
PSCL5 USEFUL LOAD PREFETCHES:          0 PREFETCH ISSUED TO LOWER LEVEL:          0  ACCURACY: -nan
PSCL5 TIMELY PREFETCHES:          0 LATE PREFETCHES: 0 DROPPED PREFETCHES: 0
PSCL5 PREFETCHES SAME FILL-ORIGIN LEVEL: 0 DIFFERENT FILL-ORIGIN LEVEL: 0

PSCL4 TOTAL     ACCESS:      13206  HIT:      13033  MISS:        173  HIT %:      98.69  MISS %:    1.31001   MPKI: 0.00346
PSCL4 LOAD TRANSLATION ACCESS:      13206  HIT:      13033  MISS:        173  HIT %:      98.69  MISS %:    1.31001   MPKI: 0.00346
PSCL4 PREFETCH  REQUESTED:          0  ISSUED:          0  USEFUL:          0  USELESS:          0
PSCL4 USEFUL LOAD PREFETCHES:          0 PREFETCH ISSUED TO LOWER LEVEL:          0  ACCURACY: -nan
PSCL4 TIMELY PREFETCHES:          0 LATE PREFETCHES: 0 DROPPED PREFETCHES: 0
PSCL4 PREFETCHES SAME FILL-ORIGIN LEVEL: 0 DIFFERENT FILL-ORIGIN LEVEL: 0

PSCL3 TOTAL     ACCESS:      13807  HIT:      13634  MISS:        173  HIT %:     98.747  MISS %:    1.25299   MPKI: 0.00346
PSCL3 LOAD TRANSLATION ACCESS:      13807  HIT:      13634  MISS:        173  HIT %:     98.747  MISS %:    1.25299   MPKI: 0.00346
PSCL3 PREFETCH  REQUESTED:          0  ISSUED:          0  USEFUL:          0  USELESS:          0
PSCL3 USEFUL LOAD PREFETCHES:          0 PREFETCH ISSUED TO LOWER LEVEL:          0  ACCURACY: -nan
PSCL3 TIMELY PREFETCHES:          0 LATE PREFETCHES: 0 DROPPED PREFETCHES: 0
PSCL3 PREFETCHES SAME FILL-ORIGIN LEVEL: 0 DIFFERENT FILL-ORIGIN LEVEL: 0

PSCL2 TOTAL     ACCESS:      13836  HIT:       7041  MISS:       6795  HIT %:     50.889  MISS %:     49.111   MPKI: 0.1359
PSCL2 LOAD TRANSLATION ACCESS:      13836  HIT:       7041  MISS:       6795  HIT %:     50.889  MISS %:     49.111   MPKI: 0.1359
PSCL2 PREFETCH  REQUESTED:          0  ISSUED:          0  USEFUL:          0  USELESS:          0
PSCL2 USEFUL LOAD PREFETCHES:          0 PREFETCH ISSUED TO LOWER LEVEL:          0  ACCURACY: -nan
PSCL2 TIMELY PREFETCHES:          0 LATE PREFETCHES: 0 DROPPED PREFETCHES: 0
PSCL2 PREFETCHES SAME FILL-ORIGIN LEVEL: 0 DIFFERENT FILL-ORIGIN LEVEL: 0

LLC TOTAL     ACCESS:     940579  HIT:     881387  MISS:      59192  HIT %:    93.7069  MISS %:    6.29314   MPKI: 1.18384
LLC LOAD      ACCESS:     358370  HIT:     329499  MISS:      28871  HIT %:    91.9438  MISS %:     8.0562   MPKI: 0.57742
LLC RFO       ACCESS:      34156  HIT:      31424  MISS:       2732  HIT %:    92.0014  MISS %:    7.99859   MPKI: 0.05464
LLC PREFETCH  ACCESS:     478483  HIT:     453630  MISS:      24853  HIT %:    94.8059  MISS %:    5.19412   MPKI: 0.49706
LLC WRITEBACK ACCESS:      58848  HIT:      58507  MISS:        341  HIT %:    99.4205  MISS %:   0.579459   MPKI: 0.00682
LLC LOAD TRANSLATION ACCESS:      10722  HIT:       8327  MISS:       2395  HIT %:    77.6627  MISS %:    22.3373   MPKI: 0.0479
LLC PREFETCH  REQUESTED:          0  ISSUED:          0  USEFUL:       4431  USELESS:      19191
LLC USEFUL LOAD PREFETCHES:       4431 PREFETCH ISSUED TO LOWER LEVEL:      32837  ACCURACY: 13.4939
LLC TIMELY PREFETCHES:       4431 LATE PREFETCHES: 7984 DROPPED PREFETCHES: 0
LLC PREFETCHES SAME FILL-ORIGIN LEVEL: 32718 DIFFERENT FILL-ORIGIN LEVEL: 0
LLC AVERAGE MISS LATENCY: 454.144 cycles
LLC RQ	ACCESS:     403248	FORWARD:          0	MERGED:          0	TO_CACHE:     403248
LLC WQ	ACCESS:      58848	FORWARD:          0	MERGED:          0	TO_CACHE:      58848
LLC PQ	ACCESS:     494488	FORWARD:          0	MERGED:        965	TO_CACHE:     493523

LLC Dense regions hint to LLC: 0

RAW hits: 583026
Loads Generated: 12456984
Loads sent to L1D: 11873958
Stores Generated: 6988844
Stores sent to L1D: 6988846
Major fault: 0 Minor fault: 5588
Allocated PAGES: 5588
 All Calls: 1135920
 Critical Calls: 1135920
------------------
Depth Distribution
------------------
depth 0: 0
depth 1: 1149810
depth 2: 117159
depth 3: 29329
depth 4: 6032
depth 5: 483
depth 6: 95
depth 7: 69
depth 8: 49
depth 9: 34
depth 10: 17
depth 11: 5
depth 12: 1
depth 13: 0
depth 14: 0
depth 15: 0
depth 16: 0
depth 17: 0
depth 18: 0
depth 19: 0
depth 20: 0
depth 21: 0
depth 22: 0
depth 23: 0
depth 24: 0
depth 25: 0
depth 26: 0
depth 27: 0
depth 28: 0
depth 29: 0
Total: 1303083
-----------------------------
-----------------------------
	Captured at Filter
-----------------------------
depth 0: 0
depth 1: 54292
depth 2: 29387
depth 3: 17265
depth 4: 6336
depth 5: 425
depth 6: 38
depth 7: 10
depth 8: 2
depth 9: 0
depth 10: 0
depth 11: 0
depth 12: 0
depth 13: 0
depth 14: 0
depth 15: 0
depth 16: 0
depth 17: 0
depth 18: 0
depth 19: 0
depth 20: 0
depth 21: 0
depth 22: 0
depth 23: 0
depth 24: 0
depth 25: 0
depth 26: 0
depth 27: 0
depth 28: 0
depth 29: 0
-----------------------------
-----------------------------
		Lost at Page
-----------------------------
depth 0: 0
depth 1: 78804
depth 2: 5976
depth 3: 1464
depth 4: 621
depth 5: 55
depth 6: 11
depth 7: 5
depth 8: 2
depth 9: 0
depth 10: 0
depth 11: 0
depth 12: 0
depth 13: 0
depth 14: 0
depth 15: 0
depth 16: 0
depth 17: 0
depth 18: 0
depth 19: 0
depth 20: 0
depth 21: 0
depth 22: 0
depth 23: 0
depth 24: 0
depth 25: 0
depth 26: 0
depth 27: 0
depth 28: 0
depth 29: 0
-----------------------------
-----------------------------
	Lost due to PQ Size
-----------------------------
3454
-----------------------------
ST read accesses: 725098
ST write accesses: 217046
PT read accesses: 10363675
PT write accesses: 906918
FILTER read accesses: 2504889
FILTER write accesses: 445296
GHR read accesses: 2265139
GHR write accesses: 68535
GHR counter read accesses: 9434564
GHR counter write accesses: 971023
ST tag read accesses: 468832201
ST tag write accesses: 78548959

DRAM Statistics
 CHANNEL 0
 RQ ROW_BUFFER_HIT:      16940  ROW_BUFFER_MISS:      41911
 DBUS_CONGESTED:      46628
 WQ ROW_BUFFER_HIT:        453  ROW_BUFFER_MISS:       1210  FULL:          0

 AVG_CONGESTED_CYCLE: 140
 All warmup complete: 2
Channel 0 Bank busy for read cycles: 0
Channel 0 Bank busy for write cycles: 0
Channel 0
Rank 0
0banks busy for read cycles: 118625781
0banks busy for write cycles: 1130
1banks busy for read cycles: 3094852
1banks busy for write cycles: 320777
2banks busy for read cycles: 2209501
2banks busy for write cycles: 99536
3banks busy for read cycles: 1647628
3banks busy for write cycles: 33322
4banks busy for read cycles: 1005077
4banks busy for write cycles: 7490
5banks busy for read cycles: 547986
5banks busy for write cycles: 1993
6banks busy for read cycles: 216571
6banks busy for write cycles: 218
7banks busy for read cycles: 69175
7banks busy for write cycles: 696
8banks busy for read cycles: 284917
8banks busy for write cycles: 10703

CPU 0 Branch Prediction Accuracy: 91.8928% MPKI: 15.1591 Average ROB Occupancy at Mispredict: 19.7904
Branch types
NOT_BRANCH: 40650622 81.3012%
BRANCH_DIRECT_JUMP: 546758 1.09352%
BRANCH_INDIRECT: 172660 0.34532%
BRANCH_CONDITIONAL: 6215041 12.4301%
BRANCH_DIRECT_CALL: 1018538 2.03708%
BRANCH_INDIRECT_CALL: 188789 0.377578%
BRANCH_RETURN: 1207334 2.41467%
BRANCH_OTHER: 0 0%

@sumon_overall_L1D         0         0         0         0         0         0
@Sumon_Early_by_class_L1D         0         0         0         0
@Sumon_Late_by_class_L1D         0         0         0         0

@Sumon_Early_by_cycle_L1D         0         0         0         0         0         0         0         0         0         0         0         0
@Sumon_Late_by_cycle_L1D         0         0         0         0         0         0         0         0         0         0         0         0
@Sumon_Early_stream_L1D         0         0         0         0         0         0         0         0         0         0         0         0
@Sumon_Early_CS_L1D         0         0         0         0         0         0         0         0         0         0         0         0
@Sumon_Early_CPLX_L1D         0         0         0         0         0         0         0         0         0         0         0         0
@Sumon_Late_stream_L1D         0         0         0         0         0         0         0         0         0         0         0         0
@Sumon_Late_CS_L1D         0         0         0         0         0         0         0         0         0         0         0         0
@Sumon_Late_CPLX_L1D         0         0         0         0         0         0         0         0         0         0         0         0
@sumon_overall_L2C       881       564       984      1886   1080667   1080667
@Sumon_Early_by_class_L2C         0         0         0         0
@Sumon_Late_by_class_L2C         0         0         0         0

@Sumon_Early_by_cycle_L2C       437        29        23         3        37       257        68         2        10         1         3        11
@Sumon_Late_by_cycle_L2C       230       302        32         0         0         0         0         0         0         0         0         0
@Sumon_Early_stream_L2C         0         0         0         0         0         0         0         0         0         0         0         0
@Sumon_Early_CS_L2C         0         0         0         0         0         0         0         0         0         0         0         0
@Sumon_Early_CPLX_L2C         0         0         0         0         0         0         0         0         0         0         0         0
@Sumon_Late_stream_L2C         0         0         0         0         0         0         0         0         0         0         0         0
@Sumon_Late_CS_L2C         0         0         0         0         0         0         0         0         0         0         0         0
@Sumon_Late_CPLX_L2C         0         0         0         0         0         0         0         0         0         0         0         0
DRAM PAGES: 1048576
Allocated PAGES: 5588
