
*** ChampSim Multicore Out-of-Order Simulator ***

Warmup Instructions: 50000000
Simulation Instructions: 50000000
Number of CPUs: 1
LLC sets: 2048
LLC ways: 16
Off-chip DRAM Size: 4096 MB Channels: 1 Width: 64-bit Data Rate: 6400 MT/s
CPU 0 runs ../../biswa/SPEC2017Traces/603.bwaves_s-2609B.champsimtrace.xz
.xz
CPU 0 Bimodal branch predictor
BTB has LRU replacement policy
ITLB has LRU replacement policy
DTLB has LRU replacement policy
STLB has LRU replacement policy
L1I has LRU replacement policy
IP Table Entries: 256
L1D has LRU replacement policy
IP_Table L2 entries: 256
Initialize DRRIP state for L2C
Initialize Hawkeye state
epoch: 1000
next table: 1064
cur table: 1643
epoch: 1000
next table: 1073
cur table: 1064
epoch: 1000
next table: 1063
cur table: 1073
epoch: 1000
next table: 1069
cur table: 1063
epoch: 1000
next table: 1061
cur table: 1069
epoch: 1000
next table: 1058
cur table: 1061
epoch: 1000
next table: 1067
cur table: 1058
epoch: 1000
next table: 1064
cur table: 1067
epoch: 1000
next table: 1062
cur table: 1064
epoch: 1000
next table: 1062
cur table: 1062
epoch: 1000
next table: 1058
cur table: 1062
epoch: 1000
next table: 1064
cur table: 1058
epoch: 1000
next table: 1067
cur table: 1064
epoch: 1000
next table: 1067
cur table: 1067
epoch: 1000
next table: 1060
cur table: 1067
epoch: 1000
next table: 1058
cur table: 1060
epoch: 1000
next table: 1075
cur table: 1058
epoch: 1000
next table: 1059
cur table: 1075
epoch: 1000
next table: 1083
cur table: 1059
epoch: 1000
next table: 1059
cur table: 1083
epoch: 1000
next table: 1064
cur table: 1059
epoch: 1000
next table: 1074
cur table: 1064
epoch: 1000
next table: 1056
cur table: 1074
epoch: 1000
next table: 1070
cur table: 1056
epoch: 1000
next table: 1059
cur table: 1070
epoch: 1000
next table: 1075
cur table: 2640
epoch: 1000
next table: 1069
cur table: 1059
epoch: 1000
next table: 1053
cur table: 1075
epoch: 1000
next table: 1078
cur table: 1069
epoch: 1000
next table: 1042
cur table: 1053
epoch: 1000
next table: 1053
cur table: 1078
epoch: 1000
next table: 1046
cur table: 1042
epoch: 1000
next table: 1059
cur table: 1053
epoch: 1000
next table: 1048
cur table: 1046
epoch: 1000
next table: 1065
cur table: 1059
epoch: 1000
next table: 1047
cur table: 1048
epoch: 1000
next table: 1059
cur table: 1065
epoch: 1000
next table: 1047
cur table: 1047
epoch: 1000
next table: 1068
cur table: 1059
epoch: 1000
next table: 1048
cur table: 1047
epoch: 1000
next table: 1067
cur table: 1068
epoch: 1000
next table: 1040
cur table: 1048
epoch: 1000
next table: 1058
cur table: 1067
epoch: 1000
next table: 1053
cur table: 1040
epoch: 1000
next table: 1072
cur table: 1058
epoch: 1000
next table: 1042
cur table: 1053
epoch: 1000
next table: 1057
cur table: 1072
epoch: 1000
next table: 1050
cur table: 1042
epoch: 1000
next table: 1072
cur table: 1057
epoch: 1000
next table: 1043
cur table: 1050
epoch: 1000
next table: 1060
cur table: 1072
epoch: 1000
next table: 1047
cur table: 1043
epoch: 1000
next table: 1063
cur table: 1060
epoch: 1000
next table: 1053
cur table: 1047
epoch: 1000
next table: 1074
cur table: 1063
epoch: 1000
next table: 1049
cur table: 1053
epoch: 1000
next table: 1064
cur table: 1074
epoch: 1000
next table: 1048
cur table: 1049
epoch: 1000
next table: 1073
cur table: 1064
epoch: 1000
next table: 1049
cur table: 1048
epoch: 1000
next table: 1062
cur table: 1073
epoch: 1000
next table: 1041
cur table: 1049
epoch: 1000
next table: 1061
cur table: 1062
epoch: 1000
next table: 1050
cur table: 1041
epoch: 1000
next table: 1068
cur table: 1061
epoch: 1000
next table: 1045
cur table: 1050
epoch: 1000
next table: 1062
cur table: 1068
epoch: 1000
next table: 1052
cur table: 1045
epoch: 1000
next table: 1066
cur table: 1062
epoch: 1000
next table: 1046
cur table: 1052
epoch: 1000
next table: 1065
cur table: 1066
epoch: 1000
next table: 1043
cur table: 1046
epoch: 1000
next table: 1061
cur table: 1065
epoch: 1000
next table: 1055
cur table: 1043
epoch: 1000
next table: 1076
cur table: 1061
epoch: 1000
next table: 1052
cur table: 1055
epoch: 1000
next table: 1064
cur table: 1076
epoch: 1000
next table: 1055
cur table: 1052
epoch: 1000
next table: 1078
cur table: 1064
epoch: 1000
next table: 1048
cur table: 1055
epoch: 1000
next table: 1062
cur table: 1078
epoch: 1000
next table: 1044
cur table: 1048
epoch: 1000
next table: 1066
cur table: 1062
epoch: 1000
next table: 1048
cur table: 1044
epoch: 1000
next table: 1064
cur table: 1066
epoch: 1000
next table: 1048
cur table: 1048
epoch: 1000
next table: 1062
cur table: 1064
epoch: 1000
next table: 1048
cur table: 1048
epoch: 1000
next table: 1065
cur table: 1062
epoch: 1000
next table: 1047
cur table: 1048
epoch: 1000
next table: 1064
cur table: 1065
epoch: 1000
next table: 1051
cur table: 1047
epoch: 1000
next table: 1070
cur table: 1064
epoch: 1000
next table: 1043
cur table: 1051
epoch: 1000
next table: 1062
cur table: 1070
epoch: 1000
next table: 1049
cur table: 1043
epoch: 1000
next table: 1062
cur table: 1062
epoch: 1000
next table: 1043
cur table: 1049
epoch: 1000
next table: 1065
cur table: 1062
epoch: 1000
next table: 1047
cur table: 1043
epoch: 1000
next table: 1058
cur table: 1065
epoch: 1000
next table: 1047
cur table: 1047
epoch: 1000
next table: 1067
cur table: 1058
epoch: 1000
next table: 1050
cur table: 1047
epoch: 1000
next table: 1065
cur table: 1067
epoch: 1000
next table: 1056
cur table: 1050
epoch: 1000
next table: 1074
cur table: 1065
epoch: 1000
next table: 1052
cur table: 1056
epoch: 1000
next table: 1069
cur table: 1074
epoch: 1000
next table: 1046
cur table: 1052
epoch: 1000
next table: 1063
cur table: 1069
epoch: 1000
next table: 1047
cur table: 1046
epoch: 1000
next table: 1064
cur table: 1063
epoch: 1000
next table: 1046
cur table: 1047
epoch: 1000
next table: 1064
cur table: 1064
epoch: 1000
next table: 1051
cur table: 1046
epoch: 1000
next table: 1062
cur table: 1064
epoch: 1000
next table: 1048
cur table: 1051
epoch: 1000
next table: 1068
cur table: 1062
epoch: 1000
next table: 1044
cur table: 1048
epoch: 1000
next table: 1058
cur table: 1068
epoch: 1000
next table: 1051
cur table: 1044
epoch: 1000
next table: 1069
cur table: 1058
epoch: 1000
next table: 1048
cur table: 1051
epoch: 1000
next table: 1069
cur table: 1069
epoch: 1000
next table: 1051
cur table: 1048
epoch: 1000
next table: 1066
cur table: 1069
epoch: 1000
next table: 1051
cur table: 1051
epoch: 1000
next table: 1073
cur table: 1066
epoch: 1000
next table: 1046
cur table: 1051
epoch: 1000
next table: 1062
cur table: 1073
epoch: 1000
next table: 1050
cur table: 1046
epoch: 1000
next table: 1064
cur table: 1062
epoch: 1000
next table: 1050
cur table: 1050
epoch: 1000
next table: 1067
cur table: 1064
epoch: 1000
next table: 1044
cur table: 1050
epoch: 1000
next table: 1057
cur table: 1067
epoch: 1000
next table: 1048
cur table: 1044
epoch: 1000
next table: 1069
cur table: 1057
epoch: 1000
next table: 1048
cur table: 1048
epoch: 1000
next table: 1063
cur table: 1069
epoch: 1000
next table: 1046
cur table: 1048
epoch: 1000
next table: 1064
cur table: 1063
epoch: 1000
next table: 1052
cur table: 1046
epoch: 1000
next table: 1069
cur table: 1064
epoch: 1000
next table: 1042
cur table: 1052
epoch: 1000
next table: 1057
cur table: 1069
epoch: 1000
next table: 1053
cur table: 1042
epoch: 1000
next table: 1068
cur table: 1057
epoch: 1000
next table: 1043
cur table: 1053
epoch: 1000
next table: 1062
cur table: 1068
epoch: 1000
next table: 1047
cur table: 1043
epoch: 1000
next table: 1062
cur table: 1062
epoch: 1000
next table: 1049
cur table: 1047
epoch: 1000
next table: 1071
cur table: 1062
epoch: 1000
next table: 1046
cur table: 1049
epoch: 1000
next table: 1061
cur table: 1071
epoch: 1000
next table: 1049
cur table: 1046
epoch: 1000
next table: 1070
cur table: 1061
epoch: 1000
next table: 1047
cur table: 1049
epoch: 1000
next table: 1061
cur table: 1070
epoch: 1000
next table: 1043
cur table: 1047
epoch: 1000
next table: 1065
cur table: 1061
epoch: 1000
next table: 1051
cur table: 1043
epoch: 1000
next table: 1068
cur table: 1065
epoch: 1000
next table: 1042
cur table: 1051
epoch: 1000
next table: 1057
cur table: 1068
epoch: 1000
next table: 1051
cur table: 1042
epoch: 1000
next table: 1069
cur table: 1057
epoch: 1000
next table: 1043
cur table: 1051
epoch: 1000
next table: 1059
cur table: 1069
epoch: 1000
next table: 1045
cur table: 1043
epoch: 1000
next table: 1062
cur table: 1059
epoch: 1000
next table: 1055
cur table: 1045
epoch: 1000
next table: 1074
cur table: 1062
epoch: 1000
next table: 1048
cur table: 1055
epoch: 1000
next table: 1061
cur table: 1074
epoch: 1000
next table: 1052
cur table: 1048
epoch: 1000
next table: 1076
cur table: 1061
epoch: 1000
next table: 1053
cur table: 1052
epoch: 1000
next table: 1066
cur table: 1076
epoch: 1000
next table: 1048
cur table: 1053
epoch: 1000
next table: 1070
cur table: 1066
epoch: 1000
next table: 1051
cur table: 1048
epoch: 1000
next table: 1069
cur table: 1070
epoch: 1000
next table: 1044
cur table: 1051
epoch: 1000
next table: 1058
cur table: 1069
epoch: 1000
next table: 1047
cur table: 1044
epoch: 1000
next table: 1065
cur table: 1058
epoch: 1000
next table: 1047
cur table: 1047
epoch: 1000
next table: 1062
cur table: 1065
epoch: 1000
next table: 1048
cur table: 1047
epoch: 1000
next table: 1064
cur table: 1062
epoch: 1000
next table: 1051
cur table: 1048
epoch: 1000
next table: 1066
cur table: 1064
epoch: 1000
next table: 1049
cur table: 1051
epoch: 1000
next table: 1062
cur table: 1066
epoch: 1000
next table: 1044
cur table: 1049
epoch: 1000
next table: 1066
cur table: 1062
epoch: 1000
next table: 1053
cur table: 1044
epoch: 1000
next table: 1066
cur table: 1066
epoch: 1000
next table: 1046
cur table: 1053
epoch: 1000
next table: 1064
cur table: 1066
epoch: 1000
next table: 1049
cur table: 1046
epoch: 1000
next table: 1067
cur table: 1064
epoch: 1000
next table: 1052
cur table: 1049
epoch: 1000
next table: 1068
cur table: 1067
epoch: 1000
next table: 1045
cur table: 1052
epoch: 1000
next table: 1074
cur table: 1068
epoch: 1000
next table: 1048
cur table: 1045
epoch: 1000
next table: 1066
cur table: 1074
epoch: 1000
next table: 1048
cur table: 1048
epoch: 1000
next table: 1061
cur table: 1066
epoch: 1000
next table: 1044
cur table: 1048
epoch: 1000
next table: 1065
cur table: 1061
epoch: 1000
next table: 1047
cur table: 1044
epoch: 1000
next table: 1059
cur table: 1065
epoch: 1000
next table: 1044
cur table: 1047
epoch: 1000
next table: 1068
cur table: 1059
epoch: 1000
next table: 1051
cur table: 1044
epoch: 1000
next table: 1066
cur table: 1068
epoch: 1000
next table: 1041
cur table: 1051
epoch: 1000
next table: 1059
cur table: 1066
epoch: 1000
next table: 1047
cur table: 1041
epoch: 1000
next table: 1066
cur table: 1059
epoch: 1000
next table: 1050
cur table: 1047
epoch: 1000
next table: 1067
cur table: 1066
epoch: 1000
next table: 1055
cur table: 1050
epoch: 1000
next table: 1071
cur table: 1067
epoch: 1000
next table: 1053
cur table: 1055
epoch: 1000
next table: 1074
cur table: 1071
epoch: 1000
next table: 1050
cur table: 1053
epoch: 1000
next table: 1069
cur table: 1074
epoch: 1000
next table: 1049
cur table: 1050
epoch: 1000
next table: 1069
cur table: 1069
epoch: 1000
next table: 1044
cur table: 1049
epoch: 1000
next table: 1054
cur table: 1069
epoch: 1000
next table: 1046
cur table: 1044
epoch: 1000
next table: 1066
cur table: 1054
epoch: 1000
next table: 1050
cur table: 1046
epoch: 1000
next table: 1066
cur table: 1066
epoch: 1000
next table: 1046
cur table: 1050
epoch: 1000
next table: 1068
cur table: 1066
epoch: 1000
next table: 1053
cur table: 1046
epoch: 1000
next table: 1066
cur table: 1068
epoch: 1000
next table: 1041
cur table: 1053
epoch: 1000
next table: 1060
cur table: 1066
epoch: 1000
next table: 1054
cur table: 1041
epoch: 1000
next table: 1073
cur table: 1060
epoch: 1000
next table: 1043
cur table: 1054
epoch: 1000
next table: 1065
cur table: 1073
epoch: 1000
next table: 1053
cur table: 1043
epoch: 1000
next table: 1067
cur table: 1065
epoch: 1000
next table: 1052
cur table: 1053
epoch: 1000
next table: 1074
cur table: 1067
epoch: 1000
next table: 1049
cur table: 1052
epoch: 1000
next table: 1064
cur table: 1074
epoch: 1000
next table: 1046
cur table: 1049
epoch: 1000
next table: 1069
cur table: 1064
epoch: 1000
next table: 1049
cur table: 1046
epoch: 1000
next table: 1060
cur table: 1069
epoch: 1000
next table: 1045
cur table: 1049
epoch: 1000
next table: 1068
cur table: 1060
epoch: 1000
next table: 1047
cur table: 1045
epoch: 1000
next table: 1062
cur table: 1068
epoch: 1000
next table: 1043
cur table: 1047
epoch: 1000
next table: 1061
cur table: 1062
epoch: 1000
next table: 1051
cur table: 1043
epoch: 1000
next table: 1072
cur table: 1061
epoch: 1000
next table: 1041
cur table: 1051
epoch: 1000
next table: 1057
cur table: 1072
epoch: 1000
next table: 1055
cur table: 1041
epoch: 1000
next table: 1070
cur table: 1057
epoch: 1000
next table: 1043
cur table: 1055
epoch: 1000
next table: 1063
cur table: 1070
epoch: 1000
next table: 1050
cur table: 1043
epoch: 1000
next table: 1065
cur table: 1063
epoch: 1000
next table: 1055
cur table: 1050
epoch: 1000
next table: 1071
cur table: 1065
epoch: 1000
next table: 1047
cur table: 1055
epoch: 1000
next table: 1064
cur table: 1071
epoch: 1000
next table: 1045
cur table: 1047
epoch: 1000
next table: 1068
cur table: 1064
epoch: 1000
next table: 1054
cur table: 1045
epoch: 1000
next table: 1068
cur table: 1068
epoch: 1000
next table: 1043
cur table: 1054
epoch: 1000
next table: 1061
cur table: 1068
epoch: 1000
next table: 1047
cur table: 1043
epoch: 1000
next table: 1066
cur table: 1061
epoch: 1000
next table: 1045
cur table: 1047
epoch: 1000
next table: 1060
cur table: 1066
epoch: 1000
next table: 1046
cur table: 1045
epoch: 1000
next table: 1064
cur table: 1060
epoch: 1000
next table: 1050
cur table: 1046
epoch: 1000
next table: 1070
cur table: 1064
epoch: 1000
next table: 1042
cur table: 1050
epoch: 1000
next table: 1057
cur table: 1070
epoch: 1000
next table: 1043
cur table: 1042
epoch: 1000
next table: 1064
cur table: 1057
epoch: 1000
next table: 1054
cur table: 1043
epoch: 1000
next table: 1068
cur table: 1064
epoch: 1000
next table: 1045
cur table: 1054
epoch: 1000
next table: 1068
cur table: 1068
epoch: 1000
next table: 1060
cur table: 1045
epoch: 1000
next table: 1076
cur table: 1068
epoch: 1000
next table: 1052
cur table: 1060
epoch: 1000
next table: 1065
cur table: 1076
epoch: 1000
next table: 1052
cur table: 1052
epoch: 1000
next table: 1071
cur table: 1065
epoch: 1000
next table: 1042
cur table: 1052
epoch: 1000
next table: 1062
cur table: 1071
epoch: 1000
next table: 1049
cur table: 1042
epoch: 1000
next table: 1059
cur table: 1062
epoch: 1000
next table: 1049
cur table: 1049
epoch: 1000
next table: 1073
cur table: 1059
epoch: 1000
next table: 1048
cur table: 1049
epoch: 1000
next table: 1062
cur table: 1073
epoch: 1000
next table: 1049
cur table: 1048
epoch: 1000
next table: 1066
cur table: 1062
epoch: 1000
next table: 1049
cur table: 1049
epoch: 1000
next table: 1068
cur table: 1066
epoch: 1000
next table: 1043
cur table: 1049
epoch: 1000
next table: 1061
cur table: 1068
epoch: 1000
next table: 1051
cur table: 1043
epoch: 1000
next table: 1074
cur table: 1061
epoch: 1000
next table: 1048
cur table: 1051
epoch: 1000
next table: 1062
cur table: 1074
epoch: 1000
next table: 1048
cur table: 1048
epoch: 1000
next table: 1065
cur table: 1062
epoch: 1000
next table: 1054
cur table: 1048
epoch: 1000
next table: 1074
cur table: 1065
epoch: 1000
next table: 1049
cur table: 1054
epoch: 1000
next table: 1063
cur table: 1074
epoch: 1000
next table: 1047
cur table: 1049
epoch: 1000
next table: 1067
cur table: 1063
epoch: 1000
next table: 1047
cur table: 1047
epoch: 1000
next table: 1063
cur table: 1067
epoch: 1000
next table: 1044
cur table: 1047
Heartbeat CPU 0 instructions: 10000002 cycles: 3308708 heartbeat IPC: 3.02233 cumulative IPC: 3.02233 (Simulation time: 0 hr 9 min 17 sec) 
epoch: 1000
next table: 1065
cur table: 1063
epoch: 1000
next table: 1049
cur table: 1044
epoch: 1000
next table: 1064
cur table: 1065
epoch: 1000
next table: 1051
cur table: 1049
epoch: 1000
next table: 1063
cur table: 1064
epoch: 1000
next table: 1049
cur table: 1051
epoch: 1000
next table: 1065
cur table: 1063
epoch: 1000
next table: 1042
cur table: 1049
epoch: 1000
next table: 1065
cur table: 1065
epoch: 1000
next table: 1047
cur table: 1042
epoch: 1000
next table: 1065
cur table: 1065
epoch: 1000
next table: 1044
cur table: 1047
epoch: 1000
next table: 1060
cur table: 1065
epoch: 1000
next table: 1053
cur table: 1044
epoch: 1000
next table: 1070
cur table: 1060
epoch: 1000
next table: 1052
cur table: 1053
epoch: 1000
next table: 1068
cur table: 1070
epoch: 1000
next table: 1039
cur table: 1052
epoch: 1000
next table: 1062
cur table: 1068
epoch: 1000
next table: 1050
cur table: 1039
epoch: 1000
next table: 1066
cur table: 1062
epoch: 1000
next table: 1048
cur table: 1050
epoch: 1000
next table: 1060
cur table: 1066
epoch: 1000
next table: 1046
cur table: 1048
epoch: 1000
next table: 1064
cur table: 1060
epoch: 1000
next table: 1052
cur table: 1046
epoch: 1000
next table: 1068
cur table: 1064
epoch: 1000
next table: 1033
cur table: 1052
epoch: 1000
next table: 1060
cur table: 1068
epoch: 1000
next table: 1044
cur table: 1033
epoch: 1000
next table: 1065
cur table: 1060
epoch: 1000
next table: 1048
cur table: 1044
epoch: 1000
next table: 1061
cur table: 1065
epoch: 1000
next table: 1046
cur table: 1048
epoch: 1000
next table: 1075
cur table: 1061
epoch: 1000
next table: 1057
cur table: 1046
epoch: 1000
next table: 1068
cur table: 1075
epoch: 1000
next table: 1040
cur table: 1057
epoch: 1000
next table: 1065
cur table: 1068
epoch: 1000
next table: 1051
cur table: 1040
epoch: 1000
next table: 1075
cur table: 1065
epoch: 1000
next table: 1043
cur table: 1051
epoch: 1000
next table: 1065
cur table: 1075
epoch: 1000
next table: 1056
cur table: 1043
epoch: 1000
next table: 1070
cur table: 1065
epoch: 1000
next table: 1047
cur table: 1056
epoch: 1000
next table: 1071
cur table: 1070
epoch: 1000
next table: 1044
cur table: 1047
epoch: 1000
next table: 1059
cur table: 1071
epoch: 1000
next table: 1045
cur table: 1044
epoch: 1000
next table: 1067
cur table: 1059
epoch: 1000
next table: 1048
cur table: 1045
epoch: 1000
next table: 1064
cur table: 1067
epoch: 1000
next table: 1044
cur table: 1048
epoch: 1000
next table: 1059
cur table: 1064
epoch: 1000
next table: 1055
cur table: 1044
epoch: 1000
next table: 1071
cur table: 1059
epoch: 1000
next table: 1040
cur table: 1055
epoch: 1000
next table: 1057
cur table: 1071
epoch: 1000
next table: 1050
cur table: 1040
epoch: 1000
next table: 1065
cur table: 1057
epoch: 1000
next table: 1041
cur table: 1050
epoch: 1000
next table: 1061
cur table: 1065
epoch: 1000
next table: 1049
cur table: 1041
epoch: 1000
next table: 1063
cur table: 1061
epoch: 1000
next table: 1057
cur table: 1049
epoch: 1000
next table: 1075
cur table: 1063
epoch: 1000
next table: 1046
cur table: 1057
epoch: 1000
next table: 1065
cur table: 1075
epoch: 1000
next table: 1052
cur table: 1046
epoch: 1000
next table: 1069
cur table: 1065
epoch: 1000
next table: 1045
cur table: 1052
epoch: 1000
next table: 1066
cur table: 1069
epoch: 1000
next table: 1057
cur table: 1045
epoch: 1000
next table: 1063
cur table: 1066
epoch: 1000
next table: 1049
cur table: 1057
epoch: 1000
next table: 1069
cur table: 1063
epoch: 1000
next table: 1039
cur table: 1049
epoch: 1000
next table: 1063
cur table: 1069
epoch: 1000
next table: 1045
cur table: 1039
epoch: 1000
next table: 1063
cur table: 1063
epoch: 1000
next table: 1046
cur table: 1045
epoch: 1000
next table: 1063
cur table: 1063
epoch: 1000
next table: 1046
cur table: 1046
epoch: 1000
next table: 1058
cur table: 1063
epoch: 1000
next table: 1044
cur table: 1046
epoch: 1000
next table: 1065
cur table: 1058
epoch: 1000
next table: 1040
cur table: 1044
epoch: 1000
next table: 1060
cur table: 1065
epoch: 1000
next table: 1052
cur table: 1040
epoch: 1000
next table: 1067
cur table: 1060
epoch: 1000
next table: 1050
cur table: 1052
epoch: 1000
next table: 1073
cur table: 1067
epoch: 1000
next table: 1055
cur table: 1050
epoch: 1000
next table: 1059
cur table: 1073
epoch: 1000
next table: 1049
cur table: 1055
epoch: 1000
next table: 1080
cur table: 1059
epoch: 1000
next table: 1045
cur table: 1049
epoch: 1000
next table: 1060
cur table: 1080
epoch: 1000
next table: 1045
cur table: 1045
epoch: 1000
next table: 1066
cur table: 1060
epoch: 1000
next table: 1046
cur table: 1045
epoch: 1000
next table: 1059
cur table: 1066
epoch: 1000
next table: 1048
cur table: 1046
epoch: 1000
next table: 1062
cur table: 1059
epoch: 1000
next table: 1051
cur table: 1048
epoch: 1000
next table: 1072
cur table: 1062
epoch: 1000
next table: 1037
cur table: 1051
epoch: 1000
next table: 1060
cur table: 1072
epoch: 1000
next table: 1046
cur table: 1037
epoch: 1000
next table: 1063
cur table: 1060
epoch: 1000
next table: 1046
cur table: 1046
epoch: 1000
next table: 1061
cur table: 1063
epoch: 1000
next table: 1047
cur table: 1046
epoch: 1000
next table: 1063
cur table: 1061
epoch: 1000
next table: 1053
cur table: 1047
epoch: 1000
next table: 1075
cur table: 1063
epoch: 1000
next table: 1041
cur table: 1053
epoch: 1000
next table: 1065
cur table: 1075
epoch: 1000
next table: 1051
cur table: 1041
epoch: 1000
next table: 1065
cur table: 1065
epoch: 1000
next table: 1046
cur table: 1051
epoch: 1000
next table: 1060
cur table: 1065
epoch: 1000
next table: 1042
cur table: 1046
epoch: 1000
next table: 1065
cur table: 1060
epoch: 1000
next table: 1051
cur table: 1042
epoch: 1000
next table: 1067
cur table: 1065
epoch: 1000
next table: 1041
cur table: 1051
epoch: 1000
next table: 1062
cur table: 1067
epoch: 1000
next table: 1050
cur table: 1041
epoch: 1000
next table: 1069
cur table: 1062
epoch: 1000
next table: 1047
cur table: 1050
epoch: 1000
next table: 1060
cur table: 1069
epoch: 1000
next table: 1046
cur table: 1047
epoch: 1000
next table: 1057
cur table: 1060
epoch: 1000
next table: 1045
cur table: 1046
epoch: 1000
next table: 1065
cur table: 1057
epoch: 1000
next table: 1040
cur table: 1045
epoch: 1000
next table: 1057
cur table: 1065
epoch: 1000
next table: 1051
cur table: 1040
epoch: 1000
next table: 1070
cur table: 1057
epoch: 1000
next table: 1048
cur table: 1051
epoch: 1000
next table: 1061
cur table: 1070
epoch: 1000
next table: 1050
cur table: 1048
epoch: 1000
next table: 1065
cur table: 1061
epoch: 1000
next table: 1042
cur table: 1050
epoch: 1000
next table: 1067
cur table: 1065
epoch: 1000
next table: 1046
cur table: 1042
epoch: 1000
next table: 1059
cur table: 1067
epoch: 1000
next table: 1044
cur table: 1046
epoch: 1000
next table: 1064
cur table: 1059
epoch: 1000
next table: 1045
cur table: 1044
epoch: 1000
next table: 1061
cur table: 1064
epoch: 1000
next table: 1047
cur table: 1045
epoch: 1000
next table: 1058
cur table: 1061
epoch: 1000
next table: 1057
cur table: 1047
epoch: 1000
next table: 1073
cur table: 1058
epoch: 1000
next table: 1033
cur table: 1057
epoch: 1000
next table: 1059
cur table: 1073
epoch: 1000
next table: 1048
cur table: 1033
epoch: 1000
next table: 1063
cur table: 1059
epoch: 1000
next table: 1041
cur table: 1048
epoch: 1000
next table: 1067
cur table: 1063
epoch: 1000
next table: 1053
cur table: 1041
epoch: 1000
next table: 1061
cur table: 1067
epoch: 1000
next table: 1057
cur table: 1053
epoch: 1000
next table: 1076
cur table: 1061
epoch: 1000
next table: 1037
cur table: 1057
epoch: 1000
next table: 1063
cur table: 1076
epoch: 1000
next table: 1052
cur table: 1037
epoch: 1000
next table: 1071
cur table: 1063
epoch: 1000
next table: 1049
cur table: 1052
epoch: 1000
next table: 1067
cur table: 1071
epoch: 1000
next table: 1046
cur table: 1049
epoch: 1000
next table: 1056
cur table: 1067
epoch: 1000
next table: 1044
cur table: 1046
epoch: 1000
next table: 1069
cur table: 1056
epoch: 1000
next table: 1044
cur table: 1044
epoch: 1000
next table: 1061
cur table: 1069
epoch: 1000
next table: 1052
cur table: 1044
epoch: 1000
next table: 1063
cur table: 1061
epoch: 1000
next table: 1045
cur table: 1052
epoch: 1000
next table: 1066
cur table: 1063
epoch: 1000
next table: 1045
cur table: 1045
epoch: 1000
next table: 1059
cur table: 1066
epoch: 1000
next table: 1044
cur table: 1045
epoch: 1000
next table: 1072
cur table: 1059
epoch: 1000
next table: 1052
cur table: 1044
epoch: 1000
next table: 1067
cur table: 1072
epoch: 1000
next table: 1049
cur table: 1052
epoch: 1000
next table: 1057
cur table: 1067
epoch: 1000
next table: 1043
cur table: 1049
epoch: 1000
next table: 1068
cur table: 1057
epoch: 1000
next table: 1049
cur table: 1043
epoch: 1000
next table: 1061
cur table: 1068
epoch: 1000
next table: 1048
cur table: 1049
epoch: 1000
next table: 1071
cur table: 1061
epoch: 1000
next table: 1043
cur table: 1048
epoch: 1000
next table: 1058
cur table: 1071
epoch: 1000
next table: 1048
cur table: 1043
epoch: 1000
next table: 1062
cur table: 1058
epoch: 1000
next table: 1040
cur table: 1048
epoch: 1000
next table: 1061
cur table: 1062
epoch: 1000
next table: 1047
cur table: 1040
epoch: 1000
next table: 1062
cur table: 1061
epoch: 1000
next table: 1045
cur table: 1047
epoch: 1000
next table: 1071
cur table: 1062
epoch: 1000
next table: 1050
cur table: 1045
epoch: 1000
next table: 1069
cur table: 1071
epoch: 1000
next table: 1046
cur table: 1050
epoch: 1000
next table: 1061
cur table: 1069
epoch: 1000
next table: 1046
cur table: 1046
epoch: 1000
next table: 1061
cur table: 1061
epoch: 1000
next table: 1046
cur table: 1046
epoch: 1000
next table: 1062
cur table: 1061
epoch: 1000
next table: 1053
cur table: 1046
epoch: 1000
next table: 1072
cur table: 1062
epoch: 1000
next table: 1043
cur table: 1053
epoch: 1000
next table: 1066
cur table: 1072
epoch: 1000
next table: 1050
cur table: 1043
epoch: 1000
next table: 1069
cur table: 1066
epoch: 1000
next table: 1050
cur table: 1050
epoch: 1000
next table: 1065
cur table: 1069
epoch: 1000
next table: 1043
cur table: 1050
epoch: 1000
next table: 1061
cur table: 1065
epoch: 1000
next table: 1046
cur table: 1043
epoch: 1000
next table: 1067
cur table: 1061
epoch: 1000
next table: 1050
cur table: 1046
epoch: 1000
next table: 1060
cur table: 1067
epoch: 1000
next table: 1047
cur table: 1050
epoch: 1000
next table: 1067
cur table: 1060
epoch: 1000
next table: 1051
cur table: 1047
epoch: 1000
next table: 1062
cur table: 1067
epoch: 1000
next table: 1041
cur table: 1051
epoch: 1000
next table: 1065
cur table: 1062
epoch: 1000
next table: 1054
cur table: 1041
epoch: 1000
next table: 1063
cur table: 1065
epoch: 1000
next table: 1040
cur table: 1054
epoch: 1000
next table: 1068
cur table: 1063
epoch: 1000
next table: 1055
cur table: 1040
epoch: 1000
next table: 1069
cur table: 1068
epoch: 1000
next table: 1048
cur table: 1055
epoch: 1000
next table: 1063
cur table: 1069
epoch: 1000
next table: 1050
cur table: 1048
epoch: 1000
next table: 1065
cur table: 1063
epoch: 1000
next table: 1047
cur table: 1050
epoch: 1000
next table: 1074
cur table: 1065
epoch: 1000
next table: 1046
cur table: 1047
epoch: 1000
next table: 1055
cur table: 1074
epoch: 1000
next table: 1048
cur table: 1046
epoch: 1000
next table: 1067
cur table: 1055
epoch: 1000
next table: 1050
cur table: 1048
epoch: 1000
next table: 1066
cur table: 1067
epoch: 1000
next table: 1042
cur table: 1050
epoch: 1000
next table: 1056
cur table: 1066
epoch: 1000
next table: 1050
cur table: 1042
epoch: 1000
next table: 1071
cur table: 1056
epoch: 1000
next table: 1041
cur table: 1050
epoch: 1000
next table: 1057
cur table: 1071
epoch: 1000
next table: 1057
cur table: 1041
epoch: 1000
next table: 1071
cur table: 1057
epoch: 1000
next table: 1043
cur table: 1057
epoch: 1000
next table: 1063
cur table: 1071
epoch: 1000
next table: 1045
cur table: 1043
epoch: 1000
next table: 1055
cur table: 1063
epoch: 1000
next table: 1056
cur table: 1045
epoch: 1000
next table: 1080
cur table: 1055
epoch: 1000
next table: 1045
cur table: 1056
epoch: 1000
next table: 1067
cur table: 1080
epoch: 1000
next table: 1047
cur table: 1045
epoch: 1000
next table: 1066
cur table: 1067
epoch: 1000
next table: 1052
cur table: 1047
epoch: 1000
next table: 1065
cur table: 1066
epoch: 1000
next table: 1041
cur table: 1052
epoch: 1000
next table: 1054
cur table: 1065
epoch: 1000
next table: 1047
cur table: 1041
epoch: 1000
next table: 1073
cur table: 1054
epoch: 1000
next table: 1045
cur table: 1047
epoch: 1000
next table: 1060
cur table: 1073
epoch: 1000
next table: 1047
cur table: 1045
epoch: 1000
next table: 1064
cur table: 1060
epoch: 1000
next table: 1049
cur table: 1047
epoch: 1000
next table: 1066
cur table: 1064
epoch: 1000
next table: 1049
cur table: 1049
epoch: 1000
next table: 1058
cur table: 1066
epoch: 1000
next table: 1043
cur table: 1049
epoch: 1000
next table: 1073
cur table: 1058
epoch: 1000
next table: 1052
cur table: 1043
epoch: 1000
next table: 1064
cur table: 1073
epoch: 1000
next table: 1046
cur table: 1052
epoch: 1000
next table: 1070
cur table: 1064
epoch: 1000
next table: 1058
cur table: 1046
epoch: 1000
next table: 1068
cur table: 1070
epoch: 1000
next table: 1045
cur table: 1058
epoch: 1000
next table: 1061
cur table: 1068
epoch: 1000
next table: 1050
cur table: 1045
epoch: 1000
next table: 1070
cur table: 1061
epoch: 1000
next table: 1046
cur table: 1050
epoch: 1000
next table: 1063
cur table: 1070
epoch: 1000
next table: 1044
cur table: 1046
epoch: 1000
next table: 1060
cur table: 1063
epoch: 1000
next table: 1049
cur table: 1044
epoch: 1000
next table: 1067
cur table: 1060
epoch: 1000
next table: 1045
cur table: 1049
epoch: 1000
next table: 1061
cur table: 1067
epoch: 1000
next table: 1044
cur table: 1045
epoch: 1000
next table: 1068
cur table: 1061
epoch: 1000
next table: 1052
cur table: 1044
epoch: 1000
next table: 1064
cur table: 1068
epoch: 1000
next table: 1041
cur table: 1052
epoch: 1000
next table: 1059
cur table: 1064
epoch: 1000
next table: 1058
cur table: 1041
epoch: 1000
next table: 1077
cur table: 1059
epoch: 1000
next table: 1059
cur table: 1058
epoch: 1000
next table: 1068
cur table: 1077
epoch: 1000
next table: 1068
cur table: 1068
epoch: 1000
next table: 1049
cur table: 1059
epoch: 1000
next table: 1064
cur table: 1068
epoch: 1000
next table: 1053
cur table: 1049
epoch: 1000
next table: 1072
cur table: 1064
epoch: 1000
next table: 1047
cur table: 1053
epoch: 1000
next table: 1069
cur table: 1072
epoch: 1000
next table: 1052
cur table: 1047
epoch: 1000
next table: 1058
cur table: 1069
epoch: 1000
next table: 1043
cur table: 1052
epoch: 1000
next table: 1067
cur table: 1058
epoch: 1000
next table: 1048
cur table: 1043
epoch: 1000
next table: 1062
cur table: 1067
epoch: 1000
next table: 1047
cur table: 1048
epoch: 1000
next table: 1067
cur table: 1062
epoch: 1000
next table: 1053
cur table: 1047
epoch: 1000
next table: 1060
cur table: 1067
epoch: 1000
next table: 1045
cur table: 1053
epoch: 1000
next table: 1064
cur table: 1060
epoch: 1000
next table: 1048
cur table: 1045
epoch: 1000
next table: 1065
cur table: 1064
epoch: 1000
next table: 1045
cur table: 1048
epoch: 1000
next table: 1060
cur table: 1065
epoch: 1000
next table: 1057
cur table: 1045
epoch: 1000
next table: 1071
cur table: 1060
epoch: 1000
next table: 1059
cur table: 1057
epoch: 1000
next table: 1062
cur table: 1071
epoch: 1000
next table: 1049
cur table: 1059
epoch: 1000
next table: 1063
cur table: 1062
epoch: 1000
next table: 1047
cur table: 1049
epoch: 1000
next table: 1066
cur table: 1063
epoch: 1000
next table: 1046
cur table: 1047
epoch: 1000
next table: 1056
cur table: 1066
epoch: 1000
next table: 1046
cur table: 1046
epoch: 1000
next table: 1063
cur table: 1056
epoch: 1000
next table: 1053
cur table: 1046
epoch: 1000
next table: 1075
cur table: 1063
epoch: 1000
next table: 1047
cur table: 1053
epoch: 1000
next table: 1056
cur table: 1075
epoch: 1000
next table: 1050
cur table: 1047
epoch: 1000
next table: 1073
cur table: 1056
epoch: 1000
next table: 1043
cur table: 1050
epoch: 1000
next table: 1043
cur table: 1073
epoch: 1000
next table: 1069
cur table: 1043
epoch: 1000
next table: 1065
cur table: 1043
epoch: 1000
next table: 1064
cur table: 1069
epoch: 1000
next table: 1050
cur table: 1065
epoch: 1000
next table: 1067
cur table: 1064
epoch: 1000
next table: 1055
cur table: 1050
epoch: 1000
next table: 1080
cur table: 1067
epoch: 1000
next table: 1055
cur table: 1055
epoch: 1000
next table: 1059
cur table: 1080
epoch: 1000
next table: 1048
cur table: 1055
epoch: 1000
next table: 1066
cur table: 1059
epoch: 1000
next table: 1055
cur table: 1048
epoch: 1000
next table: 1070
cur table: 1066
epoch: 1000
next table: 1041
cur table: 1055
epoch: 1000
next table: 1054
cur table: 1070
epoch: 1000
next table: 1048
cur table: 1041
epoch: 1000
next table: 1064
cur table: 1054
epoch: 1000
next table: 1048
cur table: 1048
epoch: 1000
next table: 1065
cur table: 1064
epoch: 1000
next table: 1051
cur table: 1048
epoch: 1000
next table: 1064
cur table: 1065
epoch: 1000
next table: 1048
cur table: 1051
Heartbeat CPU 0 instructions: 20000003 cycles: 6617470 heartbeat IPC: 3.02228 cumulative IPC: 3.0223 (Simulation time: 0 hr 19 min 7 sec) 
epoch: 1000
next table: 1074
cur table: 1064
epoch: 1000
next table: 1044
cur table: 1048
epoch: 1000
next table: 1054
cur table: 1074
epoch: 1000
next table: 1048
cur table: 1044
epoch: 1000
next table: 1072
cur table: 1054
epoch: 1000
next table: 1051
cur table: 1048
epoch: 1000
next table: 1066
cur table: 1072
epoch: 1000
next table: 1052
cur table: 1051
epoch: 1000
next table: 1070
cur table: 1066
epoch: 1000
next table: 1048
cur table: 1052
epoch: 1000
next table: 1070
cur table: 1070
epoch: 1000
next table: 1042
cur table: 1048
epoch: 1000
next table: 1058
cur table: 1070
epoch: 1000
next table: 1049
cur table: 1042
epoch: 1000
next table: 1073
cur table: 1058
epoch: 1000
next table: 1049
cur table: 1049
epoch: 1000
next table: 1065
cur table: 1073
epoch: 1000
next table: 1044
cur table: 1049
epoch: 1000
next table: 1067
cur table: 1065
epoch: 1000
next table: 1047
cur table: 1044
epoch: 1000
next table: 1064
cur table: 1067
epoch: 1000
next table: 1049
cur table: 1047
epoch: 1000
next table: 1060
cur table: 1064
epoch: 1000
next table: 1043
cur table: 1049
epoch: 1000
next table: 1068
cur table: 1060
epoch: 1000
next table: 1050
cur table: 1043
epoch: 1000
next table: 1059
cur table: 1068
epoch: 1000
next table: 1040
cur table: 1050
epoch: 1000
next table: 1060
cur table: 1059
epoch: 1000
next table: 1050
cur table: 1040
epoch: 1000
next table: 1061
cur table: 1060
epoch: 1000
next table: 1041
cur table: 1050
epoch: 1000
next table: 1064
cur table: 1061
epoch: 1000
next table: 1053
cur table: 1041
epoch: 1000
next table: 1077
cur table: 1064
epoch: 1000
next table: 1056
cur table: 1053
epoch: 1000
next table: 1057
cur table: 1077
epoch: 1000
next table: 1051
cur table: 1056
epoch: 1000
next table: 1072
cur table: 1057
epoch: 1000
next table: 1050
cur table: 1051
epoch: 1000
next table: 1068
cur table: 1072
epoch: 1000
next table: 1047
cur table: 1050
epoch: 1000
next table: 1063
cur table: 1068
epoch: 1000
next table: 1043
cur table: 1047
epoch: 1000
next table: 1063
cur table: 1063
epoch: 1000
next table: 1053
cur table: 1043
epoch: 1000
next table: 1062
cur table: 1063
epoch: 1000
next table: 1045
cur table: 1053
epoch: 1000
next table: 1068
cur table: 1062
epoch: 1000
next table: 1051
cur table: 1045
epoch: 1000
next table: 1067
cur table: 1068
epoch: 1000
next table: 1046
cur table: 1051
epoch: 1000
next table: 1063
cur table: 1067
epoch: 1000
next table: 1050
cur table: 1046
epoch: 1000
next table: 1067
cur table: 1063
epoch: 1000
next table: 1051
cur table: 1050
epoch: 1000
next table: 1072
cur table: 1067
epoch: 1000
next table: 1050
cur table: 1051
epoch: 1000
next table: 1067
cur table: 1072
epoch: 1000
next table: 1055
cur table: 1050
epoch: 1000
next table: 1073
cur table: 1067
epoch: 1000
next table: 1050
cur table: 1055
epoch: 1000
next table: 1068
cur table: 1073
epoch: 1000
next table: 1048
cur table: 1050
epoch: 1000
next table: 1067
cur table: 1068
epoch: 1000
next table: 1046
cur table: 1048
epoch: 1000
next table: 1064
cur table: 1067
epoch: 1000
next table: 1046
cur table: 1046
epoch: 1000
next table: 1061
cur table: 1064
epoch: 1000
next table: 1051
cur table: 1046
epoch: 1000
next table: 1069
cur table: 1061
epoch: 1000
next table: 1046
cur table: 1051
epoch: 1000
next table: 1062
cur table: 1069
epoch: 1000
next table: 1051
cur table: 1046
epoch: 1000
next table: 1067
cur table: 1062
epoch: 1000
next table: 1047
cur table: 1051
epoch: 1000
next table: 1062
cur table: 1067
epoch: 1000
next table: 1050
cur table: 1047
epoch: 1000
next table: 1059
cur table: 1062
epoch: 1000
next table: 1046
cur table: 1050
epoch: 1000
next table: 1066
cur table: 1059
epoch: 1000
next table: 1045
cur table: 1046
epoch: 1000
next table: 1067
cur table: 1066
epoch: 1000
next table: 1047
cur table: 1045
epoch: 1000
next table: 1072
cur table: 1067
epoch: 1000
next table: 1054
cur table: 1047
epoch: 1000
next table: 1068
cur table: 1072
epoch: 1000
next table: 1054
cur table: 1054
epoch: 1000
next table: 1065
cur table: 1068
epoch: 1000
next table: 1052
cur table: 1054
epoch: 1000
next table: 1071
cur table: 1065
epoch: 1000
next table: 1047
cur table: 1052
epoch: 1000
next table: 1062
cur table: 1071
epoch: 1000
next table: 1049
cur table: 1047
epoch: 1000
next table: 1068
cur table: 1062
epoch: 1000
next table: 1048
cur table: 1049
epoch: 1000
next table: 1064
cur table: 1068
epoch: 1000
next table: 1050
cur table: 1048
epoch: 1000
next table: 1062
cur table: 1064
epoch: 1000
next table: 1046
cur table: 1050
epoch: 1000
next table: 1073
cur table: 1062
epoch: 1000
next table: 1046
cur table: 1046
epoch: 1000
next table: 1057
cur table: 1073
epoch: 1000
next table: 1052
cur table: 1046
epoch: 1000
next table: 1078
cur table: 1057
epoch: 1000
next table: 1049
cur table: 1052
epoch: 1000
next table: 1062
cur table: 1078
epoch: 1000
next table: 1051
cur table: 1049
epoch: 1000
next table: 1069
cur table: 1062
epoch: 1000
next table: 1058
cur table: 1051
epoch: 1000
next table: 1076
cur table: 1069
epoch: 1000
next table: 1044
cur table: 1058
epoch: 1000
next table: 1062
cur table: 1076
epoch: 1000
next table: 1050
cur table: 1044
epoch: 1000
next table: 1069
cur table: 1062
epoch: 1000
next table: 1047
cur table: 1050
epoch: 1000
next table: 1059
cur table: 1069
epoch: 1000
next table: 1045
cur table: 1047
epoch: 1000
next table: 1064
cur table: 1059
epoch: 1000
next table: 1052
cur table: 1045
epoch: 1000
next table: 1066
cur table: 1064
epoch: 1000
next table: 1046
cur table: 1052
epoch: 1000
next table: 1065
cur table: 1066
epoch: 1000
next table: 1048
cur table: 1046
epoch: 1000
next table: 1071
cur table: 1065
epoch: 1000
next table: 1053
cur table: 1048
epoch: 1000
next table: 1058
cur table: 1071
epoch: 1000
next table: 1041
cur table: 1053
epoch: 1000
next table: 1071
cur table: 1058
epoch: 1000
next table: 1053
cur table: 1041
epoch: 1000
next table: 1061
cur table: 1071
epoch: 1000
next table: 1046
cur table: 1053
epoch: 1000
next table: 1064
cur table: 1061
epoch: 1000
next table: 1050
cur table: 1046
epoch: 1000
next table: 1075
cur table: 1064
epoch: 1000
next table: 1053
cur table: 1050
epoch: 1000
next table: 1060
cur table: 1075
epoch: 1000
next table: 1049
cur table: 1053
epoch: 1000
next table: 1074
cur table: 1060
epoch: 1000
next table: 1048
cur table: 1049
epoch: 1000
next table: 1069
cur table: 1074
epoch: 1000
next table: 1050
cur table: 1048
epoch: 1000
next table: 1061
cur table: 1069
epoch: 1000
next table: 1042
cur table: 1050
epoch: 1000
next table: 1064
cur table: 1061
epoch: 1000
next table: 1049
cur table: 1042
epoch: 1000
next table: 1061
cur table: 1064
epoch: 1000
next table: 1043
cur table: 1049
epoch: 1000
next table: 1062
cur table: 1061
epoch: 1000
next table: 1054
cur table: 1043
epoch: 1000
next table: 1068
cur table: 1062
epoch: 1000
next table: 1040
cur table: 1054
epoch: 1000
next table: 1056
cur table: 1068
epoch: 1000
next table: 1046
cur table: 1040
epoch: 1000
next table: 1064
cur table: 1056
epoch: 1000
next table: 1050
cur table: 1046
epoch: 1000
next table: 1064
cur table: 1064
epoch: 1000
next table: 1053
cur table: 1050
epoch: 1000
next table: 1067
cur table: 1064
epoch: 1000
next table: 1062
cur table: 1053
epoch: 1000
next table: 1076
cur table: 1067
epoch: 1000
next table: 1049
cur table: 1062
epoch: 1000
next table: 1068
cur table: 1076
epoch: 1000
next table: 1047
cur table: 1049
epoch: 1000
next table: 1072
cur table: 1068
epoch: 1000
next table: 1052
cur table: 1047
epoch: 1000
next table: 1059
cur table: 1072
epoch: 1000
next table: 1043
cur table: 1052
epoch: 1000
next table: 1066
cur table: 1059
epoch: 1000
next table: 1046
cur table: 1043
epoch: 1000
next table: 1069
cur table: 1066
epoch: 1000
next table: 1048
cur table: 1046
epoch: 1000
next table: 1063
cur table: 1069
epoch: 1000
next table: 1049
cur table: 1048
epoch: 1000
next table: 1070
cur table: 1063
epoch: 1000
next table: 1046
cur table: 1049
epoch: 1000
next table: 1064
cur table: 1070
epoch: 1000
next table: 1049
cur table: 1046
epoch: 1000
next table: 1060
cur table: 1064
epoch: 1000
next table: 1042
cur table: 1049
epoch: 1000
next table: 1074
cur table: 1060
epoch: 1000
next table: 1053
cur table: 1042
epoch: 1000
next table: 1060
cur table: 1074
epoch: 1000
next table: 1048
cur table: 1053
epoch: 1000
next table: 1069
cur table: 1060
epoch: 1000
next table: 1049
cur table: 1048
epoch: 1000
next table: 1073
cur table: 1069
epoch: 1000
next table: 1053
cur table: 1049
epoch: 1000
next table: 1063
cur table: 1073
epoch: 1000
next table: 1051
cur table: 1053
epoch: 1000
next table: 1069
cur table: 1063
epoch: 1000
next table: 1047
cur table: 1051
epoch: 1000
next table: 1059
cur table: 1069
epoch: 1000
next table: 1048
cur table: 1047
epoch: 1000
next table: 1065
cur table: 1059
epoch: 1000
next table: 1048
cur table: 1048
epoch: 1000
next table: 1061
cur table: 1065
epoch: 1000
next table: 1048
cur table: 1048
epoch: 1000
next table: 1063
cur table: 1061
epoch: 1000
next table: 1046
cur table: 1048
epoch: 1000
next table: 1067
cur table: 1063
epoch: 1000
next table: 1050
cur table: 1046
epoch: 1000
next table: 1065
cur table: 1067
epoch: 1000
next table: 1041
cur table: 1050
epoch: 1000
next table: 1065
cur table: 1065
epoch: 1000
next table: 1049
cur table: 1041
epoch: 1000
next table: 1063
cur table: 1065
epoch: 1000
next table: 1053
cur table: 1049
epoch: 1000
next table: 1069
cur table: 1063
epoch: 1000
next table: 1052
cur table: 1053
epoch: 1000
next table: 1070
cur table: 1069
epoch: 1000
next table: 1045
cur table: 1052
epoch: 1000
next table: 1066
cur table: 1070
epoch: 1000
next table: 1054
cur table: 1045
epoch: 1000
next table: 1068
cur table: 1066
epoch: 1000
next table: 1046
cur table: 1054
epoch: 1000
next table: 1062
cur table: 1068
epoch: 1000
next table: 1046
cur table: 1046
epoch: 1000
next table: 1063
cur table: 1062
epoch: 1000
next table: 1045
cur table: 1046
epoch: 1000
next table: 1069
cur table: 1063
epoch: 1000
next table: 1049
cur table: 1045
epoch: 1000
next table: 1063
cur table: 1069
epoch: 1000
next table: 1050
cur table: 1049
epoch: 1000
next table: 1067
cur table: 1063
epoch: 1000
next table: 1048
cur table: 1050
epoch: 1000
next table: 1062
cur table: 1067
epoch: 1000
next table: 1041
cur table: 1048
epoch: 1000
next table: 1066
cur table: 1062
epoch: 1000
next table: 1055
cur table: 1041
epoch: 1000
next table: 1063
cur table: 1066
epoch: 1000
next table: 1042
cur table: 1055
epoch: 1000
next table: 1058
cur table: 1063
epoch: 1000
next table: 1046
cur table: 1042
epoch: 1000
next table: 1075
cur table: 1058
epoch: 1000
next table: 1048
cur table: 1046
epoch: 1000
next table: 1058
cur table: 1075
epoch: 1000
next table: 1049
cur table: 1048
epoch: 1000
next table: 1068
cur table: 1058
epoch: 1000
next table: 1050
cur table: 1049
epoch: 1000
next table: 1068
cur table: 1068
epoch: 1000
next table: 1047
cur table: 1050
epoch: 1000
next table: 1058
cur table: 1068
epoch: 1000
next table: 1046
cur table: 1047
epoch: 1000
next table: 1073
cur table: 1058
epoch: 1000
next table: 1053
cur table: 1046
epoch: 1000
next table: 1064
cur table: 1073
epoch: 1000
next table: 1045
cur table: 1053
epoch: 1000
next table: 1061
cur table: 1064
epoch: 1000
next table: 1051
cur table: 1045
epoch: 1000
next table: 1069
cur table: 1061
epoch: 1000
next table: 1042
cur table: 1051
epoch: 1000
next table: 1058
cur table: 1069
epoch: 1000
next table: 1045
cur table: 1042
epoch: 1000
next table: 1064
cur table: 1058
epoch: 1000
next table: 1042
cur table: 1045
epoch: 1000
next table: 1060
cur table: 1064
epoch: 1000
next table: 1047
cur table: 1042
epoch: 1000
next table: 1061
cur table: 1060
epoch: 1000
next table: 1054
cur table: 1047
epoch: 1000
next table: 1078
cur table: 1061
epoch: 1000
next table: 1047
cur table: 1054
epoch: 1000
next table: 1063
cur table: 1078
epoch: 1000
next table: 1045
cur table: 1047
epoch: 1000
next table: 1067
cur table: 1063
epoch: 1000
next table: 1045
cur table: 1045
epoch: 1000
next table: 1062
cur table: 1067
epoch: 1000
next table: 1045
cur table: 1045
epoch: 1000
next table: 1059
cur table: 1062
epoch: 1000
next table: 1048
cur table: 1045
epoch: 1000
next table: 1073
cur table: 1059
epoch: 1000
next table: 1043
cur table: 1048
epoch: 1000
next table: 1063
cur table: 1073
epoch: 1000
next table: 1049
cur table: 1043
epoch: 1000
next table: 1062
cur table: 1063
epoch: 1000
next table: 1042
cur table: 1049
epoch: 1000
next table: 1061
cur table: 1062
epoch: 1000
next table: 1044
cur table: 1042
epoch: 1000
next table: 1055
cur table: 1061
epoch: 1000
next table: 1043
cur table: 1044
epoch: 1000
next table: 1077
cur table: 1055
epoch: 1000
next table: 1054
cur table: 1043
epoch: 1000
next table: 1059
cur table: 1077
epoch: 1000
next table: 1048
cur table: 1054
epoch: 1000
next table: 1063
cur table: 1059
epoch: 1000
next table: 1053
cur table: 1048
epoch: 1000
next table: 1072
cur table: 1063
epoch: 1000
next table: 1049
cur table: 1053
epoch: 1000
next table: 1060
cur table: 1072
epoch: 1000
next table: 1052
cur table: 1049
epoch: 1000
next table: 1074
cur table: 1060
epoch: 1000
next table: 1046
cur table: 1052
epoch: 1000
next table: 1061
cur table: 1074
epoch: 1000
next table: 1049
cur table: 1046
epoch: 1000
next table: 1066
cur table: 1061
epoch: 1000
next table: 1043
cur table: 1049
epoch: 1000
next table: 1061
cur table: 1066
epoch: 1000
next table: 1047
cur table: 1043
epoch: 1000
next table: 1061
cur table: 1061
epoch: 1000
next table: 1047
cur table: 1047
epoch: 1000
next table: 1067
cur table: 1061
epoch: 1000
next table: 1051
cur table: 1047
epoch: 1000
next table: 1063
cur table: 1067
epoch: 1000
next table: 1043
cur table: 1051
epoch: 1000
next table: 1062
cur table: 1063
epoch: 1000
next table: 1044
cur table: 1043
epoch: 1000
next table: 1060
cur table: 1062
epoch: 1000
next table: 1045
cur table: 1044
epoch: 1000
next table: 1063
cur table: 1060
epoch: 1000
next table: 1052
cur table: 1045
epoch: 1000
next table: 1074
cur table: 1063
epoch: 1000
next table: 1043
cur table: 1052
epoch: 1000
next table: 1061
cur table: 1074
epoch: 1000
next table: 1048
cur table: 1043
epoch: 1000
next table: 1063
cur table: 1061
epoch: 1000
next table: 1045
cur table: 1048
epoch: 1000
next table: 1061
cur table: 1063
epoch: 1000
next table: 1046
cur table: 1045
epoch: 1000
next table: 1062
cur table: 1061
epoch: 1000
next table: 1048
cur table: 1046
epoch: 1000
next table: 1067
cur table: 1062
epoch: 1000
next table: 1048
cur table: 1048
epoch: 1000
next table: 1067
cur table: 1067
epoch: 1000
next table: 1048
cur table: 1048
epoch: 1000
next table: 1063
cur table: 1067
epoch: 1000
next table: 1050
cur table: 1048
epoch: 1000
next table: 1059
cur table: 1063
epoch: 1000
next table: 1040
cur table: 1050
epoch: 1000
next table: 1059
cur table: 1059
epoch: 1000
next table: 1046
cur table: 1040
epoch: 1000
next table: 1063
cur table: 1059
epoch: 1000
next table: 1041
cur table: 1046
epoch: 1000
next table: 1060
cur table: 1063
epoch: 1000
next table: 1049
cur table: 1041
epoch: 1000
next table: 1066
cur table: 1060
epoch: 1000
next table: 1047
cur table: 1049
epoch: 1000
next table: 1063
cur table: 1066
epoch: 1000
next table: 1046
cur table: 1047
epoch: 1000
next table: 1064
cur table: 1063
epoch: 1000
next table: 1047
cur table: 1046
epoch: 1000
next table: 1069
cur table: 1064
epoch: 1000
next table: 1048
cur table: 1047
epoch: 1000
next table: 1058
cur table: 1069
epoch: 1000
next table: 1046
cur table: 1048
epoch: 1000
next table: 1070
cur table: 1058
epoch: 1000
next table: 1046
cur table: 1046
epoch: 1000
next table: 1065
cur table: 1070
epoch: 1000
next table: 1039
cur table: 1046
epoch: 1000
next table: 1057
cur table: 1065
epoch: 1000
next table: 1053
cur table: 1039
epoch: 1000
next table: 1072
cur table: 1057
epoch: 1000
next table: 1041
cur table: 1053
epoch: 1000
next table: 1056
cur table: 1072
epoch: 1000
next table: 1045
cur table: 1041
epoch: 1000
next table: 1069
cur table: 1056
epoch: 1000
next table: 1045
cur table: 1045
epoch: 1000
next table: 1063
cur table: 1069
epoch: 1000
next table: 1050
cur table: 1045
epoch: 1000
next table: 1065
cur table: 1063
epoch: 1000
next table: 1050
cur table: 1050
epoch: 1000
next table: 1075
cur table: 1065
epoch: 1000
next table: 1045
cur table: 1050
epoch: 1000
next table: 1064
cur table: 1075
epoch: 1000
next table: 1047
cur table: 1045
epoch: 1000
next table: 1071
cur table: 1064
epoch: 1000
next table: 1051
cur table: 1047
epoch: 1000
next table: 1062
cur table: 1071
epoch: 1000
next table: 1042
cur table: 1051
epoch: 1000
next table: 1055
cur table: 1062
epoch: 1000
next table: 1045
cur table: 1042
epoch: 1000
next table: 1070
cur table: 1055
epoch: 1000
next table: 1044
cur table: 1045
epoch: 1000
next table: 1059
cur table: 1070
epoch: 1000
next table: 1048
cur table: 1044
epoch: 1000
next table: 1065
cur table: 1059
epoch: 1000
next table: 1048
cur table: 1048
epoch: 1000
next table: 1061
cur table: 1065
epoch: 1000
next table: 1043
cur table: 1048
epoch: 1000
next table: 1057
cur table: 1061
epoch: 1000
next table: 1043
cur table: 1043
epoch: 1000
next table: 1077
cur table: 1057
Heartbeat CPU 0 instructions: 30000001 cycles: 9927608 heartbeat IPC: 3.02102 cumulative IPC: 3.02188 (Simulation time: 0 hr 27 min 48 sec) 
epoch: 1000
next table: 1053
cur table: 1043
epoch: 1000
next table: 1061
cur table: 1077
epoch: 1000
next table: 1051
cur table: 1053
epoch: 1000
next table: 1069
cur table: 1061
epoch: 1000
next table: 1050
cur table: 1051
epoch: 1000
next table: 1064
cur table: 1069
epoch: 1000
next table: 1047
cur table: 1050
epoch: 1000
next table: 1061
cur table: 1064
epoch: 1000
next table: 1048
cur table: 1047
epoch: 1000
next table: 1072
cur table: 1061
epoch: 1000
next table: 1045
cur table: 1048
epoch: 1000
next table: 1066
cur table: 1072
epoch: 1000
next table: 1046
cur table: 1045
epoch: 1000
next table: 1060
cur table: 1066
epoch: 1000
next table: 1046
cur table: 1046
epoch: 1000
next table: 1065
cur table: 1060
epoch: 1000
next table: 1050
cur table: 1046
epoch: 1000
next table: 1061
cur table: 1065
epoch: 1000
next table: 1043
cur table: 1050
epoch: 1000
next table: 1062
cur table: 1061
epoch: 1000
next table: 1051
cur table: 1043
epoch: 1000
next table: 1064
cur table: 1062
epoch: 1000
next table: 1044
cur table: 1051
epoch: 1000
next table: 1060
cur table: 1064
epoch: 1000
next table: 1048
cur table: 1044
epoch: 1000
next table: 1064
cur table: 1060
epoch: 1000
next table: 1044
cur table: 1048
epoch: 1000
next table: 1061
cur table: 1064
epoch: 1000
next table: 1050
cur table: 1044
epoch: 1000
next table: 1069
cur table: 1061
epoch: 1000
next table: 1050
cur table: 1050
epoch: 1000
next table: 1067
cur table: 1069
epoch: 1000
next table: 1050
cur table: 1050
epoch: 1000
next table: 1066
cur table: 1067
epoch: 1000
next table: 1048
cur table: 1050
epoch: 1000
next table: 1064
cur table: 1066
epoch: 1000
next table: 1042
cur table: 1048
epoch: 1000
next table: 1057
cur table: 1064
epoch: 1000
next table: 1045
cur table: 1042
epoch: 1000
next table: 1067
cur table: 1057
epoch: 1000
next table: 1046
cur table: 1045
epoch: 1000
next table: 1062
cur table: 1067
epoch: 1000
next table: 1050
cur table: 1046
epoch: 1000
next table: 1070
cur table: 1062
epoch: 1000
next table: 1048
cur table: 1050
epoch: 1000
next table: 1062
cur table: 1070
epoch: 1000
next table: 1040
cur table: 1048
epoch: 1000
next table: 1061
cur table: 1062
epoch: 1000
next table: 1048
cur table: 1040
epoch: 1000
next table: 1065
cur table: 1061
epoch: 1000
next table: 1041
cur table: 1048
epoch: 1000
next table: 1070
cur table: 1065
epoch: 1000
next table: 1055
cur table: 1041
epoch: 1000
next table: 1068
cur table: 1070
epoch: 1000
next table: 1051
cur table: 1055
epoch: 1000
next table: 1064
cur table: 1068
epoch: 1000
next table: 1048
cur table: 1051
epoch: 1000
next table: 1068
cur table: 1064
epoch: 1000
next table: 1050
cur table: 1048
epoch: 1000
next table: 1071
cur table: 1068
epoch: 1000
next table: 1043
cur table: 1050
epoch: 1000
next table: 1056
cur table: 1071
epoch: 1000
next table: 1046
cur table: 1043
epoch: 1000
next table: 1068
cur table: 1056
epoch: 1000
next table: 1051
cur table: 1046
epoch: 1000
next table: 1066
cur table: 1068
epoch: 1000
next table: 1044
cur table: 1051
epoch: 1000
next table: 1061
cur table: 1066
epoch: 1000
next table: 1051
cur table: 1044
epoch: 1000
next table: 1074
cur table: 1061
epoch: 1000
next table: 1044
cur table: 1051
epoch: 1000
next table: 1056
cur table: 1074
epoch: 1000
next table: 1054
cur table: 1044
epoch: 1000
next table: 1073
cur table: 1056
epoch: 1000
next table: 1044
cur table: 1054
epoch: 1000
next table: 1061
cur table: 1073
epoch: 1000
next table: 1045
cur table: 1044
epoch: 1000
next table: 1057
cur table: 1061
epoch: 1000
next table: 1054
cur table: 1045
epoch: 1000
next table: 1077
cur table: 1057
epoch: 1000
next table: 1046
cur table: 1054
epoch: 1000
next table: 1064
cur table: 1077
epoch: 1000
next table: 1045
cur table: 1046
epoch: 1000
next table: 1070
cur table: 1064
epoch: 1000
next table: 1051
cur table: 1045
epoch: 1000
next table: 1063
cur table: 1070
epoch: 1000
next table: 1042
cur table: 1051
epoch: 1000
next table: 1058
cur table: 1063
epoch: 1000
next table: 1047
cur table: 1042
epoch: 1000
next table: 1070
cur table: 1058
epoch: 1000
next table: 1044
cur table: 1047
epoch: 1000
next table: 1060
cur table: 1070
epoch: 1000
next table: 1048
cur table: 1044
epoch: 1000
next table: 1066
cur table: 1060
epoch: 1000
next table: 1052
cur table: 1048
epoch: 1000
next table: 1068
cur table: 1066
epoch: 1000
next table: 1045
cur table: 1052
epoch: 1000
next table: 1058
cur table: 1068
epoch: 1000
next table: 1045
cur table: 1045
epoch: 1000
next table: 1076
cur table: 1058
epoch: 1000
next table: 1054
cur table: 1045
epoch: 1000
next table: 1063
cur table: 1076
epoch: 1000
next table: 1046
cur table: 1054
epoch: 1000
next table: 1068
cur table: 1063
epoch: 1000
next table: 1054
cur table: 1046
epoch: 1000
next table: 1063
cur table: 1068
epoch: 1000
next table: 1047
cur table: 1054
epoch: 1000
next table: 1064
cur table: 1063
epoch: 1000
next table: 1052
cur table: 1047
epoch: 1000
next table: 1069
cur table: 1064
epoch: 1000
next table: 1046
cur table: 1052
epoch: 1000
next table: 1065
cur table: 1069
epoch: 1000
next table: 1045
cur table: 1046
epoch: 1000
next table: 1060
cur table: 1065
epoch: 1000
next table: 1047
cur table: 1045
epoch: 1000
next table: 1066
cur table: 1060
epoch: 1000
next table: 1046
cur table: 1047
epoch: 1000
next table: 1059
cur table: 1066
epoch: 1000
next table: 1045
cur table: 1046
epoch: 1000
next table: 1068
cur table: 1059
epoch: 1000
next table: 1052
cur table: 1045
epoch: 1000
next table: 1066
cur table: 1068
epoch: 1000
next table: 1042
cur table: 1052
epoch: 1000
next table: 1059
cur table: 1066
epoch: 1000
next table: 1053
cur table: 1042
epoch: 1000
next table: 1072
cur table: 1059
epoch: 1000
next table: 1047
cur table: 1053
epoch: 1000
next table: 1063
cur table: 1072
epoch: 1000
next table: 1048
cur table: 1047
epoch: 1000
next table: 1070
cur table: 1063
epoch: 1000
next table: 1049
cur table: 1048
epoch: 1000
next table: 1073
cur table: 1070
epoch: 1000
next table: 1051
cur table: 1049
epoch: 1000
next table: 1063
cur table: 1073
epoch: 1000
next table: 1045
cur table: 1051
epoch: 1000
next table: 1069
cur table: 1063
epoch: 1000
next table: 1049
cur table: 1045
epoch: 1000
next table: 1062
cur table: 1069
epoch: 1000
next table: 1045
cur table: 1049
epoch: 1000
next table: 1067
cur table: 1062
epoch: 1000
next table: 1046
cur table: 1045
epoch: 1000
next table: 1065
cur table: 1067
epoch: 1000
next table: 1048
cur table: 1046
epoch: 1000
next table: 1066
cur table: 1065
epoch: 1000
next table: 1048
cur table: 1048
epoch: 1000
next table: 1068
cur table: 1066
epoch: 1000
next table: 1047
cur table: 1048
epoch: 1000
next table: 1057
cur table: 1068
epoch: 1000
next table: 1046
cur table: 1047
epoch: 1000
next table: 1063
cur table: 1057
epoch: 1000
next table: 1044
cur table: 1046
epoch: 1000
next table: 1066
cur table: 1063
epoch: 1000
next table: 1056
cur table: 1044
epoch: 1000
next table: 1064
cur table: 1066
epoch: 1000
next table: 1048
cur table: 1056
epoch: 1000
next table: 1063
cur table: 1064
epoch: 1000
next table: 1050
cur table: 1048
epoch: 1000
next table: 1062
cur table: 1063
epoch: 1000
next table: 1049
cur table: 1050
epoch: 1000
next table: 1072
cur table: 1062
epoch: 1000
next table: 1046
cur table: 1049
epoch: 1000
next table: 1060
cur table: 1072
epoch: 1000
next table: 1045
cur table: 1046
epoch: 1000
next table: 1067
cur table: 1060
epoch: 1000
next table: 1046
cur table: 1045
epoch: 1000
next table: 1064
cur table: 1067
epoch: 1000
next table: 1049
cur table: 1046
epoch: 1000
next table: 1066
cur table: 1064
epoch: 1000
next table: 1052
cur table: 1049
epoch: 1000
next table: 1071
cur table: 1066
epoch: 1000
next table: 1041
cur table: 1052
epoch: 1000
next table: 1058
cur table: 1071
epoch: 1000
next table: 1051
cur table: 1041
epoch: 1000
next table: 1066
cur table: 1058
epoch: 1000
next table: 1043
cur table: 1051
epoch: 1000
next table: 1067
cur table: 1066
epoch: 1000
next table: 1055
cur table: 1043
epoch: 1000
next table: 1067
cur table: 1067
epoch: 1000
next table: 1051
cur table: 1055
epoch: 1000
next table: 1078
cur table: 1067
epoch: 1000
next table: 1045
cur table: 1051
epoch: 1000
next table: 1048
cur table: 1078
epoch: 1000
next table: 1047
cur table: 1045
epoch: 1000
next table: 1065
cur table: 1048
epoch: 1000
next table: 1050
cur table: 1047
epoch: 1000
next table: 1075
cur table: 1065
epoch: 1000
next table: 1041
cur table: 1050
epoch: 1000
next table: 1058
cur table: 1075
epoch: 1000
next table: 1051
cur table: 1041
epoch: 1000
next table: 1073
cur table: 1058
epoch: 1000
next table: 1047
cur table: 1051
epoch: 1000
next table: 1049
cur table: 1073
epoch: 1000
next table: 1045
cur table: 1047
epoch: 1000
next table: 1061
cur table: 1049
epoch: 1000
next table: 1050
cur table: 1045
epoch: 1000
next table: 1070
cur table: 1061
epoch: 1000
next table: 1042
cur table: 1050
epoch: 1000
next table: 1058
cur table: 1070
epoch: 1000
next table: 1054
cur table: 1042
epoch: 1000
next table: 1075
cur table: 1058
epoch: 1000
next table: 1049
cur table: 1054
epoch: 1000
next table: 1061
cur table: 1075
epoch: 1000
next table: 1042
cur table: 1049
epoch: 1000
next table: 1061
cur table: 1061
epoch: 1000
next table: 1057
cur table: 1042
epoch: 1000
next table: 1069
cur table: 1061
epoch: 1000
next table: 1046
cur table: 1057
epoch: 1000
next table: 1064
cur table: 1069
epoch: 1000
next table: 1054
cur table: 1046
epoch: 1000
next table: 1073
cur table: 1064
epoch: 1000
next table: 1044
cur table: 1054
epoch: 1000
next table: 1063
cur table: 1073
epoch: 1000
next table: 1045
cur table: 1044
epoch: 1000
next table: 1059
cur table: 1063
epoch: 1000
next table: 1047
cur table: 1045
epoch: 1000
next table: 1069
cur table: 1059
epoch: 1000
next table: 1049
cur table: 1047
epoch: 1000
next table: 1065
cur table: 1069
epoch: 1000
next table: 1049
cur table: 1049
epoch: 1000
next table: 1067
cur table: 1065
epoch: 1000
next table: 1045
cur table: 1049
epoch: 1000
next table: 1063
cur table: 1067
epoch: 1000
next table: 1042
cur table: 1045
epoch: 1000
next table: 1058
cur table: 1063
epoch: 1000
next table: 1057
cur table: 1042
epoch: 1000
next table: 1071
cur table: 1058
epoch: 1000
next table: 1045
cur table: 1057
epoch: 1000
next table: 1065
cur table: 1071
epoch: 1000
next table: 1055
cur table: 1045
epoch: 1000
next table: 1077
cur table: 1065
epoch: 1000
next table: 1067
cur table: 1077
epoch: 1000
next table: 1046
cur table: 1055
epoch: 1000
next table: 1070
cur table: 1067
epoch: 1000
next table: 1051
cur table: 1046
epoch: 1000
next table: 1067
cur table: 1070
epoch: 1000
next table: 1045
cur table: 1051
epoch: 1000
next table: 1059
cur table: 1067
epoch: 1000
next table: 1046
cur table: 1045
epoch: 1000
next table: 1065
cur table: 1059
epoch: 1000
next table: 1043
cur table: 1046
epoch: 1000
next table: 1060
cur table: 1065
epoch: 1000
next table: 1050
cur table: 1043
epoch: 1000
next table: 1064
cur table: 1060
epoch: 1000
next table: 1047
cur table: 1050
epoch: 1000
next table: 1061
cur table: 1064
epoch: 1000
next table: 1046
cur table: 1047
epoch: 1000
next table: 1063
cur table: 1061
epoch: 1000
next table: 1045
cur table: 1046
epoch: 1000
next table: 1066
cur table: 1063
epoch: 1000
next table: 1048
cur table: 1045
epoch: 1000
next table: 1068
cur table: 1066
epoch: 1000
next table: 1053
cur table: 1048
epoch: 1000
next table: 1064
cur table: 1068
epoch: 1000
next table: 1046
cur table: 1053
epoch: 1000
next table: 1062
cur table: 1064
epoch: 1000
next table: 1044
cur table: 1046
epoch: 1000
next table: 1069
cur table: 1062
epoch: 1000
next table: 1058
cur table: 1044
epoch: 1000
next table: 1071
cur table: 1069
epoch: 1000
next table: 1047
cur table: 1058
epoch: 1000
next table: 1065
cur table: 1071
epoch: 1000
next table: 1049
cur table: 1047
epoch: 1000
next table: 1068
cur table: 1065
epoch: 1000
next table: 1047
cur table: 1049
epoch: 1000
next table: 1068
cur table: 1068
epoch: 1000
next table: 1049
cur table: 1047
epoch: 1000
next table: 1063
cur table: 1068
epoch: 1000
next table: 1046
cur table: 1049
epoch: 1000
next table: 1067
cur table: 1063
epoch: 1000
next table: 1050
cur table: 1046
epoch: 1000
next table: 1061
cur table: 1067
epoch: 1000
next table: 1044
cur table: 1050
epoch: 1000
next table: 1062
cur table: 1061
epoch: 1000
next table: 1048
cur table: 1044
epoch: 1000
next table: 1066
cur table: 1062
epoch: 1000
next table: 1045
cur table: 1048
epoch: 1000
next table: 1066
cur table: 1066
epoch: 1000
next table: 1053
cur table: 1045
epoch: 1000
next table: 1070
cur table: 1066
epoch: 1000
next table: 1046
cur table: 1053
epoch: 1000
next table: 1060
cur table: 1070
epoch: 1000
next table: 1047
cur table: 1046
epoch: 1000
next table: 1063
cur table: 1060
epoch: 1000
next table: 1047
cur table: 1047
epoch: 1000
next table: 1071
cur table: 1063
epoch: 1000
next table: 1050
cur table: 1047
epoch: 1000
next table: 1055
cur table: 1071
epoch: 1000
next table: 1040
cur table: 1050
epoch: 1000
next table: 1065
cur table: 1055
epoch: 1000
next table: 1050
cur table: 1040
epoch: 1000
next table: 1064
cur table: 1065
epoch: 1000
next table: 1045
cur table: 1050
epoch: 1000
next table: 1065
cur table: 1064
epoch: 1000
next table: 1051
cur table: 1045
epoch: 1000
next table: 1076
cur table: 1065
epoch: 1000
next table: 1058
cur table: 1051
epoch: 1000
next table: 1056
cur table: 1076
epoch: 1000
next table: 1047
cur table: 1058
epoch: 1000
next table: 1065
cur table: 1056
epoch: 1000
next table: 1045
cur table: 1047
epoch: 1000
next table: 1060
cur table: 1065
epoch: 1000
next table: 1055
cur table: 1045
epoch: 1000
next table: 1069
cur table: 1060
epoch: 1000
next table: 1046
cur table: 1055
epoch: 1000
next table: 1069
cur table: 1069
epoch: 1000
next table: 1046
cur table: 1046
epoch: 1000
next table: 1063
cur table: 1069
epoch: 1000
next table: 1046
cur table: 1046
epoch: 1000
next table: 1068
cur table: 1063
epoch: 1000
next table: 1051
cur table: 1046
epoch: 1000
next table: 1062
cur table: 1068
epoch: 1000
next table: 1043
cur table: 1051
epoch: 1000
next table: 1063
cur table: 1062
epoch: 1000
next table: 1050
cur table: 1043
epoch: 1000
next table: 1067
cur table: 1063
epoch: 1000
next table: 1047
cur table: 1050
epoch: 1000
next table: 1064
cur table: 1067
epoch: 1000
next table: 1050
cur table: 1047
epoch: 1000
next table: 1069
cur table: 1064
epoch: 1000
next table: 1048
cur table: 1050
epoch: 1000
next table: 1065
cur table: 1069
epoch: 1000
next table: 1046
cur table: 1048
epoch: 1000
next table: 1069
cur table: 1065
epoch: 1000
next table: 1053
cur table: 1046
epoch: 1000
next table: 1068
cur table: 1069
epoch: 1000
next table: 1045
cur table: 1053
epoch: 1000
next table: 1067
cur table: 1068
epoch: 1000
next table: 1051
cur table: 1045
epoch: 1000
next table: 1070
cur table: 1067
epoch: 1000
next table: 1055
cur table: 1051
epoch: 1000
next table: 1058
cur table: 1070
epoch: 1000
next table: 1046
cur table: 1055
epoch: 1000
next table: 1071
cur table: 1058
epoch: 1000
next table: 1055
cur table: 1046
epoch: 1000
next table: 1069
cur table: 1071
epoch: 1000
next table: 1044
cur table: 1055
epoch: 1000
next table: 1061
cur table: 1069
epoch: 1000
next table: 1061
cur table: 1044
epoch: 1000
next table: 1068
cur table: 1061
epoch: 1000
next table: 1049
cur table: 1061
epoch: 1000
next table: 1061
cur table: 1068
epoch: 1000
next table: 1043
cur table: 1049
epoch: 1000
next table: 1061
cur table: 1061
epoch: 1000
next table: 1054
cur table: 1043
epoch: 1000
next table: 1069
cur table: 1061
epoch: 1000
next table: 1040
cur table: 1054
epoch: 1000
next table: 1056
cur table: 1069
epoch: 1000
next table: 1046
cur table: 1040
epoch: 1000
next table: 1066
cur table: 1056
epoch: 1000
next table: 1044
cur table: 1046
epoch: 1000
next table: 1057
cur table: 1066
epoch: 1000
next table: 1050
cur table: 1044
epoch: 1000
next table: 1065
cur table: 1057
epoch: 1000
next table: 1057
cur table: 1050
epoch: 1000
next table: 1074
cur table: 1065
epoch: 1000
next table: 1052
cur table: 1057
epoch: 1000
next table: 1064
cur table: 1074
epoch: 1000
next table: 1048
cur table: 1052
epoch: 1000
next table: 1072
cur table: 1064
epoch: 1000
next table: 1049
cur table: 1048
epoch: 1000
next table: 1060
cur table: 1072
epoch: 1000
next table: 1046
cur table: 1049
epoch: 1000
next table: 1063
cur table: 1060
epoch: 1000
next table: 1051
cur table: 1046
epoch: 1000
next table: 1070
cur table: 1063
epoch: 1000
next table: 1062
cur table: 1070
epoch: 1000
next table: 1044
cur table: 1051
epoch: 1000
next table: 1070
cur table: 1062
epoch: 1000
next table: 1053
cur table: 1044
epoch: 1000
next table: 1063
cur table: 1070
epoch: 1000
next table: 1048
cur table: 1053
epoch: 1000
next table: 1059
cur table: 1063
epoch: 1000
next table: 1047
cur table: 1048
epoch: 1000
next table: 1076
cur table: 1059
epoch: 1000
next table: 1056
cur table: 1047
epoch: 1000
next table: 1063
cur table: 1076
epoch: 1000
next table: 1062
cur table: 1056
epoch: 1000
next table: 1068
cur table: 1063
epoch: 1000
next table: 1054
cur table: 1062
Heartbeat CPU 0 instructions: 40000002 cycles: 13237135 heartbeat IPC: 3.02158 cumulative IPC: 3.0218 (Simulation time: 0 hr 36 min 19 sec) 
epoch: 1000
next table: 1067
cur table: 1068
epoch: 1000
next table: 1053
cur table: 1054
epoch: 1000
next table: 1064
cur table: 1067
epoch: 1000
next table: 1047
cur table: 1053
epoch: 1000
next table: 1072
cur table: 1064
epoch: 1000
next table: 1053
cur table: 1047
epoch: 1000
next table: 1060
cur table: 1072
epoch: 1000
next table: 1043
cur table: 1053
epoch: 1000
next table: 1063
cur table: 1060
epoch: 1000
next table: 1049
cur table: 1043
epoch: 1000
next table: 1061
cur table: 1063
epoch: 1000
next table: 1046
cur table: 1049
epoch: 1000
next table: 1064
cur table: 1061
epoch: 1000
next table: 1050
cur table: 1046
epoch: 1000
next table: 1066
cur table: 1064
epoch: 1000
next table: 1050
cur table: 1050
epoch: 1000
next table: 1065
cur table: 1066
epoch: 1000
next table: 1044
cur table: 1050
epoch: 1000
next table: 1063
cur table: 1065
epoch: 1000
next table: 1042
cur table: 1044
epoch: 1000
next table: 1061
cur table: 1063
epoch: 1000
next table: 1050
cur table: 1042
epoch: 1000
next table: 1063
cur table: 1061
epoch: 1000
next table: 1050
cur table: 1050
epoch: 1000
next table: 1073
cur table: 1063
epoch: 1000
next table: 1045
cur table: 1050
epoch: 1000
next table: 1062
cur table: 1073
epoch: 1000
next table: 1050
cur table: 1045
epoch: 1000
next table: 1074
cur table: 1062
epoch: 1000
next table: 1053
cur table: 1050
epoch: 1000
next table: 1060
cur table: 1074
epoch: 1000
next table: 1041
cur table: 1053
epoch: 1000
next table: 1060
cur table: 1060
epoch: 1000
next table: 1052
cur table: 1041
epoch: 1000
next table: 1068
cur table: 1060
epoch: 1000
next table: 1048
cur table: 1052
epoch: 1000
next table: 1066
cur table: 1068
epoch: 1000
next table: 1053
cur table: 1048
epoch: 1000
next table: 1066
cur table: 1066
epoch: 1000
next table: 1049
cur table: 1053
epoch: 1000
next table: 1060
cur table: 1066
epoch: 1000
next table: 1060
cur table: 1049
epoch: 1000
next table: 1068
cur table: 1060
epoch: 1000
next table: 1056
cur table: 1060
epoch: 1000
next table: 1068
cur table: 1068
epoch: 1000
next table: 1045
cur table: 1056
epoch: 1000
next table: 1060
cur table: 1068
epoch: 1000
next table: 1054
cur table: 1045
epoch: 1000
next table: 1070
cur table: 1060
epoch: 1000
next table: 1045
cur table: 1054
epoch: 1000
next table: 1065
cur table: 1070
epoch: 1000
next table: 1051
cur table: 1045
epoch: 1000
next table: 1066
cur table: 1065
epoch: 1000
next table: 1046
cur table: 1051
epoch: 1000
next table: 1064
cur table: 1066
epoch: 1000
next table: 1046
cur table: 1046
epoch: 1000
next table: 1058
cur table: 1064
epoch: 1000
next table: 1049
cur table: 1046
epoch: 1000
next table: 1067
cur table: 1058
epoch: 1000
next table: 1049
cur table: 1049
epoch: 1000
next table: 1064
cur table: 1067
epoch: 1000
next table: 1063
cur table: 1064
epoch: 1000
next table: 1047
cur table: 1049
epoch: 1000
next table: 1068
cur table: 1063
epoch: 1000
next table: 1052
cur table: 1047
epoch: 1000
next table: 1054
cur table: 1068
epoch: 1000
next table: 1041
cur table: 1052
epoch: 1000
next table: 1069
cur table: 1054
epoch: 1000
next table: 1049
cur table: 1041
epoch: 1000
next table: 1061
cur table: 1069
epoch: 1000
next table: 1043
cur table: 1049
epoch: 1000
next table: 1063
cur table: 1061
epoch: 1000
next table: 1050
cur table: 1043
epoch: 1000
next table: 1074
cur table: 1063
epoch: 1000
next table: 1054
cur table: 1050
epoch: 1000
next table: 1060
cur table: 1074
epoch: 1000
next table: 1048
cur table: 1054
epoch: 1000
next table: 1074
cur table: 1060
epoch: 1000
next table: 1054
cur table: 1048
epoch: 1000
next table: 1063
cur table: 1074
epoch: 1000
next table: 1054
cur table: 1054
epoch: 1000
next table: 1059
cur table: 1063
epoch: 1000
next table: 1045
cur table: 1054
epoch: 1000
next table: 1067
cur table: 1059
epoch: 1000
next table: 1050
cur table: 1045
epoch: 1000
next table: 1058
cur table: 1067
epoch: 1000
next table: 1043
cur table: 1050
epoch: 1000
next table: 1067
cur table: 1058
epoch: 1000
next table: 1050
cur table: 1043
epoch: 1000
next table: 1059
cur table: 1067
epoch: 1000
next table: 1040
cur table: 1050
epoch: 1000
next table: 1056
cur table: 1059
epoch: 1000
next table: 1048
cur table: 1040
epoch: 1000
next table: 1074
cur table: 1056
epoch: 1000
next table: 1051
cur table: 1048
epoch: 1000
next table: 1062
cur table: 1074
epoch: 1000
next table: 1053
cur table: 1051
epoch: 1000
next table: 1068
cur table: 1062
epoch: 1000
next table: 1043
cur table: 1053
epoch: 1000
next table: 1069
cur table: 1068
epoch: 1000
next table: 1056
cur table: 1043
epoch: 1000
next table: 1063
cur table: 1069
epoch: 1000
next table: 1048
cur table: 1056
epoch: 1000
next table: 1075
cur table: 1063
epoch: 1000
next table: 1047
cur table: 1048
epoch: 1000
next table: 1059
cur table: 1075
epoch: 1000
next table: 1044
cur table: 1047
epoch: 1000
next table: 1066
cur table: 1059
epoch: 1000
next table: 1048
cur table: 1044
epoch: 1000
next table: 1060
cur table: 1066
epoch: 1000
next table: 1045
cur table: 1048
epoch: 1000
next table: 1062
cur table: 1060
epoch: 1000
next table: 1051
cur table: 1045
epoch: 1000
next table: 1071
cur table: 1062
epoch: 1000
next table: 1048
cur table: 1051
epoch: 1000
next table: 1066
cur table: 1071
epoch: 1000
next table: 1047
cur table: 1048
epoch: 1000
next table: 1061
cur table: 1066
epoch: 1000
next table: 1051
cur table: 1047
epoch: 1000
next table: 1062
cur table: 1061
epoch: 1000
next table: 1050
cur table: 1051
epoch: 1000
next table: 1064
cur table: 1062
epoch: 1000
next table: 1054
cur table: 1050
epoch: 1000
next table: 1070
cur table: 1064
epoch: 1000
next table: 1045
cur table: 1054
epoch: 1000
next table: 1061
cur table: 1070
epoch: 1000
next table: 1050
cur table: 1045
epoch: 1000
next table: 1067
cur table: 1061
epoch: 1000
next table: 1043
cur table: 1050
epoch: 1000
next table: 1060
cur table: 1067
epoch: 1000
next table: 1049
cur table: 1043
epoch: 1000
next table: 1061
cur table: 1060
epoch: 1000
next table: 1049
cur table: 1049
epoch: 1000
next table: 1071
cur table: 1061
epoch: 1000
next table: 1063
cur table: 1071
epoch: 1000
next table: 1048
cur table: 1049
epoch: 1000
next table: 1064
cur table: 1063
epoch: 1000
next table: 1045
cur table: 1048
epoch: 1000
next table: 1060
cur table: 1064
epoch: 1000
next table: 1046
cur table: 1045
epoch: 1000
next table: 1057
cur table: 1060
epoch: 1000
next table: 1042
cur table: 1046
epoch: 1000
next table: 1066
cur table: 1057
epoch: 1000
next table: 1046
cur table: 1042
epoch: 1000
next table: 1065
cur table: 1066
epoch: 1000
next table: 1052
cur table: 1046
epoch: 1000
next table: 1070
cur table: 1065
epoch: 1000
next table: 1056
cur table: 1052
epoch: 1000
next table: 1063
cur table: 1070
epoch: 1000
next table: 1043
cur table: 1056
epoch: 1000
next table: 1065
cur table: 1063
epoch: 1000
next table: 1049
cur table: 1043
epoch: 1000
next table: 1067
cur table: 1065
epoch: 1000
next table: 1048
cur table: 1049
epoch: 1000
next table: 1057
cur table: 1067
epoch: 1000
next table: 1047
cur table: 1048
epoch: 1000
next table: 1069
cur table: 1057
epoch: 1000
next table: 1051
cur table: 1047
epoch: 1000
next table: 1063
cur table: 1069
epoch: 1000
next table: 1054
cur table: 1051
epoch: 1000
next table: 1058
cur table: 1063
epoch: 1000
next table: 1046
cur table: 1054
epoch: 1000
next table: 1067
cur table: 1058
epoch: 1000
next table: 1047
cur table: 1046
epoch: 1000
next table: 1058
cur table: 1067
epoch: 1000
next table: 1047
cur table: 1047
epoch: 1000
next table: 1069
cur table: 1058
epoch: 1000
next table: 1048
cur table: 1047
epoch: 1000
next table: 1061
cur table: 1069
epoch: 1000
next table: 1044
cur table: 1048
epoch: 1000
next table: 1064
cur table: 1061
epoch: 1000
next table: 1056
cur table: 1044
epoch: 1000
next table: 1072
cur table: 1064
epoch: 1000
next table: 1041
cur table: 1056
epoch: 1000
next table: 1061
cur table: 1072
epoch: 1000
next table: 1051
cur table: 1041
epoch: 1000
next table: 1074
cur table: 1061
epoch: 1000
next table: 1049
cur table: 1051
epoch: 1000
next table: 1060
cur table: 1074
epoch: 1000
next table: 1049
cur table: 1049
epoch: 1000
next table: 1057
cur table: 1060
epoch: 1000
next table: 1043
cur table: 1049
epoch: 1000
next table: 1069
cur table: 1057
epoch: 1000
next table: 1047
cur table: 1043
epoch: 1000
next table: 1058
cur table: 1069
epoch: 1000
next table: 1046
cur table: 1047
epoch: 1000
next table: 1065
cur table: 1058
epoch: 1000
next table: 1052
cur table: 1046
epoch: 1000
next table: 1063
cur table: 1065
epoch: 1000
next table: 1040
cur table: 1052
epoch: 1000
next table: 1058
cur table: 1063
epoch: 1000
next table: 1048
cur table: 1040
epoch: 1000
next table: 1067
cur table: 1058
epoch: 1000
next table: 1043
cur table: 1048
epoch: 1000
next table: 1062
cur table: 1067
epoch: 1000
next table: 1055
cur table: 1043
epoch: 1000
next table: 1075
cur table: 1062
epoch: 1000
next table: 1065
cur table: 1055
epoch: 1000
next table: 1069
cur table: 1075
epoch: 1000
next table: 1047
cur table: 1065
epoch: 1000
next table: 1063
cur table: 1069
epoch: 1000
next table: 1049
cur table: 1047
epoch: 1000
next table: 1065
cur table: 1063
epoch: 1000
next table: 1044
cur table: 1049
epoch: 1000
next table: 1062
cur table: 1065
epoch: 1000
next table: 1048
cur table: 1044
epoch: 1000
next table: 1062
cur table: 1062
epoch: 1000
next table: 1066
cur table: 1062
epoch: 1000
next table: 1049
cur table: 1048
epoch: 1000
next table: 1060
cur table: 1066
epoch: 1000
next table: 1048
cur table: 1049
epoch: 1000
next table: 1065
cur table: 1060
epoch: 1000
next table: 1044
cur table: 1048
epoch: 1000
next table: 1056
cur table: 1065
epoch: 1000
next table: 1043
cur table: 1044
epoch: 1000
next table: 1061
cur table: 1056
epoch: 1000
next table: 1044
cur table: 1043
epoch: 1000
next table: 1061
cur table: 1061
epoch: 1000
next table: 1049
cur table: 1044
epoch: 1000
next table: 1064
cur table: 1061
epoch: 1000
next table: 1048
cur table: 1049
epoch: 1000
next table: 1072
cur table: 1064
epoch: 1000
next table: 1052
cur table: 1048
epoch: 1000
next table: 1066
cur table: 1072
epoch: 1000
next table: 1052
cur table: 1052
epoch: 1000
next table: 1068
cur table: 1066
epoch: 1000
next table: 1055
cur table: 1052
epoch: 1000
next table: 1064
cur table: 1068
epoch: 1000
next table: 1045
cur table: 1055
epoch: 1000
next table: 1060
cur table: 1064
epoch: 1000
next table: 1048
cur table: 1045
epoch: 1000
next table: 1065
cur table: 1060
epoch: 1000
next table: 1044
cur table: 1048
epoch: 1000
next table: 1067
cur table: 1065
epoch: 1000
next table: 1058
cur table: 1044
epoch: 1000
next table: 1063
cur table: 1067
epoch: 1000
next table: 1051
cur table: 1058
epoch: 1000
next table: 1062
cur table: 1063
epoch: 1000
next table: 1043
cur table: 1051
epoch: 1000
next table: 1059
cur table: 1062
epoch: 1000
next table: 1043
cur table: 1043
epoch: 1000
next table: 1066
cur table: 1059
epoch: 1000
next table: 1047
cur table: 1043
epoch: 1000
next table: 1070
cur table: 1066
epoch: 1000
next table: 1053
cur table: 1047
epoch: 1000
next table: 1067
cur table: 1070
epoch: 1000
next table: 1053
cur table: 1053
epoch: 1000
next table: 1061
cur table: 1067
epoch: 1000
next table: 1045
cur table: 1053
epoch: 1000
next table: 1063
cur table: 1061
epoch: 1000
next table: 1052
cur table: 1045
epoch: 1000
next table: 1068
cur table: 1063
epoch: 1000
next table: 1043
cur table: 1052
epoch: 1000
next table: 1056
cur table: 1068
epoch: 1000
next table: 1050
cur table: 1043
epoch: 1000
next table: 1065
cur table: 1056
epoch: 1000
next table: 1048
cur table: 1050
epoch: 1000
next table: 1064
cur table: 1065
epoch: 1000
next table: 1049
cur table: 1048
epoch: 1000
next table: 1060
cur table: 1064
epoch: 1000
next table: 1047
cur table: 1049
epoch: 1000
next table: 1070
cur table: 1060
epoch: 1000
next table: 1044
cur table: 1047
epoch: 1000
next table: 1057
cur table: 1070
epoch: 1000
next table: 1050
cur table: 1044
epoch: 1000
next table: 1067
cur table: 1057
epoch: 1000
next table: 1047
cur table: 1050
epoch: 1000
next table: 1062
cur table: 1067
epoch: 1000
next table: 1043
cur table: 1047
epoch: 1000
next table: 1057
cur table: 1062
epoch: 1000
next table: 1051
cur table: 1043
epoch: 1000
next table: 1073
cur table: 1057
epoch: 1000
next table: 1043
cur table: 1051
[...]
epoch: 1000
next table: 1093
cur table: 1093
epoch: 1000
next table: 1055
cur table: 1047
epoch: 1000
next table: 1094
cur table: 1093
epoch: 1000
next table: 1041
cur table: 1055
epoch: 1000
next table: 1085
cur table: 1094
epoch: 1000
next table: 1050
cur table: 1041
epoch: 1000
next table: 1090
cur table: 1085
epoch: 1000
next table: 1091
cur table: 1090
epoch: 1000
next table: 1046
cur table: 1050
epoch: 1000
next table: 1091
cur table: 1091
epoch: 1000
next table: 1052
cur table: 1046
epoch: 1000
next table: 1091
cur table: 1091
epoch: 1000
next table: 1049
cur table: 1052
epoch: 1000
next table: 1076
cur table: 1091
epoch: 1000
next table: 1043
cur table: 1049
epoch: 1000
next table: 1099
cur table: 1076
epoch: 1000
next table: 1048
cur table: 1043
epoch: 1000
next table: 1089
cur table: 1099
epoch: 1000
next table: 1059
cur table: 1048
epoch: 1000
next table: 1086
cur table: 1089
epoch: 1000
next table: 1050
cur table: 1059
epoch: 1000
next table: 1095
cur table: 1086
epoch: 1000
next table: 1056
cur table: 1050
epoch: 1000
next table: 1091
cur table: 1095
epoch: 1000
next table: 1052
cur table: 1056
epoch: 1000
next table: 1094
cur table: 1091
epoch: 1000
next table: 1052
cur table: 1052
epoch: 1000
next table: 1076
cur table: 1094
epoch: 1000
next table: 1048
cur table: 1052
epoch: 1000
next table: 1096
cur table: 1076
epoch: 1000
next table: 1047
cur table: 1048
epoch: 1000
next table: 1092
cur table: 1096
epoch: 1000
next table: 1048
cur table: 1047
epoch: 1000
next table: 1096
cur table: 1092
epoch: 1000
next table: 1048
cur table: 1048
epoch: 1000
next table: 1106
cur table: 1096
epoch: 1000
next table: 1056
cur table: 1048
epoch: 1000
next table: 1092
cur table: 1106
epoch: 1000
next table: 1044
cur table: 1056
epoch: 1000
next table: 1090
cur table: 1092
epoch: 1000
next table: 1052
cur table: 1044
epoch: 1000
next table: 1094
cur table: 1090
epoch: 1000
next table: 1051
cur table: 1052
epoch: 1000
next table: 1101
cur table: 1094
epoch: 1000
next table: 1053
cur table: 1051
epoch: 1000
next table: 1106
cur table: 1101
epoch: 1000
next table: 1053
cur table: 1053
epoch: 1000
next table: 1084
cur table: 1106
epoch: 1000
next table: 1054
cur table: 1053
epoch: 1000
next table: 1093
cur table: 1084
epoch: 1000
next table: 1051
cur table: 1054
epoch: 1000
next table: 1099
cur table: 1093
epoch: 1000
next table: 1048
cur table: 1051
epoch: 1000
next table: 1087
cur table: 1099
epoch: 1000
next table: 1046
cur table: 1048
epoch: 1000
next table: 1090
cur table: 1087
Heartbeat CPU 0 instructions: 100000001 cycles: 68557185 heartbeat IPC: 0.961059 cumulative IPC: 0.961328 (Simulation time: 1 hr 16 min 30 sec) 
Finished CPU 0 instructions: 50000000 cycles: 52011396 cumulative IPC: 0.961328 (Simulation time: 1 hr 16 min 30 sec) 

ChampSim completed all CPUs

Region of Interest Statistics

CPU 0 cumulative IPC: 0.961328 instructions: 50000000 cycles: 52011396
ITLB TOTAL     ACCESS:    6356531  HIT:    6356531  MISS:          0  HIT %:        100  MISS %:          0   MPKI: 0
ITLB LOAD TRANSLATION ACCESS:    6356531  HIT:    6356531  MISS:          0  HIT %:        100  MISS %:          0   MPKI: 0
ITLB PREFETCH  REQUESTED:          0  ISSUED:          0  USEFUL:          0  USELESS:          0
ITLB USEFUL LOAD PREFETCHES:          0 PREFETCH ISSUED TO LOWER LEVEL:          0  ACCURACY: -nan
ITLB TIMELY PREFETCHES:          0 LATE PREFETCHES: 0 DROPPED PREFETCHES: 0
ITLB PREFETCHES SAME FILL-ORIGIN LEVEL: 0 DIFFERENT FILL-ORIGIN LEVEL: 0
ITLB AVERAGE MISS LATENCY: -nan cycles
ITLB RQ	ACCESS:    8463099	FORWARD:          0	MERGED:    2106568	TO_CACHE:    6356531

Revised Interactions: positive negative neutral
ITLB_interactions 0 0 0 -nan -nan -nan
DTLB TOTAL     ACCESS:   17203692  HIT:   17167330  MISS:      36362  HIT %:    99.7886  MISS %:   0.211362   MPKI: 0.72724
DTLB LOAD TRANSLATION ACCESS:   17203692  HIT:   17167330  MISS:      36362  HIT %:    99.7886  MISS %:   0.211362   MPKI: 0.72724
DTLB PREFETCH  REQUESTED:          0  ISSUED:          0  USEFUL:          0  USELESS:          0
DTLB USEFUL LOAD PREFETCHES:          0 PREFETCH ISSUED TO LOWER LEVEL:          0  ACCURACY: -nan
DTLB TIMELY PREFETCHES:          0 LATE PREFETCHES: 0 DROPPED PREFETCHES: 0
DTLB PREFETCHES SAME FILL-ORIGIN LEVEL: 0 DIFFERENT FILL-ORIGIN LEVEL: 0
DTLB AVERAGE MISS LATENCY: 211.827 cycles
DTLB RQ	ACCESS:   19662179	FORWARD:          0	MERGED:    2454116	TO_CACHE:   17208063

Revised Interactions: positive negative neutral
DTLB_interactions 0 0 0 -nan -nan -nan
STLB TOTAL     ACCESS:    3758643  HIT:    3743791  MISS:      14852  HIT %:    99.6049  MISS %:   0.395143   MPKI: 0.29704
STLB LOAD TRANSLATION ACCESS:      36362  HIT:      21510  MISS:      14852  HIT %:    59.1552  MISS %:    40.8448   MPKI: 0.29704
STLB TRANSLATION FROM L1D PREFETCHER ACCESS:    3722281  HIT:    3722281  MISS:          0  HIT %:        100  MISS %:          0   MPKI: 0
STLB PREFETCH  REQUESTED:          0  ISSUED:          0  USEFUL:          0  USELESS:          0
STLB USEFUL LOAD PREFETCHES:          0 PREFETCH ISSUED TO LOWER LEVEL:          0  ACCURACY: -nan
STLB TIMELY PREFETCHES:          0 LATE PREFETCHES: 0 DROPPED PREFETCHES: 0
STLB PREFETCHES SAME FILL-ORIGIN LEVEL: 0 DIFFERENT FILL-ORIGIN LEVEL: 0
STLB AVERAGE MISS LATENCY: 470.347 cycles
STLB RQ	ACCESS:   17452291	FORWARD:          0	MERGED:   13693646	TO_CACHE:    3758645

Revised Interactions: positive negative neutral
STLB_interactions 0 0 0 -nan -nan -nan
STLB Hit, L1D data hit: 0
STLB Hit, L2C data hit: 0
STLB Hit, LLC data hit: 0
STLB Hit, LLC data miss: 0
STLB STLB hints to L2: 0
L1D TOTAL     ACCESS:   37044982  HIT:   36041166  MISS:    1003816  HIT %:    97.2903  MISS %:    2.70972   MPKI: 20.0763
L1D LOAD      ACCESS:   16840809  HIT:   16793004  MISS:      47805  HIT %:    99.7161  MISS %:   0.283864   MPKI: 0.9561
L1D RFO       ACCESS:    2807580  HIT:    2783218  MISS:      24362  HIT %:    99.1323  MISS %:   0.867722   MPKI: 0.48724
L1D PREFETCH  ACCESS:   17396593  HIT:   16464944  MISS:     931649  HIT %:    94.6446  MISS %:    5.35535   MPKI: 18.633
L1D PREFETCH  REQUESTED:   49514592  ISSUED:   34863078  USEFUL:     927432  USELESS:       4211
L1D USEFUL LOAD PREFETCHES:     927432 PREFETCH ISSUED TO LOWER LEVEL:     978800  ACCURACY: 94.7519
L1D TIMELY PREFETCHES:     927432 LATE PREFETCHES: 2015 DROPPED PREFETCHES: 0
L1D PREFETCHES SAME FILL-ORIGIN LEVEL: 978800 DIFFERENT FILL-ORIGIN LEVEL: 0
L1D AVERAGE MISS LATENCY: 46.3079 cycles
L1D RQ	ACCESS:   21266021	FORWARD:          0	MERGED:    4353008	TO_CACHE:   16845540
L1D WQ	ACCESS:    2816716	FORWARD:      67473	MERGED:         77	TO_CACHE:    2816639
L1D PQ	ACCESS:   17447149	FORWARD:          0	MERGED:      31220	TO_CACHE:   17415929

Revised Interactions: positive negative neutral
L1D_interactions 0 0 0 -nan -nan -nan
L1D UNIQUE REGIONS ACCESSED: 0
L1D REGIONS CONFLICTS: 0
L1D Cross Page Prefetch Requests: 0
L1D Same Page Prefetch Requests: 31231478
L1D ROI Sum of L1D PQ occupancy: 264189730
L1D PREFETCHES PUSHED FROM L2C: 0
L1I TOTAL     ACCESS:    8463096  HIT:    8463096  MISS:          0  HIT %:        100  MISS %:          0   MPKI: 0
L1I LOAD      ACCESS:    8463096  HIT:    8463096  MISS:          0  HIT %:        100  MISS %:          0   MPKI: 0
L1I PREFETCH  REQUESTED:          0  ISSUED:          0  USEFUL:          0  USELESS:          0
L1I USEFUL LOAD PREFETCHES:          0 PREFETCH ISSUED TO LOWER LEVEL:          0  ACCURACY: -nan
L1I TIMELY PREFETCHES:          0 LATE PREFETCHES: 0 DROPPED PREFETCHES: 0
L1I PREFETCHES SAME FILL-ORIGIN LEVEL: 0 DIFFERENT FILL-ORIGIN LEVEL: 0
L1I AVERAGE MISS LATENCY: -nan cycles
L1I RQ	ACCESS:   11737619	FORWARD:          0	MERGED:    3274520	TO_CACHE:    8463099

Revised Interactions: positive negative neutral
L1I_interactions 0 0 0 -nan -nan -nan
BTB TOTAL     ACCESS:    1208718  HIT:    1208713  MISS:          5  HIT %:    99.9996  MISS %: 0.000413661   MPKI: 0.0001
BTB BRANCH_DIRECT_JUMP	ACCESS:          0  HIT:          0  MISS:          0
BTB BRANCH_INDIRECT	ACCESS:          0  HIT:          0  MISS:          0
BTB BRANCH_CONDITIONAL	ACCESS:    1208718  HIT:    1208713  MISS:          5
BTB BRANCH_DIRECT_CALL	ACCESS:          0  HIT:          0  MISS:          0
BTB BRANCH_INDIRECT_CALL	ACCESS:          0  HIT:          0  MISS:          0
BTB BRANCH_RETURN	ACCESS:          0  HIT:          0  MISS:          0
BTB BRANCH_OTHER ACCESS:          0  HIT:          0  MISS:          0

L2C TOTAL     ACCESS:    4027517  HIT:    3072381  MISS:     955136  HIT %:    76.2847  MISS %:    23.7153   MPKI: 19.1027
L2C LOAD      ACCESS:      47805  HIT:      27706  MISS:      20099  HIT %:    57.9563  MISS %:    42.0437   MPKI: 0.40198
L2C DATA LOAD MPKI: 0.40198
L2C INSTRUCTION LOAD MPKI: 0
L2C RFO       ACCESS:      24362  HIT:          0  MISS:      24362  HIT %:          0  MISS %:        100   MPKI: 0.48724
L2C PREFETCH  ACCESS:    3915757  HIT:    3008979  MISS:     906778  HIT %:    76.8428  MISS %:    23.1572   MPKI: 18.1356
L2C DATA PREFETCH MPKI: 18.1356
L2C INSTRUCTION PREFETCH MPKI: 0
L2C WRITEBACK ACCESS:      24739  HIT:      22939  MISS:       1800  HIT %:     92.724  MISS %:    7.27596   MPKI: 0.036
L2C LOAD TRANSLATION ACCESS:      14854  HIT:      12757  MISS:       2097  HIT %:    85.8826  MISS %:    14.1174   MPKI: 0.04194
L2C PREFETCH  REQUESTED:    4904738  ISSUED:    4527111  USEFUL:      26312  USELESS:     880671
L2C USEFUL LOAD PREFETCHES:      26312 PREFETCH ISSUED TO LOWER LEVEL:     907341  ACCURACY: 2.8999
L2C TIMELY PREFETCHES:      26312 LATE PREFETCHES: 557 DROPPED PREFETCHES: 0
L2C PREFETCHES SAME FILL-ORIGIN LEVEL: 813372 DIFFERENT FILL-ORIGIN LEVEL: 0
L2C AVERAGE MISS LATENCY: 168.231 cycles
L2C RQ	ACCESS:      87021	FORWARD:          0	MERGED:          0	TO_CACHE:      87021
L2C WQ	ACCESS:      24739	FORWARD:          0	MERGED:          0	TO_CACHE:      24739
L2C PQ	ACCESS:    5458764	FORWARD:          0	MERGED:    1358358	TO_CACHE:    4100406

Revised Interactions: positive negative neutral
L2C_interactions 27888 879235 27301 2.98451 94.0938 2.92169
L2C Instructions Evicting Data 0
L2C Translations Evicting Data 2094
L2C Data Evicting Data 949158
L2C Instructions Evicting Instructions 0
L2C Translations Evicting Instructions 0
L2C Data Evicting Instructions 0
L2C Instructions Evicting Translations 0
L2C Translations Evicting Translations 3
L2C Data Evicting Translations 2081
L2C Dense regions hint from L2: 0
PSCL5 TOTAL     ACCESS:      14852  HIT:      14852  MISS:          0  HIT %:        100  MISS %:          0   MPKI: 0
PSCL5 LOAD TRANSLATION ACCESS:      14852  HIT:      14852  MISS:          0  HIT %:        100  MISS %:          0   MPKI: 0
PSCL5 PREFETCH  REQUESTED:          0  ISSUED:          0  USEFUL:          0  USELESS:          0
PSCL5 USEFUL LOAD PREFETCHES:          0 PREFETCH ISSUED TO LOWER LEVEL:          0  ACCURACY: -nan
PSCL5 TIMELY PREFETCHES:          0 LATE PREFETCHES: 0 DROPPED PREFETCHES: 0
PSCL5 PREFETCHES SAME FILL-ORIGIN LEVEL: 0 DIFFERENT FILL-ORIGIN LEVEL: 0

Revised Interactions: positive negative neutral
PSCL5_interactions 0 0 0 -nan -nan -nan
PSCL4 TOTAL     ACCESS:      14852  HIT:      14852  MISS:          0  HIT %:        100  MISS %:          0   MPKI: 0
PSCL4 LOAD TRANSLATION ACCESS:      14852  HIT:      14852  MISS:          0  HIT %:        100  MISS %:          0   MPKI: 0
PSCL4 PREFETCH  REQUESTED:          0  ISSUED:          0  USEFUL:          0  USELESS:          0
PSCL4 USEFUL LOAD PREFETCHES:          0 PREFETCH ISSUED TO LOWER LEVEL:          0  ACCURACY: -nan
PSCL4 TIMELY PREFETCHES:          0 LATE PREFETCHES: 0 DROPPED PREFETCHES: 0
PSCL4 PREFETCHES SAME FILL-ORIGIN LEVEL: 0 DIFFERENT FILL-ORIGIN LEVEL: 0

Revised Interactions: positive negative neutral
PSCL4_interactions 0 0 0 -nan -nan -nan
PSCL3 TOTAL     ACCESS:      14852  HIT:      14852  MISS:          0  HIT %:        100  MISS %:          0   MPKI: 0
PSCL3 LOAD TRANSLATION ACCESS:      14852  HIT:      14852  MISS:          0  HIT %:        100  MISS %:          0   MPKI: 0
PSCL3 PREFETCH  REQUESTED:          0  ISSUED:          0  USEFUL:          0  USELESS:          0
PSCL3 USEFUL LOAD PREFETCHES:          0 PREFETCH ISSUED TO LOWER LEVEL:          0  ACCURACY: -nan
PSCL3 TIMELY PREFETCHES:          0 LATE PREFETCHES: 0 DROPPED PREFETCHES: 0
PSCL3 PREFETCHES SAME FILL-ORIGIN LEVEL: 0 DIFFERENT FILL-ORIGIN LEVEL: 0

Revised Interactions: positive negative neutral
PSCL3_interactions 0 0 0 -nan -nan -nan
PSCL2 TOTAL     ACCESS:      14852  HIT:      14821  MISS:         31  HIT %:    99.7913  MISS %:   0.208726   MPKI: 0.00062
PSCL2 LOAD TRANSLATION ACCESS:      14852  HIT:      14821  MISS:         31  HIT %:    99.7913  MISS %:   0.208726   MPKI: 0.00062
PSCL2 PREFETCH  REQUESTED:          0  ISSUED:          0  USEFUL:          0  USELESS:          0
PSCL2 USEFUL LOAD PREFETCHES:          0 PREFETCH ISSUED TO LOWER LEVEL:          0  ACCURACY: -nan
PSCL2 TIMELY PREFETCHES:          0 LATE PREFETCHES: 0 DROPPED PREFETCHES: 0
PSCL2 PREFETCHES SAME FILL-ORIGIN LEVEL: 0 DIFFERENT FILL-ORIGIN LEVEL: 0

Revised Interactions: positive negative neutral
PSCL2_interactions 0 0 0 -nan -nan -nan
LLC TOTAL     ACCESS:     977797  HIT:      23116  MISS:     954681  HIT %:    2.36409  MISS %:    97.6359   MPKI: 19.0936
LLC LOAD      ACCESS:      19542  HIT:        859  MISS:      18683  HIT %:    4.39566  MISS %:    95.6043   MPKI: 0.37366
LLC RFO       ACCESS:      24362  HIT:          0  MISS:      24362  HIT %:          0  MISS %:        100   MPKI: 0.48724
LLC PREFETCH  ACCESS:     907335  HIT:      21602  MISS:     885733  HIT %:    2.38082  MISS %:    97.6192   MPKI: 17.7147
LLC WRITEBACK ACCESS:      24461  HIT:        458  MISS:      24003  HIT %:    1.87237  MISS %:    98.1276   MPKI: 0.48006
LLC LOAD TRANSLATION ACCESS:       2097  HIT:        197  MISS:       1900  HIT %:    9.39437  MISS %:    90.6056   MPKI: 0.038
LLC PREFETCH  REQUESTED:          0  ISSUED:          0  USEFUL:          2  USELESS:     885489
LLC USEFUL LOAD PREFETCHES:          2 PREFETCH ISSUED TO LOWER LEVEL:     885734  ACCURACY: 0.000225801
LLC TIMELY PREFETCHES:          2 LATE PREFETCHES: 0 DROPPED PREFETCHES: 0
LLC PREFETCHES SAME FILL-ORIGIN LEVEL: 0 DIFFERENT FILL-ORIGIN LEVEL: 0
LLC AVERAGE MISS LATENCY: 136.716 cycles
LLC RQ	ACCESS:      46001	FORWARD:          0	MERGED:          0	TO_CACHE:      46001
LLC WQ	ACCESS:      24461	FORWARD:          0	MERGED:          0	TO_CACHE:      24461
LLC PQ	ACCESS:     907341	FORWARD:          0	MERGED:          0	TO_CACHE:     907341

Revised Interactions: positive negative neutral
LLC_interactions 87 884143 28351 0.0095334 96.8838 3.10668
LLC Dense regions hint to LLC: 0

RAW hits: 223999
Loads Generated: 21490025
Loads sent to L1D: 21266021
Stores Generated: 2816716
Stores sent to L1D: 2816716
Major fault: 0 Minor fault: 28543
Allocated PAGES: 28543

stream: 
stream:times selected: 11421063
stream:pref_filled: 1854621
stream:pref_useful: 1854358
stream:pref_late: 4392
stream:misses: 188
stream:misses_by_poll: 0

CS: 
CS:times selected: 11063950
CS:pref_filled: 9339
CS:pref_useful: 9339
CS:pref_late: 62
CS:misses: 74756
CS:misses_by_poll: 41

CPLX: 
CPLX:times selected: 356948
CPLX:pref_filled: 24513
CPLX:pref_useful: 16216
CPLX:pref_late: 17
CPLX:misses: 1038
CPLX:misses_by_poll: 29

NL_L1: 
NL:times selected: 3301
NL:pref_filled: 5
NL:pref_useful: 5
NL:pref_late: 0
NL:misses: 3
NL:misses_by_poll: 0

total selections: 22845262
total_filled: 931649
total_useful: 927432
total_late: 4471
total_polluted: 70
total_misses_after_warmup: 52543
conflicts: 6
Degree Incremented Times: 217923
Degree Decremented Times: 0

L1 IP Table Write Accesses: 16844713
L1 IP Table Read Accesses: 16844707
L1 RST Write Accesses: 5776318
L1 RST Read Accesses: 11552636
L1 CSPT Write Accesses: 5776318
L1 CSPT Read Accesses: 6279551
L1 RR Filter Tag Write Accesses: 32098663
L1 RR Filter Tag Read Accesses: 1487462657
L1 IP Table Tag Write Accesses: 16845547
L1 IP Table Tag Read Accesses: 16845547
L1 RST Tag Write Accesses: 0
L1 RST Tag Read Accesses: 51983386
L1 RR Filter Write Accesses: 0
L1 RR Filter Read Accesses: 49391077
test: 226467
L2 IP Table Read Accesses: 1769808
L2 IP Table Write Accesses: 1722003
L2 IP Table Tag Read Accesses: 884904
L2 IP Table Tag Write Accesses: 884904

DRAM Statistics
 CHANNEL 0
 RQ ROW_BUFFER_HIT:     672597  ROW_BUFFER_MISS:     258081
 DBUS_CONGESTED:        408
 WQ ROW_BUFFER_HIT:       2780  ROW_BUFFER_MISS:      21683  FULL:          0

 AVG_CONGESTED_CYCLE: 4
 All warmup complete: 2
Channel 0 Bank busy for read cycles: 0
Channel 0 Bank busy for write cycles: 0
Channel 0
Rank 0
0banks busy for read cycles: 23436378
0banks busy for write cycles: 9861
1banks busy for read cycles: 9111302
1banks busy for write cycles: 1045716
2banks busy for read cycles: 5570520
2banks busy for write cycles: 568987
3banks busy for read cycles: 4254118
3banks busy for write cycles: 356502
4banks busy for read cycles: 2662853
4banks busy for write cycles: 155541
5banks busy for read cycles: 1729561
5banks busy for write cycles: 81353
6banks busy for read cycles: 1176407
6banks busy for write cycles: 47696
7banks busy for read cycles: 1092998
7banks busy for write cycles: 32237
8banks busy for read cycles: 665987
8banks busy for write cycles: 13380

CPU 0 Branch Prediction Accuracy: 81.2318% MPKI: 4.68478 Average ROB Occupancy at Mispredict: 35.8404
Branch types
NOT_BRANCH: 48751603 97.5032%
BRANCH_DIRECT_JUMP: 0 0%
BRANCH_INDIRECT: 0 0%
BRANCH_CONDITIONAL: 1248063 2.49613%
BRANCH_DIRECT_CALL: 0 0%
BRANCH_INDIRECT_CALL: 0 0%
BRANCH_RETURN: 0 0%
BRANCH_OTHER: 0 0%

@sumon_overall_L1D    927432      2015      2015      4211    931649  34863078  49514592
@Sumon_Early_by_class_L1D    914996      3750      8683         0
@Sumon_Late_by_class_L1D      1950        11         0         0

@Sumon_Early_by_cycle_L1D     11927      6918     18415     23134     38417    530727    178233     19696     99929        25        11         0
@Sumon_Late_by_cycle_L1D       579       190       108       171       910         3
@Sumon_Early_stream_L1D     11884      6865     18202     22828     37861    528109    178083     18990     92174         0         0         0
@Sumon_Early_CS_L1D        31        36       183       266       462      2472       106       193         1         0         0         0
@Sumon_Early_CPLX_L1D        12        17        30        39        94       144        44       513      7754        25        11         0
@Sumon_Late_stream_L1D       577       185       108       170       907         3
@Sumon_Late_CS_L1D         2         5         0         1         3         0
@Sumon_Late_CPLX_L1D         0         0         0         0         0         0
@sumon_overall_L2C     26312       557         0    880671    906778   4527111   4904738
@Sumon_Early_by_class_L2C     26148       159         5         0
@Sumon_Late_by_class_L2C       385         3         0         0

@Sumon_Early_by_cycle_L2C        86        67        82        91       279      9922     15566        58        53       101         0         7
@Sumon_Late_by_cycle_L2C        86        65        26        77       302         1
@Sumon_Early_stream_L2C        86        64        80        86       247      9809     15564        56        49       100         0         7
@Sumon_Early_CS_L2C         0         3         2         5        32       113         2         2         0         0         0         0
@Sumon_Early_CPLX_L2C         0         0         0         0         0         0         0         0         4         1         0         0
@Sumon_Late_stream_L2C         0        10        26        77       271         1
@Sumon_Late_CS_L2C         0         0         0         0         3         0
@Sumon_Late_CPLX_L2C         0         0         0         0         0         0
DRAM PAGES: 1048576
Allocated PAGES: 28543
