
*** ChampSim Multicore Out-of-Order Simulator ***

Warmup Instructions: 50000000
Simulation Instructions: 50000000
Number of CPUs: 1
LLC sets: 2048
LLC ways: 16
Off-chip DRAM Size: 4096 MB Channels: 1 Width: 64-bit Data Rate: 6400 MT/s
CPU 0 runs ../../biswa/SPEC2017Traces/603.bwaves_s-2931B.champsimtrace.xz
.xz
CPU 0 Bimodal branch predictor
BTB has LRU replacement policy
ITLB has LRU replacement policy
DTLB has LRU replacement policy
STLB has LRU replacement policy
L1I has LRU replacement policy
IP Table Entries: 256
L1D has LRU replacement policy
IP_Table L2 entries: 256
Initialize DRRIP state for L2C
Initialize Hawkeye state
epoch: 1000
next table: 2069
cur table: 8726
epoch: 1000
next table: 1952
cur table: 2069
epoch: 1000
next table: 1899
cur table: 1952
epoch: 1000
next table: 1918
cur table: 1899
epoch: 1000
next table: 1965
cur table: 1918
epoch: 1000
next table: 1982
cur table: 1965
epoch: 1000
next table: 1963
cur table: 1982
epoch: 1000
next table: 1941
cur table: 1963
epoch: 1000
next table: 1968
cur table: 1941
epoch: 1000
next table: 1975
cur table: 1968
epoch: 1000
next table: 1968
cur table: 1975
epoch: 1000
next table: 1966
cur table: 1968
epoch: 1000
next table: 1921
cur table: 1966
epoch: 1000
next table: 1931
cur table: 1921
epoch: 1000
next table: 1814
cur table: 1931
epoch: 1000
next table: 1927
cur table: 1814
epoch: 1000
next table: 1911
cur table: 1927
epoch: 1000
next table: 1929
cur table: 1911
epoch: 1000
next table: 1990
cur table: 1929
epoch: 1000
next table: 1963
cur table: 1990
epoch: 1000
next table: 1912
cur table: 1963
epoch: 1000
next table: 1929
cur table: 1912
epoch: 1000
next table: 1929
cur table: 1929
epoch: 1000
next table: 1887
cur table: 1929
epoch: 1000
next table: 1830
cur table: 1887
epoch: 1000
next table: 1869
cur table: 1830
epoch: 1000
next table: 1719
cur table: 15172
epoch: 1000
next table: 1935
cur table: 1869
epoch: 1000
next table: 1539
cur table: 1719
epoch: 1000
next table: 1924
cur table: 1935
epoch: 1000
next table: 1500
cur table: 1539
epoch: 1000
next table: 1921
cur table: 1924
epoch: 1000
next table: 1458
cur table: 1500
epoch: 1000
next table: 1941
cur table: 1921
epoch: 1000
next table: 1447
cur table: 1458
epoch: 1000
next table: 1943
cur table: 1941
epoch: 1000
next table: 1448
cur table: 1447
epoch: 1000
next table: 1945
cur table: 1943
epoch: 1000
next table: 1455
cur table: 1448
epoch: 1000
next table: 1936
cur table: 1945
epoch: 1000
next table: 1963
cur table: 1936
epoch: 1000
next table: 1450
cur table: 1455
epoch: 1000
next table: 1918
cur table: 1963
epoch: 1000
next table: 1452
cur table: 1450
epoch: 1000
next table: 1912
cur table: 1918
epoch: 1000
next table: 1444
cur table: 1452
epoch: 1000
next table: 1789
cur table: 1912
epoch: 1000
next table: 1451
cur table: 1444
epoch: 1000
next table: 1953
cur table: 1789
epoch: 1000
next table: 1450
cur table: 1451
epoch: 1000
next table: 1984
cur table: 1953
epoch: 1000
next table: 1443
cur table: 1450
epoch: 1000
next table: 1940
cur table: 1984
epoch: 1000
next table: 1439
cur table: 1443
epoch: 1000
next table: 1971
cur table: 1940
epoch: 1000
next table: 1431
cur table: 1439
epoch: 1000
next table: 1954
cur table: 1971
epoch: 1000
next table: 1436
cur table: 1431
epoch: 1000
next table: 1964
cur table: 1954
epoch: 1000
next table: 1427
cur table: 1436
epoch: 1000
next table: 1958
cur table: 1964
epoch: 1000
next table: 1416
cur table: 1427
epoch: 1000
next table: 1940
cur table: 1958
epoch: 1000
next table: 1425
cur table: 1416
epoch: 1000
next table: 1983
cur table: 1940
epoch: 1000
next table: 1432
cur table: 1425
epoch: 1000
next table: 1927
cur table: 1983
epoch: 1000
next table: 1423
cur table: 1432
epoch: 1000
next table: 1900
cur table: 1927
epoch: 1000
next table: 1417
cur table: 1423
epoch: 1000
next table: 1774
cur table: 1900
epoch: 1000
next table: 1425
cur table: 1417
epoch: 1000
next table: 1929
cur table: 1774
epoch: 1000
next table: 1427
cur table: 1425
epoch: 1000
next table: 1956
cur table: 1929
epoch: 1000
next table: 1430
cur table: 1427
epoch: 1000
next table: 1955
cur table: 1956
epoch: 1000
next table: 1432
cur table: 1430
epoch: 1000
next table: 1937
cur table: 1955
epoch: 1000
next table: 1410
cur table: 1432
epoch: 1000
next table: 1914
cur table: 1937
epoch: 1000
next table: 1419
cur table: 1410
epoch: 1000
next table: 1890
cur table: 1914
epoch: 1000
next table: 1404
cur table: 1419
epoch: 1000
next table: 1935
cur table: 1890
epoch: 1000
next table: 1396
cur table: 1404
epoch: 1000
next table: 1887
cur table: 1935
epoch: 1000
next table: 1416
cur table: 1396
epoch: 1000
next table: 1890
cur table: 1887
epoch: 1000
next table: 1441
cur table: 1416
epoch: 1000
next table: 1789
cur table: 1890
epoch: 1000
next table: 1419
cur table: 1441
epoch: 1000
next table: 1887
cur table: 1789
epoch: 1000
next table: 1411
cur table: 1419
epoch: 1000
next table: 1871
cur table: 1887
epoch: 1000
next table: 1408
cur table: 1411
epoch: 1000
next table: 1946
cur table: 1871
epoch: 1000
next table: 1426
cur table: 1408
epoch: 1000
next table: 1925
cur table: 1946
epoch: 1000
next table: 1436
cur table: 1426
epoch: 1000
next table: 1923
cur table: 1925
epoch: 1000
next table: 1420
cur table: 1436
epoch: 1000
next table: 1896
cur table: 1923
epoch: 1000
next table: 1433
cur table: 1420
epoch: 1000
next table: 1919
cur table: 1896
epoch: 1000
next table: 1412
cur table: 1433
epoch: 1000
next table: 1876
cur table: 1919
epoch: 1000
next table: 1412
cur table: 1412
epoch: 1000
next table: 1738
cur table: 1876
epoch: 1000
next table: 1427
cur table: 1412
epoch: 1000
next table: 1972
cur table: 1738
epoch: 1000
next table: 1427
cur table: 1427
epoch: 1000
next table: 1845
cur table: 1972
epoch: 1000
next table: 1419
cur table: 1427
epoch: 1000
next table: 1938
cur table: 1845
epoch: 1000
next table: 1425
cur table: 1419
epoch: 1000
next table: 1892
cur table: 1938
epoch: 1000
next table: 1432
cur table: 1425
epoch: 1000
next table: 1948
cur table: 1892
epoch: 1000
next table: 1429
cur table: 1432
epoch: 1000
next table: 1918
cur table: 1948
epoch: 1000
next table: 1870
cur table: 1918
epoch: 1000
next table: 1426
cur table: 1429
epoch: 1000
next table: 1873
cur table: 1870
epoch: 1000
next table: 1442
cur table: 1426
epoch: 1000
next table: 1804
cur table: 1873
epoch: 1000
next table: 1419
cur table: 1442
epoch: 1000
next table: 1875
cur table: 1804
epoch: 1000
next table: 1434
cur table: 1419
epoch: 1000
next table: 1923
cur table: 1875
epoch: 1000
next table: 1428
cur table: 1434
epoch: 1000
next table: 1890
cur table: 1923
epoch: 1000
next table: 1405
cur table: 1428
epoch: 1000
next table: 1947
cur table: 1890
epoch: 1000
next table: 1423
cur table: 1405
epoch: 1000
next table: 1967
cur table: 1947
epoch: 1000
next table: 1416
cur table: 1423
epoch: 1000
next table: 1939
cur table: 1967
epoch: 1000
next table: 1425
cur table: 1416
epoch: 1000
next table: 1933
cur table: 1939
epoch: 1000
next table: 1425
cur table: 1425
epoch: 1000
next table: 1897
cur table: 1933
epoch: 1000
next table: 1436
cur table: 1425
epoch: 1000
next table: 1767
cur table: 1897
epoch: 1000
next table: 1435
cur table: 1436
epoch: 1000
next table: 1972
cur table: 1767
epoch: 1000
next table: 1455
cur table: 1435
epoch: 1000
next table: 1992
cur table: 1972
epoch: 1000
next table: 1454
cur table: 1455
epoch: 1000
next table: 1906
cur table: 1992
epoch: 1000
next table: 1426
cur table: 1454
epoch: 1000
next table: 1915
cur table: 1906
epoch: 1000
next table: 1424
cur table: 1426
epoch: 1000
next table: 1947
cur table: 1915
epoch: 1000
next table: 1422
cur table: 1424
epoch: 1000
next table: 1913
cur table: 1947
epoch: 1000
next table: 1434
cur table: 1422
epoch: 1000
next table: 1931
cur table: 1913
epoch: 1000
next table: 1432
cur table: 1434
epoch: 1000
next table: 1919
cur table: 1931
epoch: 1000
next table: 1404
cur table: 1432
epoch: 1000
next table: 1907
cur table: 1919
epoch: 1000
next table: 1427
cur table: 1404
epoch: 1000
next table: 1885
cur table: 1907
epoch: 1000
next table: 1429
cur table: 1427
epoch: 1000
next table: 1707
cur table: 1885
epoch: 1000
next table: 1418
cur table: 1429
epoch: 1000
next table: 1940
cur table: 1707
epoch: 1000
next table: 1423
cur table: 1418
epoch: 1000
next table: 1942
cur table: 1940
epoch: 1000
next table: 1430
cur table: 1423
epoch: 1000
next table: 1937
cur table: 1942
epoch: 1000
next table: 1428
cur table: 1430
epoch: 1000
next table: 1928
cur table: 1937
epoch: 1000
next table: 1426
cur table: 1428
epoch: 1000
next table: 1909
cur table: 1928
epoch: 1000
next table: 1425
cur table: 1426
epoch: 1000
next table: 1937
cur table: 1909
epoch: 1000
next table: 1417
cur table: 1425
epoch: 1000
next table: 1925
cur table: 1937
epoch: 1000
next table: 1437
cur table: 1417
epoch: 1000
next table: 1920
cur table: 1925
epoch: 1000
next table: 1449
cur table: 1437
epoch: 1000
next table: 1922
cur table: 1920
epoch: 1000
next table: 1402
cur table: 1449
epoch: 1000
next table: 1859
cur table: 1922
epoch: 1000
next table: 1423
cur table: 1402
epoch: 1000
next table: 1892
cur table: 1859
epoch: 1000
next table: 1433
cur table: 1423
epoch: 1000
next table: 1935
cur table: 1892
epoch: 1000
next table: 1445
cur table: 1433
epoch: 1000
next table: 1858
cur table: 1935
epoch: 1000
next table: 1426
cur table: 1445
epoch: 1000
next table: 1960
cur table: 1858
epoch: 1000
next table: 1424
cur table: 1426
epoch: 1000
next table: 1976
cur table: 1960
epoch: 1000
next table: 1422
cur table: 1424
epoch: 1000
next table: 1960
cur table: 1976
epoch: 1000
next table: 1427
cur table: 1422
epoch: 1000
next table: 1916
cur table: 1960
epoch: 1000
next table: 1427
cur table: 1427
epoch: 1000
next table: 1923
cur table: 1916
epoch: 1000
next table: 1422
cur table: 1427
epoch: 1000
next table: 1959
cur table: 1923
epoch: 1000
next table: 1435
cur table: 1422
epoch: 1000
next table: 1975
cur table: 1959
epoch: 1000
next table: 1426
cur table: 1435
epoch: 1000
next table: 1842
cur table: 1975
epoch: 1000
next table: 1440
cur table: 1426
epoch: 1000
next table: 1879
cur table: 1842
epoch: 1000
next table: 1412
cur table: 1440
epoch: 1000
next table: 1970
cur table: 1879
epoch: 1000
next table: 1414
cur table: 1412
epoch: 1000
next table: 1885
cur table: 1970
epoch: 1000
next table: 1431
cur table: 1414
epoch: 1000
next table: 1941
cur table: 1885
epoch: 1000
next table: 1911
cur table: 1941
epoch: 1000
next table: 1418
cur table: 1431
epoch: 1000
next table: 1938
cur table: 1911
epoch: 1000
next table: 1425
cur table: 1418
epoch: 1000
next table: 1936
cur table: 1938
epoch: 1000
next table: 1425
cur table: 1425
epoch: 1000
next table: 1921
cur table: 1936
epoch: 1000
next table: 1428
cur table: 1425
epoch: 1000
next table: 1849
cur table: 1921
epoch: 1000
next table: 1431
cur table: 1428
epoch: 1000
next table: 1776
cur table: 1849
epoch: 1000
next table: 1434
cur table: 1431
epoch: 1000
next table: 1938
cur table: 1776
epoch: 1000
next table: 1421
cur table: 1434
epoch: 1000
next table: 1876
cur table: 1938
epoch: 1000
next table: 1418
cur table: 1421
epoch: 1000
next table: 1935
cur table: 1876
epoch: 1000
next table: 1446
cur table: 1418
epoch: 1000
next table: 1924
cur table: 1935
epoch: 1000
next table: 1417
cur table: 1446
epoch: 1000
next table: 1965
cur table: 1924
epoch: 1000
next table: 1410
cur table: 1417
epoch: 1000
next table: 1946
cur table: 1965
epoch: 1000
next table: 1432
cur table: 1410
epoch: 1000
next table: 1901
cur table: 1946
epoch: 1000
next table: 1421
cur table: 1432
epoch: 1000
next table: 1841
cur table: 1901
epoch: 1000
next table: 1427
cur table: 1421
epoch: 1000
next table: 1796
cur table: 1841
epoch: 1000
next table: 1423
cur table: 1427
epoch: 1000
next table: 1968
cur table: 1796
Heartbeat CPU 0 instructions: 10000003 cycles: 2946932 heartbeat IPC: 3.39336 cumulative IPC: 3.39336 (Simulation time: 0 hr 7 min 22 sec) 
epoch: 1000
next table: 1427
cur table: 1423
epoch: 1000
next table: 1891
cur table: 1968
epoch: 1000
next table: 1423
cur table: 1427
epoch: 1000
next table: 1969
cur table: 1891
epoch: 1000
next table: 1444
cur table: 1423
epoch: 1000
next table: 1882
cur table: 1969
epoch: 1000
next table: 1428
cur table: 1444
epoch: 1000
next table: 1965
cur table: 1882
epoch: 1000
next table: 1419
cur table: 1428
epoch: 1000
next table: 1951
cur table: 1965
epoch: 1000
next table: 1433
cur table: 1419
epoch: 1000
next table: 1948
cur table: 1951
epoch: 1000
next table: 1420
cur table: 1433
epoch: 1000
next table: 1986
cur table: 1948
epoch: 1000
next table: 1411
cur table: 1420
epoch: 1000
next table: 1938
cur table: 1986
epoch: 1000
next table: 1422
cur table: 1411
epoch: 1000
next table: 1727
cur table: 1938
epoch: 1000
next table: 1424
cur table: 1422
epoch: 1000
next table: 1978
cur table: 1727
epoch: 1000
next table: 1416
cur table: 1424
epoch: 1000
next table: 1923
cur table: 1978
epoch: 1000
next table: 1430
cur table: 1416
epoch: 1000
next table: 1914
cur table: 1923
epoch: 1000
next table: 1424
cur table: 1430
epoch: 1000
next table: 1971
cur table: 1914
epoch: 1000
next table: 1435
cur table: 1424
epoch: 1000
next table: 1926
cur table: 1971
epoch: 1000
next table: 1444
cur table: 1435
epoch: 1000
next table: 1928
cur table: 1926
epoch: 1000
next table: 1424
cur table: 1444
epoch: 1000
next table: 1965
cur table: 1928
epoch: 1000
next table: 1420
cur table: 1424
epoch: 1000
next table: 1950
cur table: 1965
epoch: 1000
next table: 1428
cur table: 1420
epoch: 1000
next table: 1963
cur table: 1950
epoch: 1000
next table: 1431
cur table: 1428
epoch: 1000
next table: 1931
cur table: 1963
epoch: 1000
next table: 1419
cur table: 1431
epoch: 1000
next table: 1878
cur table: 1931
epoch: 1000
next table: 1415
cur table: 1419
epoch: 1000
next table: 1765
cur table: 1878
epoch: 1000
next table: 1426
cur table: 1415
epoch: 1000
next table: 1932
cur table: 1765
epoch: 1000
next table: 1418
cur table: 1426
epoch: 1000
next table: 1944
cur table: 1932
epoch: 1000
next table: 1422
cur table: 1418
epoch: 1000
next table: 1930
cur table: 1944
epoch: 1000
next table: 1427
cur table: 1422
epoch: 1000
next table: 1949
cur table: 1930
epoch: 1000
next table: 1436
cur table: 1427
epoch: 1000
next table: 1906
cur table: 1949
epoch: 1000
next table: 1437
cur table: 1436
epoch: 1000
next table: 1917
cur table: 1906
epoch: 1000
next table: 1460
cur table: 1437
epoch: 1000
next table: 1972
cur table: 1917
epoch: 1000
next table: 1450
cur table: 1460
epoch: 1000
next table: 1940
cur table: 1972
epoch: 1000
next table: 1448
cur table: 1450
epoch: 1000
next table: 1951
cur table: 1940
epoch: 1000
next table: 1907
cur table: 1951
epoch: 1000
next table: 1455
cur table: 1448
epoch: 1000
next table: 1782
cur table: 1907
epoch: 1000
next table: 1447
cur table: 1455
epoch: 1000
next table: 1929
cur table: 1782
epoch: 1000
next table: 1457
cur table: 1447
epoch: 1000
next table: 1961
cur table: 1929
epoch: 1000
next table: 1448
cur table: 1457
epoch: 1000
next table: 1894
cur table: 1961
epoch: 1000
next table: 1448
cur table: 1448
epoch: 1000
next table: 1951
cur table: 1894
epoch: 1000
next table: 1448
cur table: 1448
epoch: 1000
next table: 1942
cur table: 1951
epoch: 1000
next table: 1455
cur table: 1448
epoch: 1000
next table: 1944
cur table: 1942
epoch: 1000
next table: 1448
cur table: 1455
epoch: 1000
next table: 1947
cur table: 1944
epoch: 1000
next table: 1453
cur table: 1448
epoch: 1000
next table: 1914
cur table: 1947
epoch: 1000
next table: 1454
cur table: 1453
epoch: 1000
next table: 1908
cur table: 1914
epoch: 1000
next table: 1452
cur table: 1454
epoch: 1000
next table: 1745
cur table: 1908
epoch: 1000
next table: 1470
cur table: 1452
epoch: 1000
next table: 1982
cur table: 1745
epoch: 1000
next table: 1898
cur table: 1982
epoch: 1000
next table: 1449
cur table: 1470
epoch: 1000
next table: 1895
cur table: 1898
epoch: 1000
next table: 1453
cur table: 1449
epoch: 1000
next table: 1985
cur table: 1895
epoch: 1000
next table: 1447
cur table: 1453
epoch: 1000
next table: 1932
cur table: 1985
epoch: 1000
next table: 1443
cur table: 1447
epoch: 1000
next table: 1941
cur table: 1932
epoch: 1000
next table: 1455
cur table: 1443
epoch: 1000
next table: 1892
cur table: 1941
epoch: 1000
next table: 1429
cur table: 1455
epoch: 1000
next table: 1916
cur table: 1892
epoch: 1000
next table: 1459
cur table: 1429
epoch: 1000
next table: 1931
cur table: 1916
epoch: 1000
next table: 1449
cur table: 1459
epoch: 1000
next table: 1877
cur table: 1931
epoch: 1000
next table: 1449
cur table: 1449
epoch: 1000
next table: 1733
cur table: 1877
epoch: 1000
next table: 1451
cur table: 1449
epoch: 1000
next table: 1969
cur table: 1733
epoch: 1000
next table: 1453
cur table: 1451
epoch: 1000
next table: 1893
cur table: 1969
epoch: 1000
next table: 1452
cur table: 1453
epoch: 1000
next table: 1934
cur table: 1893
epoch: 1000
next table: 1903
cur table: 1934
epoch: 1000
next table: 1444
cur table: 1452
epoch: 1000
next table: 1877
cur table: 1903
epoch: 1000
next table: 1449
cur table: 1444
epoch: 1000
next table: 1949
cur table: 1877
epoch: 1000
next table: 1449
cur table: 1449
epoch: 1000
next table: 1929
cur table: 1949
epoch: 1000
next table: 1448
cur table: 1449
epoch: 1000
next table: 1933
cur table: 1929
epoch: 1000
next table: 1448
cur table: 1448
epoch: 1000
next table: 1942
cur table: 1933
epoch: 1000
next table: 1451
cur table: 1448
epoch: 1000
next table: 1763
cur table: 1942
epoch: 1000
next table: 1445
cur table: 1451
epoch: 1000
next table: 1948
cur table: 1763
epoch: 1000
next table: 1452
cur table: 1445
epoch: 1000
next table: 1851
cur table: 1948
epoch: 1000
next table: 1450
cur table: 1452
epoch: 1000
next table: 1899
cur table: 1851
epoch: 1000
next table: 1456
cur table: 1450
epoch: 1000
next table: 1959
cur table: 1899
epoch: 1000
next table: 1451
cur table: 1456
epoch: 1000
next table: 1966
cur table: 1959
epoch: 1000
next table: 1452
cur table: 1451
epoch: 1000
next table: 1933
cur table: 1966
epoch: 1000
next table: 1448
cur table: 1452
epoch: 1000
next table: 1968
cur table: 1933
epoch: 1000
next table: 1447
cur table: 1448
epoch: 1000
next table: 2017
cur table: 1968
epoch: 1000
next table: 1453
cur table: 1447
epoch: 1000
next table: 1986
cur table: 2017
epoch: 1000
next table: 1450
cur table: 1453
epoch: 1000
next table: 1971
cur table: 1986
epoch: 1000
next table: 1446
cur table: 1450
epoch: 1000
next table: 1912
cur table: 1971
epoch: 1000
next table: 2008
cur table: 1912
epoch: 1000
next table: 1459
cur table: 1446
epoch: 1000
next table: 1757
cur table: 2008
epoch: 1000
next table: 1444
cur table: 1459
epoch: 1000
next table: 1950
cur table: 1757
epoch: 1000
next table: 1457
cur table: 1444
epoch: 1000
next table: 1920
cur table: 1950
epoch: 1000
next table: 1447
cur table: 1457
epoch: 1000
next table: 1924
cur table: 1920
epoch: 1000
next table: 1451
cur table: 1447
epoch: 1000
next table: 1963
cur table: 1924
epoch: 1000
next table: 1449
cur table: 1451
epoch: 1000
next table: 1928
cur table: 1963
epoch: 1000
next table: 1456
cur table: 1449
epoch: 1000
next table: 1881
cur table: 1928
epoch: 1000
next table: 1454
cur table: 1456
epoch: 1000
next table: 1918
cur table: 1881
epoch: 1000
next table: 1442
cur table: 1454
epoch: 1000
next table: 1946
cur table: 1918
epoch: 1000
next table: 1410
cur table: 1442
epoch: 1000
next table: 1746
cur table: 1946
epoch: 1000
next table: 1413
cur table: 1410
epoch: 1000
next table: 1856
cur table: 1746
epoch: 1000
next table: 1428
cur table: 1413
epoch: 1000
next table: 1902
cur table: 1856
epoch: 1000
next table: 1425
cur table: 1428
epoch: 1000
next table: 1931
cur table: 1902
epoch: 1000
next table: 1417
cur table: 1425
epoch: 1000
next table: 1926
cur table: 1931
epoch: 1000
next table: 1430
cur table: 1417
epoch: 1000
next table: 1920
cur table: 1926
epoch: 1000
next table: 1430
cur table: 1430
epoch: 1000
next table: 1893
cur table: 1920
epoch: 1000
next table: 1424
cur table: 1430
epoch: 1000
next table: 1960
cur table: 1893
epoch: 1000
next table: 1420
cur table: 1424
epoch: 1000
next table: 1929
cur table: 1960
epoch: 1000
next table: 1420
cur table: 1420
epoch: 1000
next table: 1912
cur table: 1929
epoch: 1000
next table: 1442
cur table: 1420
epoch: 1000
next table: 1829
cur table: 1912
epoch: 1000
next table: 1437
cur table: 1442
epoch: 1000
next table: 1899
cur table: 1829
epoch: 1000
next table: 1936
cur table: 1899
epoch: 1000
next table: 1414
cur table: 1437
epoch: 1000
next table: 1901
cur table: 1936
epoch: 1000
next table: 1411
cur table: 1414
epoch: 1000
next table: 1893
cur table: 1901
epoch: 1000
next table: 1424
cur table: 1411
epoch: 1000
next table: 1920
cur table: 1893
epoch: 1000
next table: 1430
cur table: 1424
epoch: 1000
next table: 1951
cur table: 1920
epoch: 1000
next table: 1424
cur table: 1430
epoch: 1000
next table: 1958
cur table: 1951
epoch: 1000
next table: 1424
cur table: 1424
epoch: 1000
next table: 1817
cur table: 1958
epoch: 1000
next table: 1427
cur table: 1424
epoch: 1000
next table: 1809
cur table: 1817
epoch: 1000
next table: 1425
cur table: 1427
epoch: 1000
next table: 1910
cur table: 1809
epoch: 1000
next table: 1423
cur table: 1425
epoch: 1000
next table: 1906
cur table: 1910
epoch: 1000
next table: 1427
cur table: 1423
epoch: 1000
next table: 1970
cur table: 1906
epoch: 1000
next table: 1433
cur table: 1427
epoch: 1000
next table: 1904
cur table: 1970
epoch: 1000
next table: 1435
cur table: 1433
epoch: 1000
next table: 1930
cur table: 1904
epoch: 1000
next table: 1425
cur table: 1435
epoch: 1000
next table: 1973
cur table: 1930
epoch: 1000
next table: 1403
cur table: 1425
epoch: 1000
next table: 1945
cur table: 1973
epoch: 1000
next table: 1424
cur table: 1403
epoch: 1000
next table: 1839
cur table: 1945
epoch: 1000
next table: 1426
cur table: 1424
epoch: 1000
next table: 1732
cur table: 1839
epoch: 1000
next table: 1420
cur table: 1426
epoch: 1000
next table: 1902
cur table: 1732
epoch: 1000
next table: 1425
cur table: 1420
epoch: 1000
next table: 1892
cur table: 1902
epoch: 1000
next table: 1421
cur table: 1425
epoch: 1000
next table: 1902
cur table: 1892
epoch: 1000
next table: 1432
cur table: 1421
epoch: 1000
next table: 1912
cur table: 1902
epoch: 1000
next table: 1425
cur table: 1432
epoch: 1000
next table: 1918
cur table: 1912
epoch: 1000
next table: 1439
cur table: 1425
epoch: 1000
next table: 1926
cur table: 1918
epoch: 1000
next table: 1418
cur table: 1439
epoch: 1000
next table: 1842
cur table: 1926
epoch: 1000
next table: 1430
cur table: 1418
epoch: 1000
next table: 1733
cur table: 1842
epoch: 1000
next table: 1895
cur table: 1733
epoch: 1000
next table: 1429
cur table: 1430
epoch: 1000
next table: 1952
cur table: 1895
epoch: 1000
next table: 1406
cur table: 1429
epoch: 1000
next table: 1917
cur table: 1952
epoch: 1000
next table: 1426
cur table: 1406
epoch: 1000
next table: 1920
cur table: 1917
epoch: 1000
next table: 1427
cur table: 1426
epoch: 1000
next table: 1953
cur table: 1920
epoch: 1000
next table: 1419
cur table: 1427
epoch: 1000
next table: 1950
cur table: 1953
epoch: 1000
next table: 1426
cur table: 1419
epoch: 1000
next table: 1924
cur table: 1950
epoch: 1000
next table: 1420
cur table: 1426
epoch: 1000
next table: 1928
cur table: 1924
epoch: 1000
next table: 1426
cur table: 1420
epoch: 1000
next table: 1770
cur table: 1928
epoch: 1000
next table: 1424
cur table: 1426
epoch: 1000
next table: 1997
cur table: 1770
epoch: 1000
next table: 1442
cur table: 1424
epoch: 1000
next table: 1943
cur table: 1997
epoch: 1000
next table: 1410
cur table: 1442
epoch: 1000
next table: 1901
cur table: 1943
epoch: 1000
next table: 1436
cur table: 1410
epoch: 1000
next table: 1940
cur table: 1901
epoch: 1000
next table: 1430
cur table: 1436
epoch: 1000
next table: 1977
cur table: 1940
epoch: 1000
next table: 1431
cur table: 1430
epoch: 1000
next table: 2003
cur table: 1977
epoch: 1000
next table: 1442
cur table: 1431
epoch: 1000
next table: 1965
cur table: 2003
epoch: 1000
next table: 1430
cur table: 1442
epoch: 1000
next table: 1927
cur table: 1965
epoch: 1000
next table: 1436
cur table: 1430
epoch: 1000
next table: 1944
cur table: 1927
epoch: 1000
next table: 1428
cur table: 1436
epoch: 1000
next table: 1931
cur table: 1944
epoch: 1000
next table: 1423
cur table: 1428
epoch: 1000
next table: 1870
cur table: 1931
epoch: 1000
next table: 1425
cur table: 1423
epoch: 1000
next table: 1940
cur table: 1870
epoch: 1000
next table: 1434
cur table: 1425
epoch: 1000
next table: 1772
cur table: 1940
epoch: 1000
next table: 1427
cur table: 1434
epoch: 1000
next table: 1953
cur table: 1772
epoch: 1000
next table: 1428
cur table: 1427
epoch: 1000
next table: 1919
cur table: 1953
epoch: 1000
next table: 1428
cur table: 1428
epoch: 1000
next table: 1920
cur table: 1919
epoch: 1000
next table: 1413
cur table: 1428
epoch: 1000
next table: 1925
cur table: 1920
epoch: 1000
next table: 1434
cur table: 1413
Heartbeat CPU 0 instructions: 20000003 cycles: 5893572 heartbeat IPC: 3.3937 cumulative IPC: 3.39353 (Simulation time: 0 hr 15 min 0 sec) 
epoch: 1000
next table: 1985
cur table: 1925
epoch: 1000
next table: 1410
cur table: 1434
epoch: 1000
next table: 1848
cur table: 1985
epoch: 1000
next table: 1402
cur table: 1410
epoch: 1000
next table: 1898
cur table: 1848
epoch: 1000
next table: 1394
cur table: 1402
epoch: 1000
next table: 1880
cur table: 1898
epoch: 1000
next table: 1407
cur table: 1394
epoch: 1000
next table: 1750
cur table: 1880
epoch: 1000
next table: 1398
cur table: 1407
epoch: 1000
next table: 1880
cur table: 1750
epoch: 1000
next table: 1403
cur table: 1398
epoch: 1000
next table: 1900
cur table: 1880
epoch: 1000
next table: 1403
cur table: 1403
epoch: 1000
next table: 1944
cur table: 1900
epoch: 1000
next table: 1437
cur table: 1403
epoch: 1000
next table: 1954
cur table: 1944
epoch: 1000
next table: 1415
cur table: 1437
epoch: 1000
next table: 1946
cur table: 1954
epoch: 1000
next table: 1407
cur table: 1415
epoch: 1000
next table: 1945
cur table: 1946
epoch: 1000
next table: 1427
cur table: 1407
epoch: 1000
next table: 1940
cur table: 1945
epoch: 1000
next table: 1423
cur table: 1427
epoch: 1000
next table: 1874
cur table: 1940
epoch: 1000
next table: 1426
cur table: 1423
epoch: 1000
next table: 1852
cur table: 1874
epoch: 1000
next table: 1430
cur table: 1426
epoch: 1000
next table: 1885
cur table: 1852
epoch: 1000
next table: 1440
cur table: 1430
epoch: 1000
next table: 1955
cur table: 1885
epoch: 1000
next table: 1427
cur table: 1440
epoch: 1000
next table: 1978
cur table: 1955
epoch: 1000
next table: 1424
cur table: 1427
epoch: 1000
next table: 1937
cur table: 1978
epoch: 1000
next table: 1445
cur table: 1424
epoch: 1000
next table: 1924
cur table: 1937
epoch: 1000
next table: 1427
cur table: 1445
epoch: 1000
next table: 1984
cur table: 1924
epoch: 1000
next table: 1430
cur table: 1427
epoch: 1000
next table: 1996
cur table: 1984
epoch: 1000
next table: 1425
cur table: 1430
epoch: 1000
next table: 1935
cur table: 1996
epoch: 1000
next table: 1438
cur table: 1425
epoch: 1000
next table: 1942
cur table: 1935
epoch: 1000
next table: 1414
cur table: 1438
epoch: 1000
next table: 1969
cur table: 1942
epoch: 1000
next table: 1424
cur table: 1414
epoch: 1000
next table: 1975
cur table: 1969
epoch: 1000
next table: 1431
cur table: 1424
epoch: 1000
next table: 1894
cur table: 1975
epoch: 1000
next table: 1422
cur table: 1431
epoch: 1000
next table: 1877
cur table: 1894
epoch: 1000
next table: 1421
cur table: 1422
epoch: 1000
next table: 1826
cur table: 1877
epoch: 1000
next table: 1425
cur table: 1421
epoch: 1000
next table: 1951
cur table: 1826
epoch: 1000
next table: 1423
cur table: 1425
epoch: 1000
next table: 1949
cur table: 1951
epoch: 1000
next table: 1427
cur table: 1423
epoch: 1000
next table: 1919
cur table: 1949
epoch: 1000
next table: 1421
cur table: 1427
epoch: 1000
next table: 1892
cur table: 1919
epoch: 1000
next table: 1426
cur table: 1421
epoch: 1000
next table: 1932
cur table: 1892
epoch: 1000
next table: 1426
cur table: 1426
epoch: 1000
next table: 1927
cur table: 1932
epoch: 1000
next table: 1436
cur table: 1426
epoch: 1000
next table: 1946
cur table: 1927
epoch: 1000
next table: 1413
cur table: 1436
epoch: 1000
next table: 1915
cur table: 1946
epoch: 1000
next table: 1411
cur table: 1413
epoch: 1000
next table: 1712
cur table: 1915
epoch: 1000
next table: 1434
cur table: 1411
epoch: 1000
next table: 1928
cur table: 1712
epoch: 1000
next table: 1422
cur table: 1434
epoch: 1000
next table: 1883
cur table: 1928
epoch: 1000
next table: 1423
cur table: 1422
epoch: 1000
next table: 1923
cur table: 1883
epoch: 1000
next table: 1426
cur table: 1423
epoch: 1000
next table: 1925
cur table: 1923
epoch: 1000
next table: 1433
cur table: 1426
epoch: 1000
next table: 1931
cur table: 1925
epoch: 1000
next table: 1911
cur table: 1931
epoch: 1000
next table: 1423
cur table: 1433
epoch: 1000
next table: 1825
cur table: 1911
epoch: 1000
next table: 1422
cur table: 1423
epoch: 1000
next table: 1706
cur table: 1825
epoch: 1000
next table: 1427
cur table: 1422
epoch: 1000
next table: 1952
cur table: 1706
epoch: 1000
next table: 1422
cur table: 1427
epoch: 1000
next table: 1898
cur table: 1952
epoch: 1000
next table: 1438
cur table: 1422
epoch: 1000
next table: 1978
cur table: 1898
epoch: 1000
next table: 1428
cur table: 1438
epoch: 1000
next table: 1869
cur table: 1978
epoch: 1000
next table: 1404
cur table: 1428
epoch: 1000
next table: 1882
cur table: 1869
epoch: 1000
next table: 1427
cur table: 1404
epoch: 1000
next table: 1896
cur table: 1882
epoch: 1000
next table: 1427
cur table: 1427
epoch: 1000
next table: 1855
cur table: 1896
epoch: 1000
next table: 1422
cur table: 1427
epoch: 1000
next table: 1741
cur table: 1855
epoch: 1000
next table: 1421
cur table: 1422
epoch: 1000
next table: 1982
cur table: 1741
epoch: 1000
next table: 1430
cur table: 1421
epoch: 1000
next table: 1880
cur table: 1982
epoch: 1000
next table: 1428
cur table: 1430
epoch: 1000
next table: 1953
cur table: 1880
epoch: 1000
next table: 1424
cur table: 1428
epoch: 1000
next table: 1912
cur table: 1953
epoch: 1000
next table: 1426
cur table: 1424
epoch: 1000
next table: 1917
cur table: 1912
epoch: 1000
next table: 1419
cur table: 1426
epoch: 1000
next table: 1989
cur table: 1917
epoch: 1000
next table: 1432
cur table: 1419
epoch: 1000
next table: 1969
cur table: 1989
epoch: 1000
next table: 1458
cur table: 1432
epoch: 1000
next table: 1979
cur table: 1969
epoch: 1000
next table: 1413
cur table: 1458
epoch: 1000
next table: 1911
cur table: 1979
epoch: 1000
next table: 1414
cur table: 1413
epoch: 1000
next table: 1931
cur table: 1911
epoch: 1000
next table: 1428
cur table: 1414
epoch: 1000
next table: 1847
cur table: 1931
epoch: 1000
next table: 1424
cur table: 1428
epoch: 1000
next table: 1837
cur table: 1847
epoch: 1000
next table: 1438
cur table: 1424
epoch: 1000
next table: 1955
cur table: 1837
epoch: 1000
next table: 1417
cur table: 1438
epoch: 1000
next table: 1901
cur table: 1955
epoch: 1000
next table: 1427
cur table: 1417
epoch: 1000
next table: 1914
cur table: 1901
epoch: 1000
next table: 1430
cur table: 1427
epoch: 1000
next table: 1901
cur table: 1914
epoch: 1000
next table: 1416
cur table: 1430
epoch: 1000
next table: 1908
cur table: 1901
epoch: 1000
next table: 1430
cur table: 1416
epoch: 1000
next table: 1926
cur table: 1908
epoch: 1000
next table: 1421
cur table: 1430
epoch: 1000
next table: 1956
cur table: 1926
epoch: 1000
next table: 1440
cur table: 1421
epoch: 1000
next table: 1904
cur table: 1956
epoch: 1000
next table: 1412
cur table: 1440
epoch: 1000
next table: 1850
cur table: 1904
epoch: 1000
next table: 1414
cur table: 1412
epoch: 1000
next table: 1805
cur table: 1850
epoch: 1000
next table: 1420
cur table: 1414
epoch: 1000
next table: 1964
cur table: 1805
epoch: 1000
next table: 1423
cur table: 1420
epoch: 1000
next table: 1914
cur table: 1964
epoch: 1000
next table: 1428
cur table: 1423
epoch: 1000
next table: 1912
cur table: 1914
epoch: 1000
next table: 1430
cur table: 1428
epoch: 1000
next table: 2004
cur table: 1912
epoch: 1000
next table: 1444
cur table: 1430
epoch: 1000
next table: 1970
cur table: 2004
epoch: 1000
next table: 1439
cur table: 1444
epoch: 1000
next table: 1949
cur table: 1970
epoch: 1000
next table: 1428
cur table: 1439
epoch: 1000
next table: 1928
cur table: 1949
epoch: 1000
next table: 1427
cur table: 1428
epoch: 1000
next table: 1975
cur table: 1928
epoch: 1000
next table: 1427
cur table: 1427
epoch: 1000
next table: 1960
cur table: 1975
epoch: 1000
next table: 1411
cur table: 1427
epoch: 1000
next table: 1943
cur table: 1960
epoch: 1000
next table: 1437
cur table: 1411
epoch: 1000
next table: 1883
cur table: 1943
epoch: 1000
next table: 1418
cur table: 1437
epoch: 1000
next table: 1790
cur table: 1883
epoch: 1000
next table: 1392
cur table: 1418
epoch: 1000
next table: 1907
cur table: 1790
epoch: 1000
next table: 1434
cur table: 1392
epoch: 1000
next table: 1959
cur table: 1907
epoch: 1000
next table: 1406
cur table: 1434
epoch: 1000
next table: 1940
cur table: 1959
epoch: 1000
next table: 1410
cur table: 1406
epoch: 1000
next table: 1904
cur table: 1940
epoch: 1000
next table: 1417
cur table: 1410
epoch: 1000
next table: 1917
cur table: 1904
epoch: 1000
next table: 1419
cur table: 1417
epoch: 1000
next table: 1952
cur table: 1917
epoch: 1000
next table: 1420
cur table: 1419
epoch: 1000
next table: 1931
cur table: 1952
epoch: 1000
next table: 1422
cur table: 1420
epoch: 1000
next table: 1891
cur table: 1931
epoch: 1000
next table: 1432
cur table: 1422
epoch: 1000
next table: 1947
cur table: 1891
epoch: 1000
next table: 1428
cur table: 1432
epoch: 1000
next table: 1790
cur table: 1947
epoch: 1000
next table: 1405
cur table: 1428
epoch: 1000
next table: 1939
cur table: 1790
epoch: 1000
next table: 1425
cur table: 1405
epoch: 1000
next table: 1907
cur table: 1939
epoch: 1000
next table: 1428
cur table: 1425
epoch: 1000
next table: 1876
cur table: 1907
epoch: 1000
next table: 1427
cur table: 1428
epoch: 1000
next table: 1984
cur table: 1876
epoch: 1000
next table: 1420
cur table: 1427
epoch: 1000
next table: 1960
cur table: 1984
epoch: 1000
next table: 1413
cur table: 1420
epoch: 1000
next table: 1943
cur table: 1960
epoch: 1000
next table: 1413
cur table: 1413
epoch: 1000
next table: 1903
cur table: 1943
epoch: 1000
next table: 1426
cur table: 1413
epoch: 1000
next table: 1885
cur table: 1903
epoch: 1000
next table: 1393
cur table: 1426
epoch: 1000
next table: 1847
cur table: 1885
epoch: 1000
next table: 1444
cur table: 1393
epoch: 1000
next table: 1758
cur table: 1847
epoch: 1000
next table: 1408
cur table: 1444
epoch: 1000
next table: 1969
cur table: 1758
epoch: 1000
next table: 1416
cur table: 1408
epoch: 1000
next table: 1914
cur table: 1969
epoch: 1000
next table: 1424
cur table: 1416
epoch: 1000
next table: 1927
cur table: 1914
epoch: 1000
next table: 1426
cur table: 1424
epoch: 1000
next table: 1927
cur table: 1927
epoch: 1000
next table: 1423
cur table: 1426
epoch: 1000
next table: 1929
cur table: 1927
epoch: 1000
next table: 1436
cur table: 1423
epoch: 1000
next table: 1915
cur table: 1929
epoch: 1000
next table: 1426
cur table: 1436
epoch: 1000
next table: 1975
cur table: 1915
epoch: 1000
next table: 1426
cur table: 1426
epoch: 1000
next table: 1941
cur table: 1975
epoch: 1000
next table: 1867
cur table: 1941
epoch: 1000
next table: 1422
cur table: 1426
epoch: 1000
next table: 1721
cur table: 1867
epoch: 1000
next table: 1424
cur table: 1422
epoch: 1000
next table: 2009
cur table: 1721
epoch: 1000
next table: 1456
cur table: 1424
epoch: 1000
next table: 1972
cur table: 2009
epoch: 1000
next table: 1426
cur table: 1456
epoch: 1000
next table: 1921
cur table: 1972
epoch: 1000
next table: 1435
cur table: 1426
epoch: 1000
next table: 1967
cur table: 1921
epoch: 1000
next table: 1402
cur table: 1435
epoch: 1000
next table: 1966
cur table: 1967
epoch: 1000
next table: 1424
cur table: 1402
epoch: 1000
next table: 1978
cur table: 1966
epoch: 1000
next table: 1426
cur table: 1424
epoch: 1000
next table: 1929
cur table: 1978
epoch: 1000
next table: 1430
cur table: 1426
epoch: 1000
next table: 1937
cur table: 1929
epoch: 1000
next table: 1418
cur table: 1430
epoch: 1000
next table: 1961
cur table: 1937
epoch: 1000
next table: 1429
cur table: 1418
epoch: 1000
next table: 1932
cur table: 1961
epoch: 1000
next table: 1424
cur table: 1429
epoch: 1000
next table: 1938
cur table: 1932
epoch: 1000
next table: 1425
cur table: 1424
epoch: 1000
next table: 1786
cur table: 1938
epoch: 1000
next table: 1423
cur table: 1425
epoch: 1000
next table: 1940
cur table: 1786
epoch: 1000
next table: 1435
cur table: 1423
epoch: 1000
next table: 1909
cur table: 1940
epoch: 1000
next table: 1426
cur table: 1435
epoch: 1000
next table: 1941
cur table: 1909
epoch: 1000
next table: 1433
cur table: 1426
epoch: 1000
next table: 1926
cur table: 1941
epoch: 1000
next table: 1411
cur table: 1433
epoch: 1000
next table: 1925
cur table: 1926
epoch: 1000
next table: 1415
cur table: 1411
epoch: 1000
next table: 1917
cur table: 1925
epoch: 1000
next table: 1431
cur table: 1415
epoch: 1000
next table: 1916
cur table: 1917
epoch: 1000
next table: 1424
cur table: 1431
epoch: 1000
next table: 1848
cur table: 1916
epoch: 1000
next table: 1418
cur table: 1424
epoch: 1000
next table: 1924
cur table: 1848
epoch: 1000
next table: 1426
cur table: 1418
epoch: 1000
next table: 1800
cur table: 1924
epoch: 1000
next table: 1429
cur table: 1426
epoch: 1000
next table: 1944
cur table: 1800
epoch: 1000
next table: 1424
cur table: 1429
epoch: 1000
next table: 1903
cur table: 1944
epoch: 1000
next table: 1429
cur table: 1424
epoch: 1000
next table: 1921
cur table: 1903
epoch: 1000
next table: 1404
cur table: 1429
epoch: 1000
next table: 1907
cur table: 1921
epoch: 1000
next table: 1436
cur table: 1404
epoch: 1000
next table: 1934
cur table: 1907
epoch: 1000
next table: 1400
cur table: 1436
epoch: 1000
next table: 1912
cur table: 1934
epoch: 1000
next table: 1399
cur table: 1400
epoch: 1000
next table: 1930
cur table: 1912
epoch: 1000
next table: 1423
cur table: 1399
epoch: 1000
next table: 1944
cur table: 1930
epoch: 1000
next table: 1426
cur table: 1423
Heartbeat CPU 0 instructions: 30000003 cycles: 8840195 heartbeat IPC: 3.39372 cumulative IPC: 3.39359 (Simulation time: 0 hr 22 min 43 sec) 
epoch: 1000
next table: 1773
cur table: 1944
epoch: 1000
next table: 1427
cur table: 1426
epoch: 1000
next table: 1990
cur table: 1773
epoch: 1000
next table: 1423
cur table: 1427
epoch: 1000
next table: 1904
cur table: 1990
epoch: 1000
next table: 1427
cur table: 1423
epoch: 1000
next table: 1907
cur table: 1904
epoch: 1000
next table: 1425
cur table: 1427
epoch: 1000
next table: 1983
cur table: 1907
epoch: 1000
next table: 1423
cur table: 1425
epoch: 1000
next table: 1970
cur table: 1983
epoch: 1000
next table: 1436
cur table: 1423
epoch: 1000
next table: 1905
cur table: 1970
epoch: 1000
next table: 1426
cur table: 1436
epoch: 1000
next table: 1916
cur table: 1905
epoch: 1000
next table: 1432
cur table: 1426
epoch: 1000
next table: 1969
cur table: 1916
epoch: 1000
next table: 1396
cur table: 1432
epoch: 1000
next table: 1944
cur table: 1969
epoch: 1000
next table: 1402
cur table: 1396
epoch: 1000
next table: 1752
cur table: 1944
epoch: 1000
next table: 1413
cur table: 1402
epoch: 1000
next table: 1863
cur table: 1752
epoch: 1000
next table: 1421
cur table: 1413
epoch: 1000
next table: 1922
cur table: 1863
epoch: 1000
next table: 1430
cur table: 1421
epoch: 1000
next table: 1928
cur table: 1922
epoch: 1000
next table: 1430
cur table: 1430
epoch: 1000
next table: 1954
cur table: 1928
epoch: 1000
next table: 1425
cur table: 1430
epoch: 1000
next table: 1910
cur table: 1954
epoch: 1000
next table: 1424
cur table: 1425
epoch: 1000
next table: 1941
cur table: 1910
epoch: 1000
next table: 1426
cur table: 1424
epoch: 1000
next table: 1946
cur table: 1941
epoch: 1000
next table: 1435
cur table: 1426
epoch: 1000
next table: 1936
cur table: 1946
epoch: 1000
next table: 1428
cur table: 1435
epoch: 1000
next table: 1932
cur table: 1936
epoch: 1000
next table: 1407
cur table: 1428
epoch: 1000
next table: 1901
cur table: 1932
epoch: 1000
next table: 1409
cur table: 1407
epoch: 1000
next table: 1768
cur table: 1901
epoch: 1000
next table: 1412
cur table: 1409
epoch: 1000
next table: 1949
cur table: 1768
epoch: 1000
next table: 1429
cur table: 1412
epoch: 1000
next table: 1928
cur table: 1949
epoch: 1000
next table: 1417
cur table: 1429
epoch: 1000
next table: 1889
cur table: 1928
epoch: 1000
next table: 1417
cur table: 1417
epoch: 1000
next table: 1918
cur table: 1889
epoch: 1000
next table: 1408
cur table: 1417
epoch: 1000
next table: 1924
cur table: 1918
epoch: 1000
next table: 1421
cur table: 1408
epoch: 1000
next table: 1909
cur table: 1924
epoch: 1000
next table: 1425
cur table: 1421
epoch: 1000
next table: 1977
cur table: 1909
epoch: 1000
next table: 1436
cur table: 1425
epoch: 1000
next table: 1955
cur table: 1977
epoch: 1000
next table: 1413
cur table: 1436
epoch: 1000
next table: 1884
cur table: 1955
epoch: 1000
next table: 1408
cur table: 1413
epoch: 1000
next table: 1875
cur table: 1884
epoch: 1000
next table: 1431
cur table: 1408
epoch: 1000
next table: 1792
cur table: 1875
epoch: 1000
next table: 1418
cur table: 1431
epoch: 1000
next table: 1981
cur table: 1792
epoch: 1000
next table: 1422
cur table: 1418
epoch: 1000
next table: 1945
cur table: 1981
epoch: 1000
next table: 1427
cur table: 1422
epoch: 1000
next table: 1924
cur table: 1945
epoch: 1000
next table: 1425
cur table: 1427
epoch: 1000
next table: 1909
cur table: 1924
epoch: 1000
next table: 1428
cur table: 1425
epoch: 1000
next table: 1884
cur table: 1909
epoch: 1000
next table: 1426
cur table: 1428
epoch: 1000
next table: 1948
cur table: 1884
epoch: 1000
next table: 1420
cur table: 1426
epoch: 1000
next table: 1916
cur table: 1948
epoch: 1000
next table: 1428
cur table: 1420
epoch: 1000
next table: 1880
cur table: 1916
epoch: 1000
next table: 1440
cur table: 1428
epoch: 1000
next table: 1817
cur table: 1880
epoch: 1000
next table: 1421
cur table: 1440
epoch: 1000
next table: 1873
cur table: 1817
epoch: 1000
next table: 1410
cur table: 1421
epoch: 1000
next table: 1905
cur table: 1873
epoch: 1000
next table: 1903
cur table: 1905
epoch: 1000
next table: 1426
cur table: 1410
epoch: 1000
next table: 1899
cur table: 1903
epoch: 1000
next table: 1422
cur table: 1426
epoch: 1000
next table: 1940
cur table: 1899
epoch: 1000
next table: 1433
cur table: 1422
epoch: 1000
next table: 1956
cur table: 1940
epoch: 1000
next table: 1421
cur table: 1433
epoch: 1000
next table: 1992
cur table: 1956
epoch: 1000
next table: 1422
cur table: 1421
epoch: 1000
next table: 1936
cur table: 1992
epoch: 1000
next table: 1430
cur table: 1422
epoch: 1000
next table: 1875
cur table: 1936
epoch: 1000
next table: 1423
cur table: 1430
epoch: 1000
next table: 1814
cur table: 1875
epoch: 1000
next table: 1422
cur table: 1423
epoch: 1000
next table: 1872
cur table: 1814
epoch: 1000
next table: 1420
cur table: 1422
epoch: 1000
next table: 1955
cur table: 1872
epoch: 1000
next table: 1437
cur table: 1420
epoch: 1000
next table: 1907
cur table: 1955
epoch: 1000
next table: 1428
cur table: 1437
epoch: 1000
next table: 1965
cur table: 1907
epoch: 1000
next table: 1405
cur table: 1428
epoch: 1000
next table: 1922
cur table: 1965
epoch: 1000
next table: 1425
cur table: 1405
epoch: 1000
next table: 1888
cur table: 1922
epoch: 1000
next table: 1421
cur table: 1425
epoch: 1000
next table: 1954
cur table: 1888
epoch: 1000
next table: 1423
cur table: 1421
epoch: 1000
next table: 1951
cur table: 1954
epoch: 1000
next table: 1423
cur table: 1423
epoch: 1000
next table: 1947
cur table: 1951
epoch: 1000
next table: 1423
cur table: 1423
epoch: 1000
next table: 1942
cur table: 1947
epoch: 1000
next table: 1433
cur table: 1423
epoch: 1000
next table: 1766
cur table: 1942
epoch: 1000
next table: 1424
cur table: 1433
epoch: 1000
next table: 1974
cur table: 1766
epoch: 1000
next table: 1427
cur table: 1424
epoch: 1000
next table: 1934
cur table: 1974
epoch: 1000
next table: 1423
cur table: 1427
epoch: 1000
next table: 1930
cur table: 1934
epoch: 1000
next table: 1431
cur table: 1423
epoch: 1000
next table: 1958
cur table: 1930
epoch: 1000
next table: 1424
cur table: 1431
epoch: 1000
next table: 1967
cur table: 1958
epoch: 1000
next table: 1409
cur table: 1424
epoch: 1000
next table: 1988
cur table: 1967
epoch: 1000
next table: 1419
cur table: 1409
epoch: 1000
next table: 1927
cur table: 1988
epoch: 1000
next table: 1441
cur table: 1419
epoch: 1000
next table: 1925
cur table: 1927
epoch: 1000
next table: 1417
cur table: 1441
epoch: 1000
next table: 1967
cur table: 1925
epoch: 1000
next table: 1432
cur table: 1417
epoch: 1000
next table: 1967
cur table: 1967
epoch: 1000
next table: 1424
cur table: 1432
epoch: 1000
next table: 1838
cur table: 1967
epoch: 1000
next table: 1423
cur table: 1424
epoch: 1000
next table: 1890
cur table: 1838
epoch: 1000
next table: 1425
cur table: 1423
epoch: 1000
next table: 1955
cur table: 1890
epoch: 1000
next table: 1424
cur table: 1425
epoch: 1000
next table: 1851
cur table: 1955
epoch: 1000
next table: 1418
cur table: 1424
epoch: 1000
next table: 1958
cur table: 1851
epoch: 1000
next table: 1426
cur table: 1418
epoch: 1000
next table: 1930
cur table: 1958
epoch: 1000
next table: 1440
cur table: 1426
epoch: 1000
next table: 1933
cur table: 1930
epoch: 1000
next table: 1403
cur table: 1440
epoch: 1000
next table: 1918
cur table: 1933
epoch: 1000
next table: 1422
cur table: 1403
epoch: 1000
next table: 1921
cur table: 1918
epoch: 1000
next table: 1428
cur table: 1422
epoch: 1000
next table: 1808
cur table: 1921
epoch: 1000
next table: 1424
cur table: 1428
epoch: 1000
next table: 1794
cur table: 1808
epoch: 1000
next table: 1417
cur table: 1424
epoch: 1000
next table: 1933
cur table: 1794
epoch: 1000
next table: 1429
cur table: 1417
epoch: 1000
next table: 1846
cur table: 1933
epoch: 1000
next table: 1425
cur table: 1429
epoch: 1000
next table: 1909
cur table: 1846
epoch: 1000
next table: 1428
cur table: 1425
epoch: 1000
next table: 1938
cur table: 1909
epoch: 1000
next table: 1423
cur table: 1428
epoch: 1000
next table: 1898
cur table: 1938
epoch: 1000
next table: 1429
cur table: 1423
epoch: 1000
next table: 1891
cur table: 1898
epoch: 1000
next table: 1421
cur table: 1429
epoch: 1000
next table: 1920
cur table: 1891
epoch: 1000
next table: 1440
cur table: 1421
epoch: 1000
next table: 1760
cur table: 1920
epoch: 1000
next table: 1411
cur table: 1440
epoch: 1000
next table: 1893
cur table: 1760
epoch: 1000
next table: 1422
cur table: 1411
epoch: 1000
next table: 1943
cur table: 1893
epoch: 1000
next table: 1421
cur table: 1422
epoch: 1000
next table: 1932
cur table: 1943
epoch: 1000
next table: 1423
cur table: 1421
epoch: 1000
next table: 1929
cur table: 1932
epoch: 1000
next table: 1427
cur table: 1423
epoch: 1000
next table: 1924
cur table: 1929
epoch: 1000
next table: 1420
cur table: 1427
epoch: 1000
next table: 1972
cur table: 1924
epoch: 1000
next table: 1431
cur table: 1420
epoch: 1000
next table: 1958
cur table: 1972
epoch: 1000
next table: 1969
cur table: 1958
epoch: 1000
next table: 1432
cur table: 1431
epoch: 1000
next table: 1880
cur table: 1969
epoch: 1000
next table: 1419
cur table: 1432
epoch: 1000
next table: 1889
cur table: 1880
epoch: 1000
next table: 1423
cur table: 1419
epoch: 1000
next table: 1824
cur table: 1889
epoch: 1000
next table: 1423
cur table: 1423
epoch: 1000
next table: 1960
cur table: 1824
epoch: 1000
next table: 1446
cur table: 1423
epoch: 1000
next table: 1878
cur table: 1960
epoch: 1000
next table: 1412
cur table: 1446
epoch: 1000
next table: 1921
cur table: 1878
epoch: 1000
next table: 1408
cur table: 1412
epoch: 1000
next table: 1953
cur table: 1921
epoch: 1000
next table: 1433
cur table: 1408
epoch: 1000
next table: 1945
cur table: 1953
epoch: 1000
next table: 1426
cur table: 1433
epoch: 1000
next table: 1920
cur table: 1945
epoch: 1000
next table: 1424
cur table: 1426
epoch: 1000
next table: 1874
cur table: 1920
epoch: 1000
next table: 1426
cur table: 1424
epoch: 1000
next table: 1767
cur table: 1874
epoch: 1000
next table: 1426
cur table: 1426
epoch: 1000
next table: 1983
cur table: 1767
epoch: 1000
next table: 1435
cur table: 1426
epoch: 1000
next table: 1902
cur table: 1983
epoch: 1000
next table: 1423
cur table: 1435
epoch: 1000
next table: 1937
cur table: 1902
epoch: 1000
next table: 1426
cur table: 1423
epoch: 1000
next table: 1924
cur table: 1937
epoch: 1000
next table: 1421
cur table: 1426
epoch: 1000
next table: 1915
cur table: 1924
epoch: 1000
next table: 1435
cur table: 1421
epoch: 1000
next table: 1902
cur table: 1915
epoch: 1000
next table: 1423
cur table: 1435
epoch: 1000
next table: 1891
cur table: 1902
epoch: 1000
next table: 1407
cur table: 1423
epoch: 1000
next table: 1908
cur table: 1891
epoch: 1000
next table: 1422
cur table: 1407
epoch: 1000
next table: 1907
cur table: 1908
epoch: 1000
next table: 1423
cur table: 1422
epoch: 1000
next table: 1757
cur table: 1907
epoch: 1000
next table: 1424
cur table: 1423
epoch: 1000
next table: 1886
cur table: 1757
epoch: 1000
next table: 1425
cur table: 1424
epoch: 1000
next table: 1931
cur table: 1886
epoch: 1000
next table: 1430
cur table: 1425
epoch: 1000
next table: 1918
cur table: 1931
epoch: 1000
next table: 1424
cur table: 1430
epoch: 1000
next table: 1867
cur table: 1918
epoch: 1000
next table: 1428
cur table: 1424
epoch: 1000
next table: 1906
cur table: 1867
epoch: 1000
next table: 1425
cur table: 1428
epoch: 1000
next table: 1923
cur table: 1906
epoch: 1000
next table: 1416
cur table: 1425
epoch: 1000
next table: 1976
cur table: 1923
epoch: 1000
next table: 1436
cur table: 1416
epoch: 1000
next table: 1897
cur table: 1976
epoch: 1000
next table: 1430
cur table: 1436
epoch: 1000
next table: 1841
cur table: 1897
epoch: 1000
next table: 1405
cur table: 1430
epoch: 1000
next table: 1851
cur table: 1841
epoch: 1000
next table: 1432
cur table: 1405
epoch: 1000
next table: 1935
cur table: 1851
epoch: 1000
next table: 1427
cur table: 1432
epoch: 1000
next table: 1930
cur table: 1935
epoch: 1000
next table: 1419
cur table: 1427
epoch: 1000
next table: 1951
cur table: 1930
epoch: 1000
next table: 1431
cur table: 1419
epoch: 1000
next table: 1943
cur table: 1951
epoch: 1000
next table: 1431
cur table: 1431
epoch: 1000
next table: 1920
cur table: 1943
epoch: 1000
next table: 1428
cur table: 1431
epoch: 1000
next table: 1972
cur table: 1920
epoch: 1000
next table: 1426
cur table: 1428
epoch: 1000
next table: 1932
cur table: 1972
epoch: 1000
next table: 1429
cur table: 1426
epoch: 1000
next table: 1932
cur table: 1932
epoch: 1000
next table: 1429
cur table: 1429
epoch: 1000
next table: 1878
cur table: 1932
epoch: 1000
next table: 1426
cur table: 1429
epoch: 1000
next table: 1751
cur table: 1878
epoch: 1000
next table: 1426
cur table: 1426
epoch: 1000
next table: 1968
cur table: 1751
epoch: 1000
next table: 1406
cur table: 1426
epoch: 1000
next table: 1914
cur table: 1968
epoch: 1000
next table: 1891
cur table: 1914
epoch: 1000
next table: 1431
cur table: 1406
epoch: 1000
next table: 1915
cur table: 1891
epoch: 1000
next table: 1431
cur table: 1431
epoch: 1000
next table: 1932
cur table: 1915
epoch: 1000
next table: 1424
cur table: 1431
epoch: 1000
next table: 1867
cur table: 1932
epoch: 1000
next table: 1431
cur table: 1424
epoch: 1000
next table: 1926
cur table: 1867
epoch: 1000
next table: 1428
cur table: 1431
Heartbeat CPU 0 instructions: 40000002 cycles: 11786936 heartbeat IPC: 3.39358 cumulative IPC: 3.39359 (Simulation time: 0 hr 29 min 8 sec) 
epoch: 1000
next table: 1913
cur table: 1926
epoch: 1000
next table: 1429
cur table: 1428
epoch: 1000
next table: 1905
cur table: 1913
epoch: 1000
next table: 1427
cur table: 1429
epoch: 1000
next table: 1763
cur table: 1905
epoch: 1000
next table: 1427
cur table: 1427
epoch: 1000
next table: 1916
cur table: 1763
epoch: 1000
next table: 1425
cur table: 1427
epoch: 1000
next table: 1899
cur table: 1916
epoch: 1000
next table: 1432
cur table: 1425
epoch: 1000
next table: 1922
cur table: 1899
epoch: 1000
next table: 1432
cur table: 1432
epoch: 1000
next table: 1949
cur table: 1922
epoch: 1000
next table: 1409
cur table: 1432
epoch: 1000
next table: 1921
cur table: 1949
epoch: 1000
next table: 1418
cur table: 1409
epoch: 1000
next table: 1941
cur table: 1921
epoch: 1000
next table: 1427
cur table: 1418
epoch: 1000
next table: 1968
cur table: 1941
epoch: 1000
next table: 1432
cur table: 1427
epoch: 1000
next table: 1944
cur table: 1968
epoch: 1000
next table: 1420
cur table: 1432
epoch: 1000
next table: 1861
cur table: 1944
epoch: 1000
next table: 1425
cur table: 1420
epoch: 1000
next table: 1797
cur table: 1861
epoch: 1000
next table: 1432
cur table: 1425
epoch: 1000
next table: 1916
cur table: 1797
epoch: 1000
next table: 1422
cur table: 1432
epoch: 1000
next table: 1913
cur table: 1916
epoch: 1000
next table: 1424
cur table: 1422
epoch: 1000
next table: 1946
cur table: 1913
epoch: 1000
next table: 1434
cur table: 1424
epoch: 1000
next table: 1956
cur table: 1946
epoch: 1000
next table: 1430
cur table: 1434
epoch: 1000
next table: 1945
cur table: 1956
epoch: 1000
next table: 1438
cur table: 1430
epoch: 1000
next table: 1963
cur table: 1945
epoch: 1000
next table: 1405
cur table: 1438
epoch: 1000
next table: 1939
cur table: 1963
epoch: 1000
next table: 1416
cur table: 1405
epoch: 1000
next table: 1942
cur table: 1939
epoch: 1000
next table: 1423
cur table: 1416
epoch: 1000
next table: 1944
cur table: 1942
epoch: 1000
next table: 1427
cur table: 1423
epoch: 1000
next table: 1947
cur table: 1944
epoch: 1000
next table: 1432
cur table: 1427
epoch: 1000
next table: 1774
cur table: 1947
epoch: 1000
next table: 1430
cur table: 1432
epoch: 1000
next table: 1909
cur table: 1774
epoch: 1000
next table: 1420
cur table: 1430
epoch: 1000
next table: 1886
cur table: 1909
epoch: 1000
next table: 1429
cur table: 1420
epoch: 1000
next table: 1943
cur table: 1886
epoch: 1000
next table: 1428
cur table: 1429
epoch: 1000
next table: 1912
cur table: 1943
epoch: 1000
next table: 1429
cur table: 1428
epoch: 1000
next table: 1923
cur table: 1912
epoch: 1000
next table: 1417
cur table: 1429
epoch: 1000
next table: 1959
cur table: 1923
epoch: 1000
next table: 1441
cur table: 1417
epoch: 1000
next table: 1934
cur table: 1959
epoch: 1000
next table: 1422
cur table: 1441
epoch: 1000
next table: 1928
cur table: 1934
epoch: 1000
next table: 1406
cur table: 1422
epoch: 1000
next table: 1860
cur table: 1928
epoch: 1000
next table: 1428
cur table: 1406
epoch: 1000
next table: 1784
cur table: 1860
epoch: 1000
next table: 1419
cur table: 1428
epoch: 1000
next table: 1907
cur table: 1784
epoch: 1000
next table: 1431
cur table: 1419
epoch: 1000
next table: 1890
cur table: 1907
epoch: 1000
next table: 1418
cur table: 1431
epoch: 1000
next table: 1902
cur table: 1890
epoch: 1000
next table: 1425
cur table: 1418
epoch: 1000
next table: 1889
cur table: 1902
epoch: 1000
next table: 1430
cur table: 1425
epoch: 1000
next table: 1958
cur table: 1889
epoch: 1000
next table: 1430
cur table: 1430
epoch: 1000
next table: 1922
cur table: 1958
epoch: 1000
next table: 1874
cur table: 1922
epoch: 1000
next table: 1424
cur table: 1430
epoch: 1000
next table: 1794
cur table: 1874
epoch: 1000
next table: 1425
cur table: 1424
epoch: 1000
next table: 1902
cur table: 1794
epoch: 1000
next table: 1425
cur table: 1425
epoch: 1000
next table: 1917
cur table: 1902
epoch: 1000
next table: 1434
cur table: 1425
epoch: 1000
next table: 1914
cur table: 1917
epoch: 1000
next table: 1408
cur table: 1434
epoch: 1000
next table: 1893
cur table: 1914
epoch: 1000
next table: 1425
cur table: 1408
epoch: 1000
next table: 1922
cur table: 1893
epoch: 1000
next table: 1424
cur table: 1425
epoch: 1000
next table: 1972
cur table: 1922
epoch: 1000
next table: 1425
cur table: 1424
epoch: 1000
next table: 1969
cur table: 1972
epoch: 1000
next table: 1425
cur table: 1425
epoch: 1000
next table: 1742
cur table: 1969
epoch: 1000
next table: 1427
cur table: 1425
epoch: 1000
next table: 1907
cur table: 1742
epoch: 1000
next table: 1426
cur table: 1427
epoch: 1000
next table: 1926
cur table: 1907
epoch: 1000
next table: 1441
cur table: 1426
epoch: 1000
next table: 1904
cur table: 1926
epoch: 1000
next table: 1426
cur table: 1441
epoch: 1000
next table: 1940
cur table: 1904
epoch: 1000
next table: 1418
cur table: 1426
epoch: 1000
next table: 1909
cur table: 1940
epoch: 1000
next table: 1427
cur table: 1418
epoch: 1000
next table: 1936
cur table: 1909
epoch: 1000
next table: 1441
cur table: 1427
epoch: 1000
next table: 1949
cur table: 1936
epoch: 1000
next table: 1416
cur table: 1441
epoch: 1000
next table: 1971
cur table: 1949
epoch: 1000
next table: 1403
cur table: 1416
epoch: 1000
next table: 1934
cur table: 1971
epoch: 1000
next table: 1430
cur table: 1403
epoch: 1000
next table: 1904
cur table: 1934
epoch: 1000
next table: 1419
cur table: 1430
epoch: 1000
next table: 1791
cur table: 1904
epoch: 1000
next table: 1425
cur table: 1419
epoch: 1000
next table: 1927
cur table: 1791
epoch: 1000
next table: 1423
cur table: 1425
epoch: 1000
next table: 1944
cur table: 1927
epoch: 1000
next table: 1436
cur table: 1423
epoch: 1000
next table: 1881
cur table: 1944
epoch: 1000
next table: 1425
cur table: 1436
epoch: 1000
next table: 1938
cur table: 1881
epoch: 1000
next table: 1415
cur table: 1425
epoch: 1000
next table: 1929
cur table: 1938
epoch: 1000
next table: 1425
cur table: 1415
epoch: 1000
next table: 1926
cur table: 1929
epoch: 1000
next table: 1429
cur table: 1425
epoch: 1000
next table: 1944
cur table: 1926
epoch: 1000
next table: 1433
cur table: 1429
epoch: 1000
next table: 1962
cur table: 1944
epoch: 1000
next table: 1417
cur table: 1433
epoch: 1000
next table: 1906
cur table: 1962
epoch: 1000
next table: 1411
cur table: 1417
epoch: 1000
next table: 1894
cur table: 1906
epoch: 1000
next table: 1433
cur table: 1411
epoch: 1000
next table: 1735
cur table: 1894
epoch: 1000
next table: 1420
cur table: 1433
epoch: 1000
next table: 1939
cur table: 1735
epoch: 1000
next table: 1420
cur table: 1420
epoch: 1000
next table: 1933
cur table: 1939
epoch: 1000
next table: 1428
cur table: 1420
epoch: 1000
next table: 1953
cur table: 1933
epoch: 1000
next table: 1434
cur table: 1428
epoch: 1000
next table: 1923
cur table: 1953
epoch: 1000
next table: 1423
cur table: 1434
epoch: 1000
next table: 1886
cur table: 1923
epoch: 1000
next table: 1422
cur table: 1423
epoch: 1000
next table: 1919
cur table: 1886
epoch: 1000
next table: 1422
cur table: 1422
epoch: 1000
next table: 1953
cur table: 1919
epoch: 1000
next table: 1424
cur table: 1422
epoch: 1000
next table: 1928
cur table: 1953
epoch: 1000
next table: 1443
cur table: 1424
epoch: 1000
next table: 1905
cur table: 1928
epoch: 1000
next table: 1413
cur table: 1443
epoch: 1000
next table: 1735
cur table: 1905
epoch: 1000
next table: 1412
cur table: 1413
epoch: 1000
next table: 1926
cur table: 1735
epoch: 1000
next table: 1426
cur table: 1412
epoch: 1000
next table: 1898
cur table: 1926
epoch: 1000
next table: 1424
cur table: 1426
epoch: 1000
next table: 1861
cur table: 1898
epoch: 1000
next table: 1872
cur table: 1861
epoch: 1000
next table: 1425
cur table: 1424
epoch: 1000
next table: 1934
cur table: 1872
epoch: 1000
next table: 1436
cur table: 1425
epoch: 1000
next table: 2002
cur table: 1934
epoch: 1000
next table: 1452
cur table: 1436
epoch: 1000
next table: 1889
cur table: 2002
epoch: 1000
next table: 1451
cur table: 1452
epoch: 1000
next table: 1927
cur table: 1889
epoch: 1000
next table: 1455
cur table: 1451
epoch: 1000
next table: 1754
cur table: 1927
epoch: 1000
next table: 1452
cur table: 1455
epoch: 1000
next table: 1966
cur table: 1754
epoch: 1000
next table: 1451
cur table: 1452
epoch: 1000
next table: 1887
cur table: 1966
epoch: 1000
next table: 1449
cur table: 1451
epoch: 1000
next table: 1924
cur table: 1887
epoch: 1000
next table: 1442
cur table: 1449
epoch: 1000
next table: 1929
cur table: 1924
epoch: 1000
next table: 1447
cur table: 1442
epoch: 1000
next table: 1950
cur table: 1929
epoch: 1000
next table: 1450
cur table: 1447
epoch: 1000
next table: 1932
cur table: 1950
epoch: 1000
next table: 1455
cur table: 1450
epoch: 1000
next table: 1920
cur table: 1932
epoch: 1000
next table: 1453
cur table: 1455
epoch: 1000
next table: 1946
cur table: 1920
epoch: 1000
next table: 1449
cur table: 1453
epoch: 1000
next table: 1924
cur table: 1946
epoch: 1000
next table: 1446
cur table: 1449
epoch: 1000
next table: 1848
cur table: 1924
epoch: 1000
next table: 1829
cur table: 1848
epoch: 1000
next table: 1448
cur table: 1446
epoch: 1000
next table: 1950
cur table: 1829
epoch: 1000
next table: 1453
cur table: 1448
epoch: 1000
next table: 1941
cur table: 1950
epoch: 1000
next table: 1459
cur table: 1453
epoch: 1000
next table: 1886
cur table: 1941
epoch: 1000
next table: 1451
cur table: 1459
epoch: 1000
next table: 1905
cur table: 1886
epoch: 1000
next table: 1459
cur table: 1451
epoch: 1000
next table: 1922
cur table: 1905
epoch: 1000
next table: 1448
cur table: 1459
epoch: 1000
next table: 1935
cur table: 1922
epoch: 1000
next table: 1448
cur table: 1448
epoch: 1000
next table: 1862
cur table: 1935
epoch: 1000
next table: 1442
cur table: 1448
epoch: 1000
next table: 1750
cur table: 1862
epoch: 1000
next table: 1447
cur table: 1442
epoch: 1000
next table: 1891
cur table: 1750
epoch: 1000
next table: 1447
cur table: 1447
epoch: 1000
next table: 1861
cur table: 1891
epoch: 1000
next table: 1966
cur table: 1861
epoch: 1000
next table: 1446
cur table: 1447
epoch: 1000
next table: 1946
cur table: 1966
epoch: 1000
next table: 1455
cur table: 1446
epoch: 1000
next table: 1933
cur table: 1946
epoch: 1000
next table: 1454
cur table: 1455
epoch: 1000
next table: 1952
cur table: 1933
epoch: 1000
next table: 1464
cur table: 1454
epoch: 1000
next table: 1980
cur table: 1952
epoch: 1000
next table: 1448
cur table: 1464
epoch: 1000
next table: 1975
cur table: 1980
epoch: 1000
next table: 1449
cur table: 1448
epoch: 1000
next table: 1947
cur table: 1975
epoch: 1000
next table: 1446
cur table: 1449
epoch: 1000
next table: 1933
cur table: 1947
epoch: 1000
next table: 1455
cur table: 1446
epoch: 1000
next table: 1780
cur table: 1933
epoch: 1000
next table: 1445
cur table: 1455
epoch: 1000
next table: 1972
cur table: 1780
epoch: 1000
next table: 1445
cur table: 1445
epoch: 1000
next table: 1957
cur table: 1972
epoch: 1000
next table: 1449
cur table: 1445
epoch: 1000
next table: 1913
cur table: 1957
epoch: 1000
next table: 1449
cur table: 1449
epoch: 1000
next table: 1946
cur table: 1913
epoch: 1000
next table: 1452
cur table: 1449
epoch: 1000
next table: 1954
cur table: 1946
epoch: 1000
next table: 1447
cur table: 1452
epoch: 1000
next table: 1931
cur table: 1954
epoch: 1000
next table: 1452
cur table: 1447
epoch: 1000
next table: 1919
cur table: 1931
epoch: 1000
next table: 1948
cur table: 1919
epoch: 1000
next table: 1458
cur table: 1452
epoch: 1000
next table: 1985
cur table: 1948
epoch: 1000
next table: 1447
cur table: 1458
epoch: 1000
next table: 1917
cur table: 1985
epoch: 1000
next table: 1453
cur table: 1447
epoch: 1000
next table: 1813
cur table: 1917
epoch: 1000
next table: 1444
cur table: 1453
epoch: 1000
next table: 1890
cur table: 1813
epoch: 1000
next table: 1448
cur table: 1444
epoch: 1000
next table: 1883
cur table: 1890
epoch: 1000
next table: 1454
cur table: 1448
epoch: 1000
next table: 1900
cur table: 1883
epoch: 1000
next table: 1454
cur table: 1454
epoch: 1000
next table: 1915
cur table: 1900
epoch: 1000
next table: 1446
cur table: 1454
epoch: 1000
next table: 1942
cur table: 1915
epoch: 1000
next table: 1455
cur table: 1446
epoch: 1000
next table: 1987
cur table: 1942
epoch: 1000
next table: 1447
cur table: 1455
epoch: 1000
next table: 1951
cur table: 1987
epoch: 1000
next table: 1455
cur table: 1447
epoch: 1000
next table: 1913
cur table: 1951
epoch: 1000
next table: 1447
cur table: 1455
epoch: 1000
next table: 1901
cur table: 1913
epoch: 1000
next table: 1451
cur table: 1447
epoch: 1000
next table: 1853
cur table: 1901
epoch: 1000
next table: 1903
cur table: 1853
epoch: 1000
next table: 1450
cur table: 1451
epoch: 1000
next table: 1962
cur table: 1903
epoch: 1000
next table: 1440
cur table: 1450
epoch: 1000
next table: 1909
cur table: 1962
epoch: 1000
next table: 1416
cur table: 1440
epoch: 1000
next table: 1942
cur table: 1909
epoch: 1000
next table: 1418
cur table: 1416
epoch: 1000
next table: 1951
cur table: 1942
epoch: 1000
next table: 1431
cur table: 1418
epoch: 1000
next table: 1945
cur table: 1951
epoch: 1000
next table: 1424
cur table: 1431
Heartbeat CPU 0 instructions: 50000003 cycles: 14733652 heartbeat IPC: 3.39361 cumulative IPC: 3.39359 (Simulation time: 0 hr 35 min 54 sec) 

Warmup complete CPU 0 instructions: 50000003 cycles: 14733652 (Simulation time: 0 hr 35 min 54 sec) 

epoch: 1000
next table: 1485
cur table: 1500
epoch: 1000
next table: 1426
cur table: 1431
epoch: 1000
next table: 1493
cur table: 1485
epoch: 1000
next table: 1428
cur table: 1426
epoch: 1000
next table: 1544
cur table: 1493
epoch: 1000
next table: 1429
cur table: 1428
epoch: 1000
next table: 1490
cur table: 1544
epoch: 1000
next table: 1433
cur table: 1429
epoch: 1000
next table: 1481
cur table: 1490
epoch: 1000
next table: 1431
cur table: 1433
epoch: 1000
next table: 1527
cur table: 1481
epoch: 1000
next table: 1427
cur table: 1431
epoch: 1000
next table: 1416
cur table: 1527
epoch: 1000
next table: 1419
cur table: 1427
epoch: 1000
next table: 1467
cur table: 1416
epoch: 1000
next table: 1436
cur table: 1419
epoch: 1000
next table: 1495
cur table: 1467
epoch: 1000
next table: 1425
cur table: 1436
epoch: 1000
next table: 1512
cur table: 1495
epoch: 1000
next table: 1433
cur table: 1425
epoch: 1000
next table: 1482
cur table: 1512
epoch: 1000
next table: 1407
cur table: 1433
epoch: 1000
next table: 1533
cur table: 1482
epoch: 1000
next table: 1419
cur table: 1407
epoch: 1000
next table: 1501
cur table: 1533
epoch: 1000
next table: 1430
cur table: 1419
epoch: 1000
next table: 1512
cur table: 1501
epoch: 1000
next table: 1414
cur table: 1430
epoch: 1000
next table: 1451
cur table: 1512
epoch: 1000
next table: 1423
cur table: 1414
epoch: 1000
next table: 1457
cur table: 1451
epoch: 1000
next table: 1424
cur table: 1423
epoch: 1000
next table: 1487
cur table: 1457
epoch: 1000
next table: 1423
cur table: 1424
epoch: 1000
next table: 1491
cur table: 1487
epoch: 1000
next table: 1430
cur table: 1423
epoch: 1000
next table: 1494
cur table: 1491
epoch: 1000
next table: 1433
cur table: 1430
epoch: 1000
next table: 1505
cur table: 1494
epoch: 1000
next table: 1419
cur table: 1433
epoch: 1000
next table: 1496
cur table: 1505
epoch: 1000
next table: 1426
cur table: 1419
epoch: 1000
next table: 1499
cur table: 1496
epoch: 1000
next table: 1433
cur table: 1426
epoch: 1000
next table: 1478
cur table: 1499
epoch: 1000
next table: 1403
cur table: 1433
epoch: 1000
next table: 1428
cur table: 1478
epoch: 1000
next table: 1423
cur table: 1403
epoch: 1000
next table: 1465
cur table: 1428
epoch: 1000
next table: 1428
cur table: 1423
epoch: 1000
next table: 1510
cur table: 1465
epoch: 1000
next table: 1424
cur table: 1428
epoch: 1000
next table: 1488
cur table: 1510
epoch: 1000
next table: 1418
cur table: 1424
epoch: 1000
next table: 1483
cur table: 1488
epoch: 1000
next table: 1488
cur table: 1483
epoch: 1000
next table: 1431
cur table: 1418
epoch: 1000
next table: 1484
cur table: 1488
epoch: 1000
next table: 1425
cur table: 1431
epoch: 1000
next table: 1447
cur table: 1484
epoch: 1000
next table: 1430
cur table: 1425
epoch: 1000
next table: 1486
cur table: 1447
epoch: 1000
next table: 1429
cur table: 1430
epoch: 1000
next table: 1476
cur table: 1486
epoch: 1000
next table: 1422
cur table: 1429
epoch: 1000
next table: 1465
cur table: 1476
epoch: 1000
next table: 1433
cur table: 1422
epoch: 1000
next table: 1481
cur table: 1465
epoch: 1000
next table: 1434
cur table: 1433
epoch: 1000
next table: 1486
cur table: 1481
epoch: 1000
next table: 1409
cur table: 1434
epoch: 1000
next table: 1473
cur table: 1486
epoch: 1000
next table: 1411
cur table: 1409
epoch: 1000
next table: 1476
cur table: 1473
epoch: 1000
next table: 1427
cur table: 1411
epoch: 1000
next table: 1492
cur table: 1476
epoch: 1000
next table: 1421
cur table: 1427
epoch: 1000
next table: 1542
cur table: 1492
epoch: 1000
next table: 1426
cur table: 1421
epoch: 1000
next table: 1445
cur table: 1542
epoch: 1000
next table: 1425
cur table: 1426
epoch: 1000
next table: 1462
cur table: 1445
epoch: 1000
next table: 1436
cur table: 1425
epoch: 1000
next table: 1483
cur table: 1462
epoch: 1000
next table: 1438
cur table: 1436
epoch: 1000
next table: 1483
cur table: 1483
epoch: 1000
next table: 1432
cur table: 1438
epoch: 1000
next table: 1508
cur table: 1483
epoch: 1000
next table: 1424
cur table: 1432
epoch: 1000
next table: 1492
cur table: 1508
epoch: 1000
next table: 1425
cur table: 1424
epoch: 1000
next table: 1482
cur table: 1492
epoch: 1000
next table: 1431
cur table: 1425
epoch: 1000
next table: 1490
cur table: 1482
epoch: 1000
next table: 1427
cur table: 1431
epoch: 1000
next table: 1476
cur table: 1490
epoch: 1000
next table: 1436
cur table: 1427
epoch: 1000
next table: 1509
cur table: 1476
epoch: 1000
next table: 1418
cur table: 1436
epoch: 1000
next table: 1473
cur table: 1509
epoch: 1000
next table: 1428
cur table: 1418
epoch: 1000
next table: 1474
cur table: 1473
epoch: 1000
next table: 1423
cur table: 1428
epoch: 1000
next table: 1567
cur table: 1474
epoch: 1000
next table: 1431
cur table: 1423
epoch: 1000
next table: 1501
cur table: 1567
epoch: 1000
next table: 1446
cur table: 1431
epoch: 1000
next table: 1516
cur table: 1501
epoch: 1000
next table: 1443
cur table: 1446
epoch: 1000
next table: 1498
cur table: 1516
epoch: 1000
next table: 1425
cur table: 1443
epoch: 1000
next table: 1491
cur table: 1498
epoch: 1000
next table: 1424
cur table: 1425
epoch: 1000
next table: 1595
cur table: 1491
epoch: 1000
next table: 1422
cur table: 1424
epoch: 1000
next table: 1505
cur table: 1595
epoch: 1000
next table: 1435
cur table: 1422
epoch: 1000
next table: 1497
cur table: 1505
epoch: 1000
next table: 1421
cur table: 1435
epoch: 1000
next table: 1489
cur table: 1497
epoch: 1000
next table: 1421
cur table: 1421
epoch: 1000
next table: 1476
cur table: 1489
epoch: 1000
next table: 1422
cur table: 1421
epoch: 1000
next table: 1464
cur table: 1476
epoch: 1000
next table: 1402
cur table: 1422
epoch: 1000
next table: 1492
cur table: 1464
epoch: 1000
next table: 1428
cur table: 1402
epoch: 1000
next table: 1461
cur table: 1492
epoch: 1000
next table: 1425
cur table: 1428
epoch: 1000
next table: 1501
cur table: 1461
epoch: 1000
next table: 1422
cur table: 1425
epoch: 1000
next table: 1491
cur table: 1501
epoch: 1000
next table: 1419
cur table: 1422
epoch: 1000
next table: 1487
cur table: 1491
epoch: 1000
next table: 1423
cur table: 1419
epoch: 1000
next table: 1469
cur table: 1487
epoch: 1000
next table: 1423
cur table: 1423
epoch: 1000
next table: 1490
cur table: 1469
epoch: 1000
next table: 1422
cur table: 1423
epoch: 1000
next table: 1487
cur table: 1490
epoch: 1000
next table: 1424
cur table: 1422
epoch: 1000
next table: 1486
cur table: 1487
epoch: 1000
next table: 1434
cur table: 1424
epoch: 1000
next table: 1517
cur table: 1486
epoch: 1000
next table: 1430
cur table: 1434
epoch: 1000
next table: 1451
cur table: 1517
epoch: 1000
next table: 1412
cur table: 1430
epoch: 1000
next table: 1490
cur table: 1451
epoch: 1000
next table: 1410
cur table: 1412
epoch: 1000
next table: 1617
cur table: 1490
epoch: 1000
next table: 1426
cur table: 1410
epoch: 1000
next table: 1508
cur table: 1617
epoch: 1000
next table: 1410
cur table: 1426
epoch: 1000
next table: 1478
cur table: 1508
epoch: 1000
next table: 1410
cur table: 1410
epoch: 1000
next table: 1487
cur table: 1478
epoch: 1000
next table: 1424
cur table: 1410
epoch: 1000
next table: 1502
cur table: 1487
epoch: 1000
next table: 1419
cur table: 1424
epoch: 1000
next table: 1490
cur table: 1502
epoch: 1000
next table: 1405
cur table: 1419
epoch: 1000
next table: 1455
cur table: 1490
epoch: 1000
next table: 1416
cur table: 1405
epoch: 1000
next table: 1603
cur table: 1455
epoch: 1000
next table: 1426
cur table: 1416
epoch: 1000
next table: 1446
cur table: 1603
epoch: 1000
next table: 1434
cur table: 1426
epoch: 1000
next table: 1510
cur table: 1446
epoch: 1000
next table: 1399
cur table: 1434
epoch: 1000
next table: 1471
cur table: 1510
epoch: 1000
next table: 1429
cur table: 1399
epoch: 1000
next table: 1489
cur table: 1471
epoch: 1000
next table: 1415
cur table: 1429
epoch: 1000
next table: 1494
cur table: 1489
epoch: 1000
next table: 1423
cur table: 1415
epoch: 1000
next table: 1493
cur table: 1494
epoch: 1000
next table: 1429
cur table: 1423
epoch: 1000
next table: 1514
cur table: 1493
epoch: 1000
next table: 1428
cur table: 1429
epoch: 1000
next table: 1503
cur table: 1514
epoch: 1000
next table: 1432
cur table: 1428
epoch: 1000
next table: 1498
cur table: 1503
epoch: 1000
next table: 1439
cur table: 1432
epoch: 1000
next table: 1515
cur table: 1498
epoch: 1000
next table: 1443
cur table: 1439
epoch: 1000
next table: 1504
cur table: 1515
epoch: 1000
next table: 1442
cur table: 1443
epoch: 1000
next table: 1513
cur table: 1504
epoch: 1000
next table: 1448
cur table: 1442
epoch: 1000
next table: 1515
cur table: 1513
epoch: 1000
next table: 1437
cur table: 1448
epoch: 1000
next table: 1507
cur table: 1515
epoch: 1000
next table: 1425
cur table: 1437
epoch: 1000
next table: 1448
cur table: 1507
epoch: 1000
next table: 1426
cur table: 1425
epoch: 1000
next table: 1475
cur table: 1448
epoch: 1000
next table: 1413
cur table: 1426
epoch: 1000
next table: 1479
cur table: 1475
epoch: 1000
next table: 1412
cur table: 1413
epoch: 1000
next table: 1489
cur table: 1479
epoch: 1000
next table: 1421
cur table: 1412
epoch: 1000
next table: 1590
cur table: 1489
epoch: 1000
next table: 1418
cur table: 1421
epoch: 1000
next table: 1508
cur table: 1590
epoch: 1000
next table: 1488
cur table: 1508
epoch: 1000
next table: 1419
cur table: 1418
epoch: 1000
next table: 1499
cur table: 1488
epoch: 1000
next table: 1424
cur table: 1419
epoch: 1000
next table: 1543
cur table: 1499
epoch: 1000
next table: 1422
cur table: 1424
epoch: 1000
next table: 1499
cur table: 1543
epoch: 1000
next table: 1445
cur table: 1422
epoch: 1000
next table: 1485
cur table: 1499
epoch: 1000
next table: 1419
cur table: 1445
epoch: 1000
next table: 1428
cur table: 1485
epoch: 1000
next table: 1403
cur table: 1419
epoch: 1000
next table: 1477
cur table: 1428
epoch: 1000
next table: 1433
cur table: 1403
epoch: 1000
next table: 1587
cur table: 1477
epoch: 1000
next table: 1417
cur table: 1433
epoch: 1000
next table: 1481
cur table: 1587
epoch: 1000
next table: 1409
cur table: 1417
epoch: 1000
next table: 1615
cur table: 1481
epoch: 1000
next table: 1450
cur table: 1409
epoch: 1000
next table: 1524
cur table: 1615
epoch: 1000
next table: 1444
cur table: 1450
epoch: 1000
next table: 1514
cur table: 1524
epoch: 1000
next table: 1438
cur table: 1444
epoch: 1000
next table: 1516
cur table: 1514
epoch: 1000
next table: 1431
cur table: 1438
epoch: 1000
next table: 1512
cur table: 1516
epoch: 1000
next table: 1429
cur table: 1431
epoch: 1000
next table: 1499
cur table: 1512
epoch: 1000
next table: 1418
cur table: 1429
epoch: 1000
next table: 1507
cur table: 1499
epoch: 1000
next table: 1430
cur table: 1418
epoch: 1000
next table: 1491
cur table: 1507
epoch: 1000
next table: 1425
cur table: 1430
epoch: 1000
next table: 1484
cur table: 1491
epoch: 1000
next table: 1420
cur table: 1425
epoch: 1000
next table: 1462
cur table: 1484
epoch: 1000
next table: 1417
cur table: 1420
epoch: 1000
next table: 1491
cur table: 1462
epoch: 1000
next table: 1432
cur table: 1417
epoch: 1000
next table: 1560
cur table: 1491
epoch: 1000
next table: 1426
cur table: 1432
epoch: 1000
next table: 1567
cur table: 1560
epoch: 1000
next table: 1408
cur table: 1426
epoch: 1000
next table: 1487
cur table: 1567
epoch: 1000
next table: 1423
cur table: 1408
epoch: 1000
next table: 1602
cur table: 1487
epoch: 1000
next table: 1423
cur table: 1423
epoch: 1000
next table: 1482
cur table: 1602
epoch: 1000
next table: 1417
cur table: 1423
epoch: 1000
next table: 1469
cur table: 1482
epoch: 1000
next table: 1424
cur table: 1417
epoch: 1000
next table: 1521
cur table: 1469
epoch: 1000
next table: 1426
cur table: 1424
epoch: 1000
next table: 1635
cur table: 1521
epoch: 1000
next table: 1429
cur table: 1426
epoch: 1000
next table: 1503
cur table: 1635
epoch: 1000
next table: 1415
cur table: 1429
epoch: 1000
next table: 1462
cur table: 1503
epoch: 1000
next table: 1433
cur table: 1415
epoch: 1000
next table: 1503
cur table: 1462
epoch: 1000
next table: 1423
cur table: 1433
epoch: 1000
next table: 1491
cur table: 1503
epoch: 1000
next table: 1423
cur table: 1423
epoch: 1000
next table: 1603
cur table: 1491
epoch: 1000
next table: 1447
cur table: 1423
epoch: 1000
next table: 1490
cur table: 1603
epoch: 1000
next table: 1410
cur table: 1447
epoch: 1000
next table: 1503
cur table: 1490
epoch: 1000
next table: 1418
cur table: 1410
epoch: 1000
next table: 1499
cur table: 1503
epoch: 1000
next table: 1429
cur table: 1418
epoch: 1000
next table: 1590
cur table: 1499
epoch: 1000
next table: 1416
cur table: 1429
epoch: 1000
next table: 1476
cur table: 1590
epoch: 1000
next table: 1410
cur table: 1416
epoch: 1000
next table: 1448
cur table: 1476
epoch: 1000
next table: 1418
cur table: 1410
epoch: 1000
next table: 1480
cur table: 1448
epoch: 1000
next table: 1422
cur table: 1418
epoch: 1000
next table: 1422
cur table: 1480
epoch: 1000
next table: 1393
cur table: 1422
epoch: 1000
next table: 1475
cur table: 1422
epoch: 1000
next table: 1418
cur table: 1393
Heartbeat CPU 0 instructions: 60000000 cycles: 23509169 heartbeat IPC: 1.13953 cumulative IPC: 1.13953 (Simulation time: 0 hr 41 min 27 sec) 
epoch: 1000
next table: 1588
cur table: 1475
epoch: 1000
next table: 1431
cur table: 1418
epoch: 1000
next table: 1481
cur table: 1588
epoch: 1000
next table: 1417
cur table: 1431
epoch: 1000
next table: 1492
cur table: 1481
epoch: 1000
next table: 1417
cur table: 1417
epoch: 1000
next table: 1505
cur table: 1492
epoch: 1000
next table: 1431
cur table: 1417
epoch: 1000
next table: 1508
cur table: 1505
epoch: 1000
next table: 1416
cur table: 1431
epoch: 1000
next table: 1503
cur table: 1508
epoch: 1000
next table: 1417
cur table: 1416
epoch: 1000
next table: 1493
cur table: 1503
epoch: 1000
next table: 1430
cur table: 1417
epoch: 1000
next table: 1493
cur table: 1493
epoch: 1000
next table: 1425
cur table: 1430
epoch: 1000
next table: 1580
cur table: 1493
epoch: 1000
next table: 1423
cur table: 1425
epoch: 1000
next table: 1495
cur table: 1580
epoch: 1000
next table: 1422
cur table: 1423
epoch: 1000
next table: 1485
cur table: 1495
epoch: 1000
next table: 1420
cur table: 1422
epoch: 1000
next table: 1470
cur table: 1485
epoch: 1000
next table: 1417
cur table: 1420
epoch: 1000
next table: 1501
cur table: 1470
epoch: 1000
next table: 1432
cur table: 1417
epoch: 1000
next table: 1569
cur table: 1501
epoch: 1000
next table: 1399
cur table: 1432
epoch: 1000
next table: 1479
cur table: 1569
epoch: 1000
next table: 1415
cur table: 1399
epoch: 1000
next table: 1486
cur table: 1479
epoch: 1000
next table: 1408
cur table: 1415
epoch: 1000
next table: 1553
cur table: 1486
epoch: 1000
next table: 1412
cur table: 1408
epoch: 1000
next table: 1519
cur table: 1553
epoch: 1000
next table: 1424
cur table: 1412
epoch: 1000
next table: 1476
cur table: 1519
epoch: 1000
next table: 1423
cur table: 1424
epoch: 1000
next table: 1492
cur table: 1476
epoch: 1000
next table: 1427
cur table: 1423
epoch: 1000
next table: 1466
cur table: 1492
epoch: 1000
next table: 1418
cur table: 1427
epoch: 1000
next table: 1471
cur table: 1466
epoch: 1000
[...]
next table: 1479
cur table: 1617
epoch: 1000
next table: 1455
cur table: 1451
epoch: 1000
next table: 1502
cur table: 1479
epoch: 1000
next table: 1502
cur table: 1502
epoch: 1000
next table: 1447
cur table: 1455
epoch: 1000
next table: 1481
cur table: 1502
epoch: 1000
next table: 1451
cur table: 1447
epoch: 1000
next table: 1493
cur table: 1481
epoch: 1000
next table: 1444
cur table: 1451
epoch: 1000
next table: 1479
cur table: 1493
epoch: 1000
next table: 1448
cur table: 1444
epoch: 1000
next table: 1490
cur table: 1479
epoch: 1000
next table: 1445
cur table: 1448
epoch: 1000
next table: 1479
cur table: 1490
epoch: 1000
next table: 1454
cur table: 1445
epoch: 1000
next table: 1580
cur table: 1479
epoch: 1000
next table: 1444
cur table: 1454
epoch: 1000
next table: 1517
cur table: 1580
epoch: 1000
next table: 1465
cur table: 1444
epoch: 1000
next table: 1504
cur table: 1517
epoch: 1000
next table: 1445
cur table: 1465
epoch: 1000
next table: 1499
cur table: 1504
epoch: 1000
next table: 1444
cur table: 1445
epoch: 1000
next table: 1519
cur table: 1499
epoch: 1000
next table: 1453
cur table: 1444
epoch: 1000
next table: 1509
cur table: 1519
epoch: 1000
next table: 1450
cur table: 1453
epoch: 1000
next table: 1483
cur table: 1509
epoch: 1000
next table: 1445
cur table: 1450
epoch: 1000
next table: 1474
cur table: 1483
epoch: 1000
next table: 1442
cur table: 1445
epoch: 1000
next table: 1471
cur table: 1474
epoch: 1000
next table: 1445
cur table: 1442
epoch: 1000
next table: 1463
cur table: 1471
epoch: 1000
next table: 1478
cur table: 1463
epoch: 1000
next table: 1439
cur table: 1445
epoch: 1000
next table: 1480
cur table: 1478
epoch: 1000
next table: 1442
cur table: 1439
epoch: 1000
next table: 1489
cur table: 1480
epoch: 1000
next table: 1444
cur table: 1442
epoch: 1000
next table: 1506
cur table: 1489
epoch: 1000
next table: 1451
cur table: 1444
epoch: 1000
next table: 1489
cur table: 1506
epoch: 1000
next table: 1453
cur table: 1451
epoch: 1000
next table: 1495
cur table: 1489
epoch: 1000
next table: 1442
cur table: 1453
epoch: 1000
next table: 1501
cur table: 1495
epoch: 1000
next table: 1453
cur table: 1442
epoch: 1000
next table: 1490
cur table: 1501
epoch: 1000
next table: 1439
cur table: 1453
epoch: 1000
next table: 1476
cur table: 1490
epoch: 1000
next table: 1457
cur table: 1439
epoch: 1000
next table: 1482
cur table: 1476
epoch: 1000
next table: 1444
cur table: 1457
epoch: 1000
next table: 1486
cur table: 1482
epoch: 1000
next table: 1445
cur table: 1444
epoch: 1000
next table: 1539
cur table: 1486
Heartbeat CPU 0 instructions: 100000000 cycles: 58624875 heartbeat IPC: 1.13875 cumulative IPC: 1.13918 (Simulation time: 1 hr 6 min 9 sec) 
Finished CPU 0 instructions: 50000000 cycles: 43891239 cumulative IPC: 1.13918 (Simulation time: 1 hr 6 min 9 sec) 

ChampSim completed all CPUs

Region of Interest Statistics

CPU 0 cumulative IPC: 1.13918 instructions: 50000000 cycles: 43891239
ITLB TOTAL     ACCESS:    6032017  HIT:    6032017  MISS:          0  HIT %:        100  MISS %:          0   MPKI: 0
ITLB LOAD TRANSLATION ACCESS:    6032017  HIT:    6032017  MISS:          0  HIT %:        100  MISS %:          0   MPKI: 0
ITLB PREFETCH  REQUESTED:          0  ISSUED:          0  USEFUL:          0  USELESS:          0
ITLB USEFUL LOAD PREFETCHES:          0 PREFETCH ISSUED TO LOWER LEVEL:          0  ACCURACY: -nan
ITLB TIMELY PREFETCHES:          0 LATE PREFETCHES: 0 DROPPED PREFETCHES: 0
ITLB PREFETCHES SAME FILL-ORIGIN LEVEL: 0 DIFFERENT FILL-ORIGIN LEVEL: 0
ITLB AVERAGE MISS LATENCY: -nan cycles
ITLB RQ	ACCESS:    7012163	FORWARD:          0	MERGED:     980146	TO_CACHE:    6032017

Revised Interactions: positive negative neutral
ITLB_interactions 0 0 0 -nan -nan -nan
DTLB TOTAL     ACCESS:   12704598  HIT:   12588855  MISS:     115743  HIT %:     99.089  MISS %:   0.911032   MPKI: 2.31486
DTLB LOAD TRANSLATION ACCESS:   12704598  HIT:   12588855  MISS:     115743  HIT %:     99.089  MISS %:   0.911032   MPKI: 2.31486
DTLB PREFETCH  REQUESTED:          0  ISSUED:          0  USEFUL:          0  USELESS:          0
DTLB USEFUL LOAD PREFETCHES:          0 PREFETCH ISSUED TO LOWER LEVEL:          0  ACCURACY: -nan
DTLB TIMELY PREFETCHES:          0 LATE PREFETCHES: 0 DROPPED PREFETCHES: 0
DTLB PREFETCHES SAME FILL-ORIGIN LEVEL: 0 DIFFERENT FILL-ORIGIN LEVEL: 0
DTLB AVERAGE MISS LATENCY: 42.5017 cycles
DTLB RQ	ACCESS:   18839476	FORWARD:          0	MERGED:    6129523	TO_CACHE:   12709953

Revised Interactions: positive negative neutral
DTLB_interactions 0 0 0 -nan -nan -nan
STLB TOTAL     ACCESS:     598800  HIT:     588142  MISS:      10658  HIT %:    98.2201  MISS %:    1.77989   MPKI: 0.21316
STLB LOAD TRANSLATION ACCESS:     115743  HIT:     105085  MISS:      10658  HIT %:    90.7917  MISS %:    9.20833   MPKI: 0.21316
STLB TRANSLATION FROM L1D PREFETCHER ACCESS:     483057  HIT:     483057  MISS:          0  HIT %:        100  MISS %:          0   MPKI: 0
STLB PREFETCH  REQUESTED:          0  ISSUED:          0  USEFUL:          0  USELESS:          0
STLB USEFUL LOAD PREFETCHES:          0 PREFETCH ISSUED TO LOWER LEVEL:          0  ACCURACY: -nan
STLB TIMELY PREFETCHES:          0 LATE PREFETCHES: 0 DROPPED PREFETCHES: 0
STLB PREFETCHES SAME FILL-ORIGIN LEVEL: 0 DIFFERENT FILL-ORIGIN LEVEL: 0
STLB AVERAGE MISS LATENCY: 356.146 cycles
STLB RQ	ACCESS:    2632882	FORWARD:          0	MERGED:    2034082	TO_CACHE:     598800

Revised Interactions: positive negative neutral
STLB_interactions 0 0 0 -nan -nan -nan
STLB Hit, L1D data hit: 0
STLB Hit, L2C data hit: 0
STLB Hit, LLC data hit: 0
STLB Hit, LLC data miss: 0
STLB STLB hints to L2: 0
L1D TOTAL     ACCESS:   20613061  HIT:   19755374  MISS:     857687  HIT %:    95.8391  MISS %:    4.16089   MPKI: 17.1537
L1D LOAD      ACCESS:    9675448  HIT:    9636832  MISS:      38616  HIT %:    99.6009  MISS %:   0.399113   MPKI: 0.77232
L1D RFO       ACCESS:    8420473  HIT:    8102714  MISS:     317759  HIT %:    96.2264  MISS %:    3.77365   MPKI: 6.35518
L1D PREFETCH  ACCESS:    2517140  HIT:    2015828  MISS:     501312  HIT %:    80.0841  MISS %:    19.9159   MPKI: 10.0262
L1D PREFETCH  REQUESTED:    5095651  ISSUED:    5034278  USEFUL:     498803  USELESS:       2520
L1D USEFUL LOAD PREFETCHES:     498803 PREFETCH ISSUED TO LOWER LEVEL:     509076  ACCURACY: 97.982
L1D TIMELY PREFETCHES:     498803 LATE PREFETCHES: 0 DROPPED PREFETCHES: 0
L1D PREFETCHES SAME FILL-ORIGIN LEVEL: 509076 DIFFERENT FILL-ORIGIN LEVEL: 0
L1D AVERAGE MISS LATENCY: 150.784 cycles
L1D RQ	ACCESS:   14462407	FORWARD:          0	MERGED:    4733506	TO_CACHE:    9679316
L1D WQ	ACCESS:    9162268	FORWARD:      49585	MERGED:       2108	TO_CACHE:    9160160
L1D PQ	ACCESS:    2517139	FORWARD:          0	MERGED:          0	TO_CACHE:    2517139

Revised Interactions: positive negative neutral
L1D_interactions 0 0 0 -nan -nan -nan
L1D UNIQUE REGIONS ACCESSED: 0
L1D REGIONS CONFLICTS: 0
L1D Cross Page Prefetch Requests: 0
L1D Same Page Prefetch Requests: 5136505
L1D ROI Sum of L1D PQ occupancy: 37438636
L1D PREFETCHES PUSHED FROM L2C: 0
L1I TOTAL     ACCESS:    7012161  HIT:    7012161  MISS:          0  HIT %:        100  MISS %:          0   MPKI: 0
L1I LOAD      ACCESS:    7012161  HIT:    7012161  MISS:          0  HIT %:        100  MISS %:          0   MPKI: 0
L1I PREFETCH  REQUESTED:          0  ISSUED:          0  USEFUL:          0  USELESS:          0
L1I USEFUL LOAD PREFETCHES:          0 PREFETCH ISSUED TO LOWER LEVEL:          0  ACCURACY: -nan
L1I TIMELY PREFETCHES:          0 LATE PREFETCHES: 0 DROPPED PREFETCHES: 0
L1I PREFETCHES SAME FILL-ORIGIN LEVEL: 0 DIFFERENT FILL-ORIGIN LEVEL: 0
L1I AVERAGE MISS LATENCY: -nan cycles
L1I RQ	ACCESS:   10108484	FORWARD:          0	MERGED:    3096321	TO_CACHE:    7012163

Revised Interactions: positive negative neutral
L1I_interactions 0 0 0 -nan -nan -nan
BTB TOTAL     ACCESS:     421996  HIT:     421991  MISS:          5  HIT %:    99.9988  MISS %: 0.00118485   MPKI: 0.0001
BTB BRANCH_DIRECT_JUMP	ACCESS:          0  HIT:          0  MISS:          0
BTB BRANCH_INDIRECT	ACCESS:          0  HIT:          0  MISS:          0
BTB BRANCH_CONDITIONAL	ACCESS:     421996  HIT:     421991  MISS:          5
BTB BRANCH_DIRECT_CALL	ACCESS:          0  HIT:          0  MISS:          0
BTB BRANCH_INDIRECT_CALL	ACCESS:          0  HIT:          0  MISS:          0
BTB BRANCH_RETURN	ACCESS:          0  HIT:          0  MISS:          0
BTB BRANCH_OTHER ACCESS:          0  HIT:          0  MISS:          0

L2C TOTAL     ACCESS:    3335954  HIT:    2604103  MISS:     731851  HIT %:    78.0617  MISS %:    21.9383   MPKI: 14.637
L2C LOAD      ACCESS:      38509  HIT:      30723  MISS:       7786  HIT %:    79.7813  MISS %:    20.2187   MPKI: 0.15572
L2C DATA LOAD MPKI: 0.15572
L2C INSTRUCTION LOAD MPKI: 0
L2C RFO       ACCESS:     306347  HIT:       8652  MISS:     297695  HIT %:    2.82425  MISS %:    97.1758   MPKI: 5.9539
L2C PREFETCH  ACCESS:    2658115  HIT:    2235774  MISS:     422341  HIT %:    84.1113  MISS %:    15.8887   MPKI: 8.44682
L2C DATA PREFETCH MPKI: 8.44682
L2C INSTRUCTION PREFETCH MPKI: 0
L2C WRITEBACK ACCESS:     322317  HIT:     319931  MISS:       2386  HIT %:    99.2597  MISS %:   0.740265   MPKI: 0.04772
L2C LOAD TRANSLATION ACCESS:      10666  HIT:       9023  MISS:       1643  HIT %:    84.5959  MISS %:    15.4041   MPKI: 0.03286
L2C PREFETCH  REQUESTED:    2633622  ISSUED:    2578989  USEFUL:      17427  USELESS:     402547
L2C USEFUL LOAD PREFETCHES:      17427 PREFETCH ISSUED TO LOWER LEVEL:     422341  ACCURACY: 4.12629
L2C TIMELY PREFETCHES:      17427 LATE PREFETCHES: 0 DROPPED PREFETCHES: 0
L2C PREFETCHES SAME FILL-ORIGIN LEVEL: 376428 DIFFERENT FILL-ORIGIN LEVEL: 0
L2C AVERAGE MISS LATENCY: 262.7 cycles
L2C RQ	ACCESS:     367042	FORWARD:          0	MERGED:          0	TO_CACHE:     355523
L2C WQ	ACCESS:     322317	FORWARD:      11519	MERGED:          0	TO_CACHE:     322317
L2C PQ	ACCESS:    3080301	FORWARD:          0	MERGED:     419666	TO_CACHE:    2660635

Revised Interactions: positive negative neutral
L2C_interactions 21427 404490 167823 3.60882 68.1258 28.2654
L2C Instructions Evicting Data 0
L2C Translations Evicting Data 1628
L2C Data Evicting Data 726250
L2C Instructions Evicting Instructions 0
L2C Translations Evicting Instructions 0
L2C Data Evicting Instructions 0
L2C Instructions Evicting Translations 0
L2C Translations Evicting Translations 15
L2C Data Evicting Translations 1572
L2C Dense regions hint from L2: 0
PSCL5 TOTAL     ACCESS:      10658  HIT:      10658  MISS:          0  HIT %:        100  MISS %:          0   MPKI: 0
PSCL5 LOAD TRANSLATION ACCESS:      10658  HIT:      10658  MISS:          0  HIT %:        100  MISS %:          0   MPKI: 0
PSCL5 PREFETCH  REQUESTED:          0  ISSUED:          0  USEFUL:          0  USELESS:          0
PSCL5 USEFUL LOAD PREFETCHES:          0 PREFETCH ISSUED TO LOWER LEVEL:          0  ACCURACY: -nan
PSCL5 TIMELY PREFETCHES:          0 LATE PREFETCHES: 0 DROPPED PREFETCHES: 0
PSCL5 PREFETCHES SAME FILL-ORIGIN LEVEL: 0 DIFFERENT FILL-ORIGIN LEVEL: 0

Revised Interactions: positive negative neutral
PSCL5_interactions 0 0 0 -nan -nan -nan
PSCL4 TOTAL     ACCESS:      10658  HIT:      10658  MISS:          0  HIT %:        100  MISS %:          0   MPKI: 0
PSCL4 LOAD TRANSLATION ACCESS:      10658  HIT:      10658  MISS:          0  HIT %:        100  MISS %:          0   MPKI: 0
PSCL4 PREFETCH  REQUESTED:          0  ISSUED:          0  USEFUL:          0  USELESS:          0
PSCL4 USEFUL LOAD PREFETCHES:          0 PREFETCH ISSUED TO LOWER LEVEL:          0  ACCURACY: -nan
PSCL4 TIMELY PREFETCHES:          0 LATE PREFETCHES: 0 DROPPED PREFETCHES: 0
PSCL4 PREFETCHES SAME FILL-ORIGIN LEVEL: 0 DIFFERENT FILL-ORIGIN LEVEL: 0

Revised Interactions: positive negative neutral
PSCL4_interactions 0 0 0 -nan -nan -nan
PSCL3 TOTAL     ACCESS:       8505  HIT:       8499  MISS:          6  HIT %:    99.9295  MISS %:  0.0705467   MPKI: 0.00012
PSCL3 LOAD TRANSLATION ACCESS:       8505  HIT:       8499  MISS:          6  HIT %:    99.9295  MISS %:  0.0705467   MPKI: 0.00012
PSCL3 PREFETCH  REQUESTED:          0  ISSUED:          0  USEFUL:          0  USELESS:          0
PSCL3 USEFUL LOAD PREFETCHES:          0 PREFETCH ISSUED TO LOWER LEVEL:          0  ACCURACY: -nan
PSCL3 TIMELY PREFETCHES:          0 LATE PREFETCHES: 0 DROPPED PREFETCHES: 0
PSCL3 PREFETCHES SAME FILL-ORIGIN LEVEL: 0 DIFFERENT FILL-ORIGIN LEVEL: 0

Revised Interactions: positive negative neutral
PSCL3_interactions 0 0 0 -nan -nan -nan
PSCL2 TOTAL     ACCESS:      10658  HIT:      10638  MISS:         20  HIT %:    99.8123  MISS %:   0.187652   MPKI: 0.0004
PSCL2 LOAD TRANSLATION ACCESS:      10658  HIT:      10638  MISS:         20  HIT %:    99.8123  MISS %:   0.187652   MPKI: 0.0004
PSCL2 PREFETCH  REQUESTED:          0  ISSUED:          0  USEFUL:          0  USELESS:          0
PSCL2 USEFUL LOAD PREFETCHES:          0 PREFETCH ISSUED TO LOWER LEVEL:          0  ACCURACY: -nan
PSCL2 TIMELY PREFETCHES:          0 LATE PREFETCHES: 0 DROPPED PREFETCHES: 0
PSCL2 PREFETCHES SAME FILL-ORIGIN LEVEL: 0 DIFFERENT FILL-ORIGIN LEVEL: 0

Revised Interactions: positive negative neutral
PSCL2_interactions 0 0 0 -nan -nan -nan
LLC TOTAL     ACCESS:    1028520  HIT:      50562  MISS:     977958  HIT %:      4.916  MISS %:     95.084   MPKI: 19.5592
LLC LOAD      ACCESS:       7786  HIT:       1066  MISS:       6720  HIT %:    13.6912  MISS %:    86.3088   MPKI: 0.1344
LLC RFO       ACCESS:     297695  HIT:          0  MISS:     297695  HIT %:          0  MISS %:        100   MPKI: 5.9539
LLC PREFETCH  ACCESS:     422341  HIT:      31486  MISS:     390855  HIT %:    7.45511  MISS %:    92.5449   MPKI: 7.8171
LLC WRITEBACK ACCESS:     299055  HIT:      17852  MISS:     281203  HIT %:    5.96947  MISS %:    94.0305   MPKI: 5.62406
LLC LOAD TRANSLATION ACCESS:       1643  HIT:        158  MISS:       1485  HIT %:    9.61656  MISS %:    90.3834   MPKI: 0.0297
LLC PREFETCH  REQUESTED:          0  ISSUED:          0  USEFUL:         26  USELESS:     392273
LLC USEFUL LOAD PREFETCHES:         26 PREFETCH ISSUED TO LOWER LEVEL:     390855  ACCURACY: 0.00665208
LLC TIMELY PREFETCHES:         26 LATE PREFETCHES: 0 DROPPED PREFETCHES: 0
LLC PREFETCHES SAME FILL-ORIGIN LEVEL: 0 DIFFERENT FILL-ORIGIN LEVEL: 0
LLC AVERAGE MISS LATENCY: 173.52 cycles
LLC RQ	ACCESS:     307125	FORWARD:          0	MERGED:          0	TO_CACHE:     307125
LLC WQ	ACCESS:     299057	FORWARD:          0	MERGED:          0	TO_CACHE:     299057
LLC PQ	ACCESS:     422341	FORWARD:          0	MERGED:          0	TO_CACHE:     422341

Revised Interactions: positive negative neutral
LLC_interactions 84 389866 92426 0.0174138 80.822 19.1606
LLC Dense regions hint to LLC: 0

RAW hits: 199060
Loads Generated: 14661467
Loads sent to L1D: 14462407
Stores Generated: 9162260
Stores sent to L1D: 9162268
Major fault: 0 Minor fault: 20761
Allocated PAGES: 20761

stream: 
stream:times selected: 1000864
stream:pref_filled: 1009001
stream:pref_useful: 987199
stream:pref_late: 2
stream:misses: 8
stream:misses_by_poll: 0

CS: 
CS:times selected: 917457
CS:pref_filled: 627
CS:pref_useful: 603
CS:pref_late: 0
CS:misses: 142220
CS:misses_by_poll: 0

CPLX: 
CPLX:times selected: 83359
CPLX:pref_filled: 264
CPLX:pref_useful: 264
CPLX:pref_late: 0
CPLX:misses: 14291
CPLX:misses_by_poll: 0

NL_L1: 
NL:times selected: 4
NL:pref_filled: 3
NL:pref_useful: 3
NL:pref_late: 0
NL:misses: 0
NL:misses_by_poll: 0

total selections: 2001684
total_filled: 501312
total_useful: 498803
total_late: 2
total_polluted: 0
total_misses_after_warmup: 42487
conflicts: 84189
Degree Incremented Times: 159173
Degree Decremented Times: 0

L1 IP Table Write Accesses: 8834841
L1 IP Table Read Accesses: 8750652
L1 RST Write Accesses: 494642
L1 RST Read Accesses: 989284
L1 CSPT Write Accesses: 494642
L1 CSPT Read Accesses: 641971
L1 RR Filter Tag Write Accesses: 2578512
L1 RR Filter Tag Read Accesses: 124855628
L1 IP Table Tag Write Accesses: 9679319
L1 IP Table Tag Read Accesses: 9679319
L1 RST Tag Write Accesses: 0
L1 RST Tag Read Accesses: 4452146
L1 RR Filter Write Accesses: 0
L1 RR Filter Read Accesses: 4238684
test: 16175
L2 IP Table Read Accesses: 967439
L2 IP Table Write Accesses: 952911
L2 IP Table Tag Read Accesses: 499597
L2 IP Table Tag Write Accesses: 499597

DRAM Statistics
 CHANNEL 0
 RQ ROW_BUFFER_HIT:     354877  ROW_BUFFER_MISS:     341878
 DBUS_CONGESTED:        635
 WQ ROW_BUFFER_HIT:      86058  ROW_BUFFER_MISS:     212322  FULL:          0

 AVG_CONGESTED_CYCLE: 5
 All warmup complete: 2
Channel 0 Bank busy for read cycles: 0
Channel 0 Bank busy for write cycles: 0
Channel 0
Rank 0
0banks busy for read cycles: 1444403
0banks busy for write cycles: 18418
1banks busy for read cycles: 13224377
1banks busy for write cycles: 1823709
2banks busy for read cycles: 8023568
2banks busy for write cycles: 1904496
3banks busy for read cycles: 3670678
3banks busy for write cycles: 1814159
4banks busy for read cycles: 1686606
4banks busy for write cycles: 1610396
5banks busy for read cycles: 1178771
5banks busy for write cycles: 1418371
6banks busy for read cycles: 887407
6banks busy for write cycles: 1245368
7banks busy for read cycles: 925196
7banks busy for write cycles: 1165048
8banks busy for read cycles: 541352
8banks busy for write cycles: 1308917

CPU 0 Branch Prediction Accuracy: 80.6206% MPKI: 1.63562 Average ROB Occupancy at Mispredict: 68.5041
Branch types
NOT_BRANCH: 49577687 99.1554%
BRANCH_DIRECT_JUMP: 0 0%
BRANCH_INDIRECT: 0 0%
BRANCH_CONDITIONAL: 421999 0.843998%
BRANCH_DIRECT_CALL: 0 0%
BRANCH_INDIRECT_CALL: 0 0%
BRANCH_RETURN: 0 0%
BRANCH_OTHER: 0 0%

@sumon_overall_L1D    498803         0         0      2520    501312   5034278   5095651
@Sumon_Early_by_class_L1D    496653       103       135         0
@Sumon_Late_by_class_L1D         0         0         0         0

@Sumon_Early_by_cycle_L1D         9       132        67      1478      5155     55208     86598    350153         3         0         0         0
@Sumon_Late_by_cycle_L1D         0         0         0         0         0         0
@Sumon_Early_stream_L1D         9       132        62      1249      3920     54729     86399    350153         0         0         0         0
@Sumon_Early_CS_L1D         0         0         0         0         0        11        92         0         0         0         0         0
@Sumon_Early_CPLX_L1D         0         0         0         3         1        52        76         0         3         0         0         0
@Sumon_Late_stream_L1D         0         0         0         0         0         0
@Sumon_Late_CS_L1D         0         0         0         0         0         0
@Sumon_Late_CPLX_L1D         0         0         0         0         0         0
@sumon_overall_L2C     17427         0         0    402547    422341   2578989   2633622
@Sumon_Early_by_class_L2C     15831        30        13         0
@Sumon_Late_by_class_L2C         0         0         0         0

@Sumon_Early_by_cycle_L2C         4         9        18       363       685      1262      2009      9307      3315         7         0       448
@Sumon_Late_by_cycle_L2C         0         0         0         0         0         0
@Sumon_Early_stream_L2C         3         5         1        16        20       755      1986      9276      3315         7         0       447
@Sumon_Early_CS_L2C         0         0         0         0         0         0         0        29         0         0         0         1
@Sumon_Early_CPLX_L2C         0         0         0         0         0         4         9         0         0         0         0         0
@Sumon_Late_stream_L2C         0         0         0         0         0         0
@Sumon_Late_CS_L2C         0         0         0         0         0         0
@Sumon_Late_CPLX_L2C         0         0         0         0         0         0
DRAM PAGES: 1048576
Allocated PAGES: 20761
