
*** ChampSim Multicore Out-of-Order Simulator ***

Warmup Instructions: 50000000
Simulation Instructions: 50000000
Number of CPUs: 1
LLC sets: 2048
LLC ways: 16
Off-chip DRAM Size: 4096 MB Channels: 1 Width: 64-bit Data Rate: 6400 MT/s
CPU 0 runs ../../biswa/SPEC2017Traces/605.mcf_s-1152B.champsimtrace.xz
.xz
CPU 0 Bimodal branch predictor
BTB has LRU replacement policy
ITLB has LRU replacement policy
DTLB has LRU replacement policy
STLB has LRU replacement policy
L1I has LRU replacement policy
IP Table Entries: 256
L1D has LRU replacement policy
IP_Table L2 entries: 256
Initialize DRRIP state for L2C
Initialize Hawkeye state
epoch: 1000
next table: 1842
cur table: 6502
epoch: 1000
next table: 1704
cur table: 1842
epoch: 1000
next table: 1637
cur table: 1704
epoch: 1000
next table: 1578
cur table: 1637
epoch: 1000
next table: 1664
cur table: 1578
epoch: 1000
next table: 1598
cur table: 1664
epoch: 1000
next table: 1604
cur table: 1598
epoch: 1000
next table: 1532
cur table: 1604
epoch: 1000
next table: 1490
cur table: 1532
epoch: 1000
next table: 1519
cur table: 1490
epoch: 1000
next table: 1494
cur table: 1519
epoch: 1000
next table: 1532
cur table: 1494
epoch: 1000
next table: 1521
cur table: 1532
epoch: 1000
next table: 1489
cur table: 1521
epoch: 1000
next table: 1688
cur table: 1489
epoch: 1000
next table: 2574
cur table: 1688
epoch: 1000
next table: 2140
cur table: 2574
epoch: 1000
next table: 1649
cur table: 2140
epoch: 1000
next table: 1499
cur table: 1649
epoch: 1000
next table: 1547
cur table: 1499
epoch: 1000
next table: 1533
cur table: 1547
epoch: 1000
next table: 1547
cur table: 1533
epoch: 1000
next table: 1571
cur table: 1547
epoch: 1000
next table: 1529
cur table: 1571
epoch: 1000
next table: 1518
cur table: 1529
epoch: 1000
next table: 1524
cur table: 1518
epoch: 1000
next table: 1488
cur table: 1524
epoch: 1000
next table: 1485
cur table: 1488
epoch: 1000
next table: 1490
cur table: 1485
epoch: 1000
next table: 1469
cur table: 1490
epoch: 1000
next table: 1516
cur table: 1469
epoch: 1000
next table: 1481
cur table: 1516
epoch: 1000
next table: 1491
cur table: 1481
epoch: 1000
next table: 1521
cur table: 1491
epoch: 1000
next table: 3430
cur table: 16891
epoch: 1000
next table: 1473
cur table: 1521
epoch: 1000
next table: 1523
cur table: 1473
epoch: 1000
next table: 2207
cur table: 1523
epoch: 1000
next table: 2462
cur table: 2207
epoch: 1000
next table: 1789
cur table: 2462
epoch: 1000
next table: 1455
cur table: 1789
epoch: 1000
next table: 3458
cur table: 3430
epoch: 1000
next table: 1539
cur table: 1455
epoch: 1000
next table: 1546
cur table: 1539
epoch: 1000
next table: 1528
cur table: 1546
epoch: 1000
next table: 1537
cur table: 1528
epoch: 1000
next table: 2243
cur table: 3458
epoch: 1000
next table: 1538
cur table: 1537
epoch: 1000
next table: 1549
cur table: 1538
epoch: 1000
next table: 1521
cur table: 1549
epoch: 1000
next table: 2210
cur table: 2243
epoch: 1000
next table: 1508
cur table: 1521
epoch: 1000
next table: 1495
cur table: 1508
epoch: 1000
next table: 1483
cur table: 1495
epoch: 1000
next table: 2321
cur table: 2210
epoch: 1000
next table: 1495
cur table: 1483
epoch: 1000
next table: 1504
cur table: 1495
epoch: 1000
next table: 1500
cur table: 1504
epoch: 1000
next table: 2257
cur table: 2321
epoch: 1000
next table: 1478
cur table: 1500
epoch: 1000
next table: 1499
cur table: 1478
epoch: 1000
next table: 1490
cur table: 1499
epoch: 1000
next table: 2205
cur table: 2257
epoch: 1000
next table: 1468
cur table: 1490
epoch: 1000
next table: 1679
cur table: 1468
epoch: 1000
next table: 2638
cur table: 1679
epoch: 1000
next table: 2083
cur table: 2638
epoch: 1000
next table: 2761
cur table: 2205
epoch: 1000
next table: 1621
cur table: 2083
epoch: 1000
next table: 1501
cur table: 1621
epoch: 1000
next table: 1550
cur table: 1501
epoch: 1000
next table: 2001
cur table: 2761
epoch: 1000
next table: 1521
cur table: 1550
epoch: 1000
next table: 1524
cur table: 1521
epoch: 1000
next table: 1943
cur table: 2001
epoch: 1000
next table: 1560
cur table: 1524
epoch: 1000
next table: 1521
cur table: 1560
epoch: 1000
next table: 1525
cur table: 1521
epoch: 1000
next table: 1926
cur table: 1943
epoch: 1000
next table: 1509
cur table: 1525
epoch: 1000
next table: 1482
cur table: 1509
epoch: 1000
next table: 2007
cur table: 1926
epoch: 1000
next table: 1493
cur table: 1482
epoch: 1000
next table: 1487
cur table: 1493
epoch: 1000
next table: 1493
cur table: 1487
epoch: 1000
next table: 2116
cur table: 2007
epoch: 1000
next table: 1524
cur table: 1493
epoch: 1000
next table: 1490
cur table: 1524
epoch: 1000
next table: 2126
cur table: 2116
epoch: 1000
next table: 1504
cur table: 1490
epoch: 1000
next table: 1478
cur table: 1504
epoch: 1000
next table: 2033
cur table: 2126
epoch: 1000
next table: 1477
cur table: 1478
epoch: 1000
next table: 1549
cur table: 1477
epoch: 1000
next table: 1769
cur table: 1549
epoch: 1000
next table: 2005
cur table: 2033
epoch: 1000
next table: 3001
cur table: 1769
epoch: 1000
next table: 1804
cur table: 3001
epoch: 1000
next table: 1447
cur table: 1804
epoch: 1000
next table: 2165
cur table: 2005
epoch: 1000
next table: 1527
cur table: 1447
epoch: 1000
next table: 1526
cur table: 1527
epoch: 1000
next table: 1523
cur table: 1526
epoch: 1000
next table: 2035
cur table: 2165
epoch: 1000
next table: 1530
cur table: 1523
epoch: 1000
next table: 1541
cur table: 1530
epoch: 1000
next table: 1954
cur table: 2035
epoch: 1000
next table: 1522
cur table: 1541
epoch: 1000
next table: 1518
cur table: 1522
epoch: 1000
next table: 1511
cur table: 1518
epoch: 1000
next table: 2059
cur table: 1954
epoch: 1000
next table: 1499
cur table: 1511
epoch: 1000
next table: 1487
cur table: 1499
epoch: 1000
next table: 2049
cur table: 2059
epoch: 1000
next table: 1498
cur table: 1487
epoch: 1000
next table: 1511
cur table: 1498
epoch: 1000
next table: 1504
cur table: 1511
epoch: 1000
next table: 2125
cur table: 2049
epoch: 1000
next table: 1475
cur table: 1504
epoch: 1000
next table: 1487
cur table: 1475
epoch: 1000
next table: 2115
cur table: 2125
epoch: 1000
next table: 1477
cur table: 1487
epoch: 1000
next table: 1472
cur table: 1477
epoch: 1000
next table: 1613
cur table: 1472
epoch: 1000
next table: 2137
cur table: 2115
epoch: 1000
next table: 2137
cur table: 1613
epoch: 1000
next table: 2513
cur table: 2137
epoch: 1000
next table: 1676
cur table: 2513
epoch: 1000
next table: 2105
cur table: 2137
epoch: 1000
next table: 1478
cur table: 1676
epoch: 1000
next table: 1549
cur table: 1478
epoch: 1000
next table: 1542
cur table: 1549
epoch: 1000
next table: 2082
cur table: 2105
epoch: 1000
next table: 1532
cur table: 1542
epoch: 1000
next table: 1550
cur table: 1532
epoch: 1000
next table: 1529
cur table: 1550
epoch: 1000
next table: 2015
cur table: 2082
epoch: 1000
next table: 1515
cur table: 1529
epoch: 1000
next table: 1532
cur table: 1515
epoch: 1000
next table: 2080
cur table: 2015
epoch: 1000
next table: 1514
cur table: 1532
epoch: 1000
next table: 1504
cur table: 1514
epoch: 1000
next table: 1505
cur table: 1504
epoch: 1000
next table: 2175
cur table: 2080
epoch: 1000
next table: 1501
cur table: 1505
epoch: 1000
next table: 1547
cur table: 1501
epoch: 1000
next table: 1470
cur table: 1547
epoch: 1000
next table: 2167
cur table: 2175
epoch: 1000
next table: 1508
cur table: 1470
epoch: 1000
next table: 1517
cur table: 1508
epoch: 1000
next table: 2145
cur table: 2167
epoch: 1000
next table: 1449
cur table: 1517
epoch: 1000
next table: 1505
cur table: 1449
epoch: 1000
next table: 1847
cur table: 1505
epoch: 1000
next table: 2120
cur table: 2145
epoch: 1000
next table: 2744
cur table: 1847
epoch: 1000
next table: 1791
cur table: 2744
epoch: 1000
next table: 1463
cur table: 1791
epoch: 1000
next table: 2175
cur table: 2120
epoch: 1000
next table: 1508
cur table: 1463
epoch: 1000
next table: 1554
cur table: 1508
epoch: 1000
next table: 1514
cur table: 1554
epoch: 1000
next table: 2044
cur table: 2175
epoch: 1000
next table: 1549
cur table: 1514
epoch: 1000
next table: 1537
cur table: 1549
epoch: 1000
next table: 2045
cur table: 2044
epoch: 1000
next table: 1514
cur table: 1537
epoch: 1000
next table: 1515
cur table: 1514
epoch: 1000
next table: 1489
cur table: 1515
epoch: 1000
next table: 2032
cur table: 2045
epoch: 1000
next table: 1495
cur table: 1489
epoch: 1000
next table: 1489
cur table: 1495
epoch: 1000
next table: 1514
cur table: 1489
epoch: 1000
next table: 2167
cur table: 2032
epoch: 1000
next table: 1506
cur table: 1514
epoch: 1000
next table: 1518
cur table: 1506
epoch: 1000
next table: 2169
cur table: 2167
epoch: 1000
next table: 1491
cur table: 1518
epoch: 1000
next table: 1543
cur table: 1491
epoch: 1000
next table: 1480
cur table: 1543
epoch: 1000
next table: 2142
cur table: 2169
epoch: 1000
next table: 1482
cur table: 1480
epoch: 1000
next table: 1638
cur table: 1482
epoch: 1000
next table: 2589
cur table: 1638
epoch: 1000
next table: 2133
cur table: 2142
epoch: 1000
next table: 2295
cur table: 2589
epoch: 1000
next table: 1627
cur table: 2295
epoch: 1000
next table: 2170
cur table: 2133
epoch: 1000
next table: 1499
cur table: 1627
epoch: 1000
next table: 1560
cur table: 1499
epoch: 1000
next table: 1531
cur table: 1560
epoch: 1000
next table: 2049
cur table: 2170
epoch: 1000
next table: 1538
cur table: 1531
epoch: 1000
next table: 1556
cur table: 1538
epoch: 1000
next table: 1520
cur table: 1556
epoch: 1000
next table: 2014
cur table: 2049
epoch: 1000
next table: 1534
cur table: 1520
epoch: 1000
next table: 1523
cur table: 1534
epoch: 1000
next table: 2019
cur table: 2014
epoch: 1000
next table: 1456
cur table: 1523
epoch: 1000
next table: 1510
cur table: 1456
epoch: 1000
next table: 1494
cur table: 1510
epoch: 1000
next table: 2196
cur table: 2019
epoch: 1000
next table: 1489
cur table: 1494
epoch: 1000
next table: 1536
cur table: 1489
epoch: 1000
next table: 1485
cur table: 1536
epoch: 1000
next table: 2188
cur table: 2196
epoch: 1000
next table: 1493
cur table: 1485
epoch: 1000
next table: 1522
cur table: 1493
epoch: 1000
next table: 1456
cur table: 1522
epoch: 1000
next table: 2246
cur table: 2188
epoch: 1000
next table: 1526
cur table: 1456
epoch: 1000
next table: 1947
cur table: 1526
epoch: 1000
next table: 1935
cur table: 2246
epoch: 1000
next table: 2694
cur table: 1947
epoch: 1000
next table: 1784
cur table: 2694
epoch: 1000
next table: 1459
cur table: 1784
epoch: 1000
next table: 2327
cur table: 1935
epoch: 1000
next table: 1537
cur table: 1459
epoch: 1000
next table: 1546
cur table: 1537
epoch: 1000
next table: 1518
cur table: 1546
epoch: 1000
next table: 2073
cur table: 2327
epoch: 1000
next table: 1542
cur table: 1518
epoch: 1000
next table: 1538
cur table: 1542
epoch: 1000
next table: 1533
cur table: 1538
epoch: 1000
next table: 2059
cur table: 2073
epoch: 1000
next table: 1505
cur table: 1533
epoch: 1000
next table: 1519
cur table: 1505
epoch: 1000
next table: 1499
cur table: 1519
epoch: 1000
next table: 2218
cur table: 2059
epoch: 1000
next table: 1486
cur table: 1499
epoch: 1000
next table: 1489
cur table: 1486
epoch: 1000
next table: 1488
cur table: 1489
epoch: 1000
next table: 2227
cur table: 2218
epoch: 1000
next table: 1499
cur table: 1488
epoch: 1000
next table: 1475
cur table: 1499
epoch: 1000
next table: 1526
cur table: 1475
epoch: 1000
next table: 2235
cur table: 2227
epoch: 1000
next table: 1477
cur table: 1526
epoch: 1000
next table: 1452
cur table: 1477
epoch: 1000
next table: 1679
cur table: 1452
epoch: 1000
next table: 2345
cur table: 2235
epoch: 1000
next table: 2602
cur table: 1679
epoch: 1000
next table: 2182
cur table: 2602
epoch: 1000
next table: 1953
cur table: 2345
epoch: 1000
next table: 1620
cur table: 2182
epoch: 1000
next table: 1500
cur table: 1620
epoch: 1000
next table: 1559
cur table: 1500
epoch: 1000
next table: 2151
cur table: 1953
epoch: 1000
next table: 1538
cur table: 1559
epoch: 1000
next table: 1520
cur table: 1538
epoch: 1000
next table: 1560
cur table: 1520
epoch: 1000
next table: 2067
cur table: 2151
epoch: 1000
next table: 1511
cur table: 1560
epoch: 1000
next table: 1517
cur table: 1511
epoch: 1000
next table: 1528
cur table: 1517
epoch: 1000
next table: 2102
cur table: 2067
epoch: 1000
next table: 1477
cur table: 1528
epoch: 1000
next table: 1491
cur table: 1477
epoch: 1000
next table: 1500
cur table: 1491
epoch: 1000
next table: 2200
cur table: 2102
epoch: 1000
next table: 1488
cur table: 1500
epoch: 1000
next table: 1493
cur table: 1488
epoch: 1000
next table: 2203
cur table: 2200
epoch: 1000
next table: 1494
cur table: 1493
epoch: 1000
next table: 1487
cur table: 1494
epoch: 1000
next table: 1508
cur table: 1487
epoch: 1000
next table: 2282
cur table: 2203
epoch: 1000
next table: 1467
cur table: 1508
epoch: 1000
next table: 1525
cur table: 1467
epoch: 1000
next table: 1946
cur table: 1525
epoch: 1000
next table: 2111
cur table: 2282
epoch: 1000
next table: 2809
cur table: 1946
epoch: 1000
next table: 1819
cur table: 2809
epoch: 1000
next table: 1474
cur table: 1819
epoch: 1000
next table: 2325
cur table: 2111
epoch: 1000
next table: 1545
cur table: 1474
epoch: 1000
next table: 1551
cur table: 1545
epoch: 1000
next table: 1532
cur table: 1551
epoch: 1000
next table: 2139
cur table: 2325
epoch: 1000
next table: 1537
cur table: 1532
epoch: 1000
next table: 1555
cur table: 1537
epoch: 1000
next table: 1522
cur table: 1555
epoch: 1000
next table: 2074
cur table: 2139
epoch: 1000
next table: 1522
cur table: 1522
epoch: 1000
next table: 1521
cur table: 1522
epoch: 1000
next table: 1480
cur table: 1521
epoch: 1000
next table: 2238
cur table: 2074
epoch: 1000
next table: 1495
cur table: 1480
epoch: 1000
next table: 1507
cur table: 1495
epoch: 1000
next table: 1502
cur table: 1507
epoch: 1000
next table: 2284
cur table: 2238
epoch: 1000
next table: 1508
cur table: 1502
epoch: 1000
next table: 1481
cur table: 1508
epoch: 1000
next table: 1508
cur table: 1481
epoch: 1000
next table: 2239
cur table: 2284
epoch: 1000
next table: 1493
cur table: 1508
epoch: 1000
next table: 1474
cur table: 1493
epoch: 1000
next table: 1651
cur table: 1474
epoch: 1000
next table: 2355
cur table: 2239
epoch: 1000
next table: 2598
cur table: 1651
epoch: 1000
next table: 2152
cur table: 2598
epoch: 1000
next table: 1626
cur table: 2152
epoch: 1000
next table: 2109
cur table: 2355
epoch: 1000
next table: 1495
cur table: 1626
epoch: 1000
next table: 1554
cur table: 1495
epoch: 1000
next table: 1532
cur table: 1554
epoch: 1000
next table: 2131
cur table: 2109
epoch: 1000
next table: 1525
cur table: 1532
epoch: 1000
next table: 1563
cur table: 1525
epoch: 1000
next table: 1519
cur table: 1563
epoch: 1000
next table: 2096
cur table: 2131
epoch: 1000
next table: 1514
cur table: 1519
epoch: 1000
next table: 1510
cur table: 1514
epoch: 1000
next table: 1488
cur table: 1510
epoch: 1000
next table: 2174
cur table: 2096
epoch: 1000
next table: 1495
cur table: 1488
epoch: 1000
next table: 1472
cur table: 1495
epoch: 1000
next table: 1474
cur table: 1472
epoch: 1000
next table: 2259
cur table: 2174
epoch: 1000
next table: 1558
cur table: 1474
epoch: 1000
next table: 1464
cur table: 1558
epoch: 1000
next table: 1491
cur table: 1464
epoch: 1000
next table: 2310
cur table: 2259
epoch: 1000
next table: 1531
cur table: 1491
epoch: 1000
next table: 1474
cur table: 1531
epoch: 1000
next table: 1539
cur table: 1474
epoch: 1000
next table: 2620
cur table: 2310
epoch: 1000
next table: 2108
cur table: 1539
epoch: 1000
next table: 2687
cur table: 2108
epoch: 1000
next table: 1886
cur table: 2620
epoch: 1000
next table: 1780
cur table: 2687
epoch: 1000
next table: 1469
cur table: 1780
epoch: 1000
next table: 1530
cur table: 1469
epoch: 1000
next table: 2126
cur table: 1886
epoch: 1000
next table: 1537
cur table: 1530
epoch: 1000
next table: 1519
cur table: 1537
epoch: 1000
next table: 1552
cur table: 1519
epoch: 1000
next table: 2108
cur table: 2126
epoch: 1000
next table: 1545
cur table: 1552
epoch: 1000
next table: 1535
cur table: 1545
epoch: 1000
next table: 1525
cur table: 1535
epoch: 1000
next table: 2048
cur table: 2108
epoch: 1000
next table: 1508
cur table: 1525
epoch: 1000
next table: 1501
cur table: 1508
epoch: 1000
next table: 1527
cur table: 1501
epoch: 1000
next table: 2316
cur table: 2048
epoch: 1000
next table: 1489
cur table: 1527
epoch: 1000
next table: 1494
cur table: 1489
epoch: 1000
next table: 1521
cur table: 1494
epoch: 1000
next table: 2287
cur table: 2316
epoch: 1000
next table: 1484
cur table: 1521
epoch: 1000
next table: 1501
cur table: 1484
epoch: 1000
next table: 1475
cur table: 1501
epoch: 1000
next table: 2219
cur table: 2287
epoch: 1000
next table: 1474
cur table: 1475
epoch: 1000
next table: 1665
cur table: 1474
epoch: 1000
next table: 2693
cur table: 1665
epoch: 1000
next table: 2070
cur table: 2219
epoch: 1000
next table: 2091
cur table: 2693
epoch: 1000
next table: 1629
cur table: 2091
epoch: 1000
next table: 1485
cur table: 1629
epoch: 1000
next table: 2308
cur table: 2070
epoch: 1000
next table: 1566
cur table: 1485
epoch: 1000
next table: 1532
cur table: 1566
epoch: 1000
next table: 1535
cur table: 1532
epoch: 1000
next table: 2124
cur table: 2308
epoch: 1000
next table: 1548
cur table: 1535
epoch: 1000
next table: 1525
cur table: 1548
epoch: 1000
next table: 1508
cur table: 1525
epoch: 1000
next table: 2104
cur table: 2124
epoch: 1000
next table: 1507
cur table: 1508
epoch: 1000
next table: 1509
cur table: 1507
epoch: 1000
next table: 1507
cur table: 1509
epoch: 1000
next table: 2228
cur table: 2104
epoch: 1000
next table: 1515
cur table: 1507
epoch: 1000
next table: 1497
cur table: 1515
epoch: 1000
next table: 1538
cur table: 1497
epoch: 1000
next table: 2309
cur table: 2228
epoch: 1000
next table: 1495
cur table: 1538
epoch: 1000
next table: 1485
cur table: 1495
epoch: 1000
next table: 1518
cur table: 1485
epoch: 1000
next table: 2296
cur table: 2309
epoch: 1000
next table: 1470
cur table: 1518
epoch: 1000
next table: 1551
cur table: 1470
epoch: 1000
next table: 2123
cur table: 1551
epoch: 1000
next table: 2269
cur table: 2296
epoch: 1000
next table: 2559
cur table: 2123
epoch: 1000
next table: 1727
cur table: 2559
epoch: 1000
next table: 1451
cur table: 1727
epoch: 1000
next table: 2150
cur table: 2269
epoch: 1000
next table: 1536
cur table: 1451
epoch: 1000
next table: 1547
cur table: 1536
epoch: 1000
next table: 1522
cur table: 1547
epoch: 1000
next table: 2115
cur table: 2150
epoch: 1000
next table: 1525
cur table: 1522
epoch: 1000
next table: 1549
cur table: 1525
epoch: 1000
next table: 2066
cur table: 2115
epoch: 1000
next table: 1523
cur table: 1549
epoch: 1000
next table: 1532
cur table: 1523
epoch: 1000
next table: 1513
cur table: 1532
epoch: 1000
next table: 2228
cur table: 2066
epoch: 1000
next table: 1487
cur table: 1513
epoch: 1000
next table: 1519
cur table: 1487
epoch: 1000
next table: 1495
cur table: 1519
epoch: 1000
next table: 2269
cur table: 2228
epoch: 1000
next table: 1527
cur table: 1495
epoch: 1000
next table: 1503
cur table: 1527
epoch: 1000
next table: 1487
cur table: 1503
epoch: 1000
next table: 2255
cur table: 2269
epoch: 1000
next table: 1505
cur table: 1487
epoch: 1000
next table: 1482
cur table: 1505
epoch: 1000
next table: 1458
cur table: 1482
epoch: 1000
next table: 1765
cur table: 1458
epoch: 1000
next table: 2519
cur table: 2255
epoch: 1000
next table: 2777
cur table: 1765
epoch: 1000
next table: 2042
cur table: 2777
epoch: 1000
next table: 1948
cur table: 2519
epoch: 1000
next table: 1606
cur table: 2042
epoch: 1000
next table: 1512
cur table: 1606
epoch: 1000
next table: 1555
cur table: 1512
epoch: 1000
next table: 2201
cur table: 1948
epoch: 1000
next table: 1536
cur table: 1555
epoch: 1000
next table: 1535
cur table: 1536
epoch: 1000
next table: 1536
cur table: 1535
epoch: 1000
next table: 2151
cur table: 2201
epoch: 1000
next table: 1530
cur table: 1536
epoch: 1000
next table: 1506
cur table: 1530
epoch: 1000
next table: 1528
cur table: 1506
epoch: 1000
next table: 2158
cur table: 2151
epoch: 1000
next table: 1514
cur table: 1528
epoch: 1000
next table: 1505
cur table: 1514
epoch: 1000
next table: 1508
cur table: 1505
epoch: 1000
next table: 2255
cur table: 2158
epoch: 1000
next table: 1509
cur table: 1508
epoch: 1000
next table: 1514
cur table: 1509
epoch: 1000
next table: 1486
cur table: 1514
epoch: 1000
next table: 2232
cur table: 2255
epoch: 1000
next table: 1489
cur table: 1486
epoch: 1000
next table: 1500
cur table: 1489
epoch: 1000
next table: 1472
cur table: 1500
epoch: 1000
next table: 2322
cur table: 2232
epoch: 1000
next table: 1570
cur table: 1472
epoch: 1000
next table: 2037
cur table: 1570
epoch: 1000
next table: 1933
cur table: 2322
epoch: 1000
next table: 2823
cur table: 2037
epoch: 1000
next table: 1737
cur table: 2823
epoch: 1000
next table: 1457
cur table: 1737
epoch: 1000
next table: 1532
cur table: 1457
epoch: 1000
next table: 2497
cur table: 1933
epoch: 1000
next table: 1532
cur table: 1532
epoch: 1000
next table: 1516
cur table: 1532
epoch: 1000
next table: 1506
cur table: 1516
epoch: 1000
next table: 2210
cur table: 2497
epoch: 1000
next table: 1543
cur table: 1506
epoch: 1000
next table: 1512
cur table: 1543
epoch: 1000
next table: 1511
cur table: 1512
epoch: 1000
next table: 2098
cur table: 2210
epoch: 1000
next table: 1526
cur table: 1511
epoch: 1000
next table: 1503
cur table: 1526
epoch: 1000
next table: 1494
cur table: 1503
epoch: 1000
next table: 2208
cur table: 2098
epoch: 1000
next table: 1501
cur table: 1494
epoch: 1000
next table: 1523
cur table: 1501
epoch: 1000
next table: 2159
cur table: 2208
epoch: 1000
next table: 1542
cur table: 1523
epoch: 1000
next table: 1510
cur table: 1542
epoch: 1000
next table: 1529
cur table: 1510
epoch: 1000
next table: 2108
cur table: 2159
epoch: 1000
next table: 1553
cur table: 1529
epoch: 1000
next table: 1635
cur table: 1553
epoch: 1000
next table: 3607
cur table: 1635
epoch: 1000
next table: 2178
cur table: 3607
epoch: 1000
next table: 2502
cur table: 2108
epoch: 1000
next table: 1447
cur table: 2178
epoch: 1000
next table: 1528
cur table: 1447
epoch: 1000
next table: 1532
cur table: 1528
epoch: 1000
next table: 2113
cur table: 2502
epoch: 1000
next table: 1521
cur table: 1532
epoch: 1000
next table: 1505
cur table: 1521
epoch: 1000
next table: 1517
cur table: 1505
epoch: 1000
next table: 2109
cur table: 2113
epoch: 1000
next table: 1493
cur table: 1517
epoch: 1000
next table: 1503
cur table: 1493
epoch: 1000
next table: 1511
cur table: 1503
epoch: 1000
next table: 2029
cur table: 2109
epoch: 1000
next table: 1487
cur table: 1511
epoch: 1000
next table: 1490
cur table: 1487
epoch: 1000
next table: 2126
cur table: 2029
epoch: 1000
next table: 1515
cur table: 1490
epoch: 1000
next table: 1486
cur table: 1515
epoch: 1000
next table: 1534
cur table: 1486
epoch: 1000
next table: 2091
cur table: 2126
epoch: 1000
next table: 1535
cur table: 1534
epoch: 1000
next table: 1505
cur table: 1535
epoch: 1000
next table: 2027
cur table: 2091
epoch: 1000
next table: 1533
cur table: 1505
epoch: 1000
next table: 1548
cur table: 1533
epoch: 1000
next table: 2440
cur table: 1548
epoch: 1000
next table: 2727
cur table: 2440
epoch: 1000
next table: 2577
cur table: 2027
epoch: 1000
next table: 1740
cur table: 2727
epoch: 1000
next table: 1469
cur table: 1740
epoch: 1000
next table: 1526
cur table: 1469
epoch: 1000
next table: 1966
cur table: 2577
epoch: 1000
next table: 1534
cur table: 1526
epoch: 1000
next table: 1513
cur table: 1534
epoch: 1000
next table: 1950
cur table: 1966
epoch: 1000
next table: 1511
cur table: 1513
epoch: 1000
next table: 1513
cur table: 1511
epoch: 1000
next table: 1887
cur table: 1950
epoch: 1000
next table: 1492
cur table: 1513
epoch: 1000
next table: 1496
cur table: 1492
epoch: 1000
next table: 1532
cur table: 1496
epoch: 1000
next table: 1953
cur table: 1887
epoch: 1000
next table: 1512
cur table: 1532
epoch: 1000
next table: 1481
cur table: 1512
epoch: 1000
next table: 1958
cur table: 1953
epoch: 1000
next table: 1502
cur table: 1481
epoch: 1000
next table: 1480
cur table: 1502
epoch: 1000
next table: 1992
cur table: 1958
epoch: 1000
next table: 1529
cur table: 1480
epoch: 1000
next table: 1504
cur table: 1529
epoch: 1000
next table: 1496
cur table: 1504
epoch: 1000
next table: 1924
cur table: 1992
epoch: 1000
next table: 1540
cur table: 1496
epoch: 1000
next table: 1537
cur table: 1540
epoch: 1000
next table: 1961
cur table: 1924
epoch: 1000
next table: 2810
cur table: 1537
epoch: 1000
next table: 2637
cur table: 2810
epoch: 1000
next table: 1602
cur table: 2637
epoch: 1000
next table: 2435
cur table: 1961
epoch: 1000
next table: 1606
cur table: 1602
epoch: 1000
next table: 1836
cur table: 1606
epoch: 1000
next table: 2054
cur table: 2435
epoch: 1000
next table: 1466
cur table: 1836
epoch: 1000
next table: 1508
cur table: 1466
epoch: 1000
next table: 1833
cur table: 2054
epoch: 1000
next table: 1531
cur table: 1508
epoch: 1000
next table: 1524
cur table: 1531
epoch: 1000
next table: 1837
cur table: 1833
epoch: 1000
next table: 1524
cur table: 1524
epoch: 1000
next table: 1531
cur table: 1524
epoch: 1000
next table: 1498
cur table: 1531
epoch: 1000
next table: 1841
cur table: 1837
epoch: 1000
next table: 1524
cur table: 1498
epoch: 1000
next table: 1507
cur table: 1524
epoch: 1000
next table: 1900
cur table: 1841
epoch: 1000
next table: 1539
cur table: 1507
epoch: 1000
next table: 1488
cur table: 1539
epoch: 1000
next table: 1924
cur table: 1900
epoch: 1000
next table: 1535
cur table: 1488
epoch: 1000
next table: 1511
cur table: 1535
epoch: 1000
next table: 1952
cur table: 1924
epoch: 1000
next table: 1534
cur table: 1511
epoch: 1000
next table: 1490
cur table: 1534
epoch: 1000
next table: 1889
cur table: 1952
epoch: 1000
next table: 1541
cur table: 1490
epoch: 1000
next table: 1522
cur table: 1541
epoch: 1000
next table: 1817
cur table: 1889
epoch: 1000
next table: 1517
cur table: 1522
epoch: 1000
next table: 2903
cur table: 1517
epoch: 1000
next table: 2247
cur table: 2903
epoch: 1000
next table: 1531
cur table: 2247
epoch: 1000
next table: 2317
cur table: 1817
epoch: 1000
next table: 1495
cur table: 1531
epoch: 1000
next table: 1541
cur table: 1495
epoch: 1000
next table: 1798
cur table: 2317
epoch: 1000
next table: 1528
cur table: 1541
epoch: 1000
next table: 1536
cur table: 1528
epoch: 1000
next table: 1837
cur table: 1798
epoch: 1000
next table: 1536
cur table: 1536
epoch: 1000
next table: 1506
cur table: 1536
epoch: 1000
next table: 1824
cur table: 1837
epoch: 1000
next table: 1525
cur table: 1506
epoch: 1000
next table: 1522
cur table: 1525
epoch: 1000
next table: 1862
cur table: 1824
epoch: 1000
next table: 1504
cur table: 1522
epoch: 1000
next table: 1497
cur table: 1504
epoch: 1000
next table: 1512
cur table: 1497
epoch: 1000
next table: 1894
cur table: 1862
epoch: 1000
next table: 1492
cur table: 1512
epoch: 1000
next table: 1547
cur table: 1492
epoch: 1000
next table: 1961
cur table: 1894
epoch: 1000
next table: 1525
cur table: 1547
epoch: 1000
next table: 1509
cur table: 1525
epoch: 1000
next table: 1948
cur table: 1961
epoch: 1000
next table: 1510
cur table: 1509
epoch: 1000
next table: 1512
cur table: 1510
epoch: 1000
next table: 1994
cur table: 1948
epoch: 1000
next table: 2705
cur table: 1512
epoch: 1000
next table: 2495
cur table: 2705
epoch: 1000
next table: 1738
cur table: 2495
epoch: 1000
next table: 2024
cur table: 1994
epoch: 1000
next table: 1489
cur table: 1738
epoch: 1000
next table: 1534
cur table: 1489
epoch: 1000
next table: 1889
cur table: 2024
epoch: 1000
next table: 1564
cur table: 1534
epoch: 1000
next table: 1515
cur table: 1564
epoch: 1000
next table: 1513
cur table: 1515
epoch: 1000
next table: 1977
cur table: 1889
epoch: 1000
next table: 1528
cur table: 1513
epoch: 1000
next table: 1511
cur table: 1528
epoch: 1000
next table: 1883
cur table: 1977
epoch: 1000
next table: 1513
cur table: 1511
epoch: 1000
next table: 1517
cur table: 1513
epoch: 1000
next table: 1513
cur table: 1517
epoch: 1000
next table: 2023
cur table: 1883
epoch: 1000
next table: 1479
cur table: 1513
epoch: 1000
next table: 1505
cur table: 1479
epoch: 1000
next table: 1983
cur table: 2023
epoch: 1000
next table: 1482
cur table: 1505
epoch: 1000
next table: 1521
cur table: 1482
epoch: 1000
next table: 1969
cur table: 1983
epoch: 1000
next table: 1499
cur table: 1521
epoch: 1000
next table: 1512
cur table: 1499
epoch: 1000
next table: 1516
cur table: 1512
epoch: 1000
next table: 2026
cur table: 1969
epoch: 1000
next table: 1659
cur table: 1516
epoch: 1000
next table: 3253
cur table: 1659
epoch: 1000
next table: 2095
cur table: 3253
epoch: 1000
next table: 2181
cur table: 2026
epoch: 1000
next table: 1468
cur table: 2095
epoch: 1000
next table: 1525
cur table: 1468
epoch: 1000
next table: 1972
cur table: 2181
epoch: 1000
next table: 1533
cur table: 1525
epoch: 1000
next table: 1534
cur table: 1533
epoch: 1000
next table: 1503
cur table: 1534
epoch: 1000
next table: 2005
cur table: 1972
epoch: 1000
next table: 1533
cur table: 1503
epoch: 1000
next table: 1485
cur table: 1533
epoch: 1000
next table: 1521
cur table: 1485
epoch: 1000
next table: 1974
cur table: 2005
epoch: 1000
next table: 1500
cur table: 1521
epoch: 1000
next table: 1522
cur table: 1500
epoch: 1000
next table: 2056
cur table: 1974
epoch: 1000
next table: 1485
cur table: 1522
epoch: 1000
next table: 1504
cur table: 1485
epoch: 1000
next table: 1500
cur table: 1504
epoch: 1000
next table: 2099
cur table: 2056
epoch: 1000
next table: 1561
cur table: 1500
epoch: 1000
next table: 1480
cur table: 1561
epoch: 1000
next table: 2045
cur table: 2099
epoch: 1000
next table: 1523
cur table: 1480
epoch: 1000
next table: 1535
cur table: 1523
epoch: 1000
next table: 1505
cur table: 1535
epoch: 1000
next table: 2007
cur table: 2045
epoch: 1000
next table: 2676
cur table: 1505
epoch: 1000
next table: 2582
cur table: 2676
epoch: 1000
next table: 2198
cur table: 2007
epoch: 1000
next table: 1642
cur table: 2582
epoch: 1000
next table: 1519
cur table: 1642
epoch: 1000
next table: 1528
cur table: 1519
epoch: 1000
next table: 2084
cur table: 2198
epoch: 1000
next table: 1548
cur table: 1528
epoch: 1000
next table: 1538
cur table: 1548
epoch: 1000
next table: 1510
cur table: 1538
epoch: 1000
next table: 2068
cur table: 2084
epoch: 1000
next table: 1518
cur table: 1510
epoch: 1000
next table: 1498
cur table: 1518
epoch: 1000
next table: 1517
cur table: 1498
epoch: 1000
next table: 2021
cur table: 2068
epoch: 1000
next table: 1520
cur table: 1517
epoch: 1000
next table: 1500
cur table: 1520
epoch: 1000
next table: 2132
cur table: 2021
epoch: 1000
next table: 1487
cur table: 1500
epoch: 1000
next table: 1508
cur table: 1487
epoch: 1000
next table: 1524
cur table: 1508
epoch: 1000
next table: 2110
cur table: 2132
epoch: 1000
next table: 1491
cur table: 1524
epoch: 1000
next table: 1500
cur table: 1491
epoch: 1000
next table: 1526
cur table: 1500
epoch: 1000
next table: 2098
cur table: 2110
epoch: 1000
next table: 1502
cur table: 1526
epoch: 1000
next table: 2337
cur table: 1502
epoch: 1000
next table: 2031
cur table: 2098
epoch: 1000
next table: 2762
cur table: 2337
epoch: 1000
next table: 1853
cur table: 2762
epoch: 1000
next table: 1496
cur table: 1853
epoch: 1000
next table: 2294
cur table: 2031
epoch: 1000
next table: 1557
cur table: 1496
epoch: 1000
next table: 1545
cur table: 1557
epoch: 1000
next table: 1517
cur table: 1545
epoch: 1000
next table: 2112
cur table: 2294
epoch: 1000
next table: 1548
cur table: 1517
epoch: 1000
next table: 1513
cur table: 1548
epoch: 1000
next table: 1523
cur table: 1513
epoch: 1000
next table: 2045
cur table: 2112
epoch: 1000
next table: 1495
cur table: 1523
epoch: 1000
next table: 1525
cur table: 1495
epoch: 1000
next table: 1523
cur table: 1525
epoch: 1000
next table: 2177
cur table: 2045
epoch: 1000
next table: 1541
cur table: 1523
epoch: 1000
next table: 1495
cur table: 1541
epoch: 1000
next table: 1504
cur table: 1495
epoch: 1000
next table: 2204
cur table: 2177
epoch: 1000
next table: 1515
cur table: 1504
epoch: 1000
next table: 1484
cur table: 1515
epoch: 1000
next table: 2134
cur table: 2204
epoch: 1000
next table: 1522
cur table: 1484
epoch: 1000
next table: 1509
cur table: 1522
epoch: 1000
next table: 1589
cur table: 1509
epoch: 1000
next table: 2060
cur table: 2134
epoch: 1000
next table: 3064
cur table: 1589
epoch: 1000
next table: 2208
cur table: 3064
epoch: 1000
next table: 1486
cur table: 2208
epoch: 1000
next table: 2172
cur table: 2060
epoch: 1000
next table: 1529
cur table: 1486
epoch: 1000
next table: 1554
cur table: 1529
epoch: 1000
next table: 1535
cur table: 1554
epoch: 1000
next table: 2137
cur table: 2172
epoch: 1000
next table: 1530
cur table: 1535
epoch: 1000
next table: 1541
cur table: 1530
epoch: 1000
next table: 1495
cur table: 1541
epoch: 1000
next table: 2152
cur table: 2137
epoch: 1000
next table: 1510
cur table: 1495
epoch: 1000
next table: 1517
cur table: 1510
epoch: 1000
next table: 1488
cur table: 1517
epoch: 1000
next table: 2150
cur table: 2152
epoch: 1000
next table: 1500
cur table: 1488
epoch: 1000
next table: 1517
cur table: 1500
epoch: 1000
next table: 1507
cur table: 1517
epoch: 1000
next table: 2215
cur table: 2150
epoch: 1000
next table: 1544
cur table: 1507
epoch: 1000
next table: 1498
cur table: 1544
epoch: 1000
next table: 2156
cur table: 2215
epoch: 1000
next table: 1518
cur table: 1498
epoch: 1000
next table: 1520
cur table: 1518
epoch: 1000
next table: 1509
cur table: 1520
epoch: 1000
next table: 2207
cur table: 2156
epoch: 1000
next table: 2511
cur table: 1509
epoch: 1000
next table: 2604
cur table: 2511
epoch: 1000
next table: 1726
cur table: 2604
epoch: 1000
next table: 2068
cur table: 2207
epoch: 1000
next table: 1487
cur table: 1726
epoch: 1000
next table: 1538
cur table: 1487
epoch: 1000
next table: 1552
cur table: 1538
epoch: 1000
next table: 2127
cur table: 2068
epoch: 1000
next table: 1520
cur table: 1552
epoch: 1000
next table: 1529
cur table: 1520
epoch: 1000
next table: 1518
cur table: 1529
epoch: 1000
next table: 2102
cur table: 2127
epoch: 1000
next table: 1492
cur table: 1518
epoch: 1000
next table: 1525
cur table: 1492
epoch: 1000
next table: 1510
cur table: 1525
epoch: 1000
next table: 2133
cur table: 2102
epoch: 1000
next table: 1509
cur table: 1510
epoch: 1000
next table: 1507
cur table: 1509
epoch: 1000
next table: 1486
cur table: 1507
epoch: 1000
next table: 2163
cur table: 2133
epoch: 1000
next table: 1534
cur table: 1486
epoch: 1000
next table: 1518
cur table: 1534
epoch: 1000
next table: 2199
cur table: 2163
epoch: 1000
next table: 1479
cur table: 1518
epoch: 1000
next table: 1529
cur table: 1479
epoch: 1000
next table: 1504
cur table: 1529
epoch: 1000
next table: 2156
cur table: 2199
epoch: 1000
next table: 2218
cur table: 1504
epoch: 1000
next table: 2748
cur table: 2218
epoch: 1000
next table: 1962
cur table: 2748
epoch: 1000
next table: 2173
cur table: 2156
epoch: 1000
next table: 1488
cur table: 1962
epoch: 1000
next table: 1541
cur table: 1488
epoch: 1000
next table: 1533
cur table: 1541
epoch: 1000
next table: 2131
cur table: 2173
epoch: 1000
next table: 1546
cur table: 1533
epoch: 1000
next table: 1524
cur table: 1546
epoch: 1000
next table: 1519
cur table: 1524
epoch: 1000
next table: 2147
cur table: 2131
epoch: 1000
next table: 1520
cur table: 1519
epoch: 1000
next table: 1516
cur table: 1520
epoch: 1000
next table: 1512
cur table: 1516
epoch: 1000
next table: 2129
cur table: 2147
epoch: 1000
next table: 1518
cur table: 1512
epoch: 1000
next table: 1503
cur table: 1518
epoch: 1000
next table: 1488
cur table: 1503
epoch: 1000
next table: 2213
cur table: 2129
epoch: 1000
next table: 1518
cur table: 1488
epoch: 1000
next table: 1506
cur table: 1518
epoch: 1000
next table: 1470
cur table: 1506
epoch: 1000
next table: 2219
cur table: 2213
epoch: 1000
next table: 1553
cur table: 1470
epoch: 1000
next table: 1514
cur table: 1553
epoch: 1000
next table: 2135
cur table: 2219
epoch: 1000
next table: 1548
cur table: 1514
epoch: 1000
next table: 2930
cur table: 1548
epoch: 1000
next table: 2206
cur table: 2930
epoch: 1000
next table: 2174
cur table: 2135
epoch: 1000
next table: 1489
cur table: 2206
epoch: 1000
next table: 1512
cur table: 1489
epoch: 1000
next table: 1538
cur table: 1512
epoch: 1000
next table: 2113
cur table: 2174
epoch: 1000
next table: 1539
cur table: 1538
epoch: 1000
next table: 1529
cur table: 1539
epoch: 1000
next table: 1538
cur table: 1529
epoch: 1000
next table: 2148
cur table: 2113
epoch: 1000
next table: 1519
cur table: 1538
epoch: 1000
next table: 1522
cur table: 1519
epoch: 1000
next table: 1512
cur table: 1522
epoch: 1000
next table: 2163
cur table: 2148
epoch: 1000
next table: 1514
cur table: 1512
epoch: 1000
next table: 1497
cur table: 1514
epoch: 1000
next table: 1500
cur table: 1497
epoch: 1000
next table: 2177
cur table: 2163
epoch: 1000
next table: 1485
cur table: 1500
epoch: 1000
next table: 1532
cur table: 1485
epoch: 1000
next table: 1485
cur table: 1532
epoch: 1000
next table: 2193
cur table: 2177
epoch: 1000
next table: 1496
cur table: 1485
epoch: 1000
next table: 1508
cur table: 1496
epoch: 1000
next table: 1498
cur table: 1508
epoch: 1000
next table: 2259
cur table: 2193
epoch: 1000
next table: 2585
cur table: 1498
epoch: 1000
next table: 2632
cur table: 2585
epoch: 1000
next table: 1606
cur table: 2632
epoch: 1000
next table: 2023
cur table: 2259
epoch: 1000
next table: 1503
cur table: 1606
epoch: 1000
next table: 1559
cur table: 1503
epoch: 1000
next table: 1547
cur table: 1559
epoch: 1000
next table: 2146
cur table: 2023
epoch: 1000
next table: 1528
cur table: 1547
epoch: 1000
next table: 1534
cur table: 1528
epoch: 1000
next table: 1507
cur table: 1534
epoch: 1000
next table: 2129
cur table: 2146
epoch: 1000
next table: 1504
cur table: 1507
epoch: 1000
next table: 1509
cur table: 1504
epoch: 1000
next table: 1500
cur table: 1509
epoch: 1000
next table: 2202
cur table: 2129
epoch: 1000
next table: 1486
cur table: 1500
epoch: 1000
next table: 1519
cur table: 1486
epoch: 1000
next table: 1502
cur table: 1519
epoch: 1000
next table: 2222
cur table: 2202
epoch: 1000
next table: 1531
cur table: 1502
epoch: 1000
next table: 1515
cur table: 1531
epoch: 1000
next table: 1496
cur table: 1515
epoch: 1000
next table: 2269
cur table: 2222
epoch: 1000
next table: 1510
cur table: 1496
epoch: 1000
next table: 1507
cur table: 1510
epoch: 1000
next table: 2210
cur table: 2269
epoch: 1000
next table: 2268
cur table: 1507
Heartbeat CPU 0 instructions: 10000001 cycles: 3345478 heartbeat IPC: 2.98911 cumulative IPC: 2.98911 (Simulation time: 0 hr 9 min 37 sec) 
epoch: 1000
next table: 2776
cur table: 2268
epoch: 1000
next table: 1754
cur table: 2776
epoch: 1000
next table: 2121
cur table: 2210
epoch: 1000
next table: 1492
cur table: 1754
epoch: 1000
next table: 1563
cur table: 1492
epoch: 1000
next table: 1545
cur table: 1563
epoch: 1000
next table: 2160
cur table: 2121
epoch: 1000
next table: 1534
cur table: 1545
epoch: 1000
next table: 1531
cur table: 1534
epoch: 1000
next table: 1525
cur table: 1531
epoch: 1000
next table: 2114
cur table: 2160
epoch: 1000
next table: 1515
cur table: 1525
epoch: 1000
next table: 1524
cur table: 1515
epoch: 1000
next table: 1500
cur table: 1524
epoch: 1000
next table: 2179
cur table: 2114
epoch: 1000
next table: 1526
cur table: 1500
epoch: 1000
next table: 1484
cur table: 1526
epoch: 1000
next table: 1490
cur table: 1484
epoch: 1000
next table: 2244
cur table: 2179
epoch: 1000
next table: 1507
cur table: 1490
epoch: 1000
next table: 1522
cur table: 1507
epoch: 1000
next table: 1477
cur table: 1522
epoch: 1000
next table: 2243
cur table: 2244
epoch: 1000
next table: 1520
cur table: 1477
epoch: 1000
next table: 1492
cur table: 1520
epoch: 1000
next table: 2170
cur table: 1492
epoch: 1000
next table: 2155
cur table: 2243
epoch: 1000
next table: 2620
cur table: 2170
epoch: 1000
next table: 1991
cur table: 2620
epoch: 1000
next table: 1492
cur table: 1991
epoch: 1000
next table: 2047
cur table: 2155
epoch: 1000
next table: 1556
cur table: 1492
epoch: 1000
next table: 1538
cur table: 1556
epoch: 1000
next table: 1516
cur table: 1538
epoch: 1000
next table: 2128
cur table: 2047
epoch: 1000
next table: 1509
cur table: 1516
epoch: 1000
next table: 1535
cur table: 1509
epoch: 1000
next table: 1520
cur table: 1535
epoch: 1000
next table: 2130
cur table: 2128
epoch: 1000
next table: 1515
cur table: 1520
epoch: 1000
next table: 1542
cur table: 1515
epoch: 1000
next table: 1491
cur table: 1542
epoch: 1000
next table: 2213
cur table: 2130
epoch: 1000
next table: 1520
cur table: 1491
epoch: 1000
next table: 1533
cur table: 1520
epoch: 1000
next table: 1483
cur table: 1533
epoch: 1000
next table: 2245
cur table: 2213
epoch: 1000
next table: 1517
cur table: 1483
epoch: 1000
next table: 1498
cur table: 1517
epoch: 1000
next table: 1507
cur table: 1498
epoch: 1000
next table: 2222
cur table: 2245
epoch: 1000
next table: 1513
cur table: 1507
epoch: 1000
next table: 1547
cur table: 1513
epoch: 1000
next table: 2131
cur table: 2222
epoch: 1000
next table: 2996
cur table: 1547
epoch: 1000
next table: 2189
cur table: 2996
epoch: 1000
next table: 1522
cur table: 2189
epoch: 1000
next table: 2150
cur table: 2131
epoch: 1000
next table: 1533
cur table: 1522
epoch: 1000
next table: 1537
cur table: 1533
epoch: 1000
next table: 1526
cur table: 1537
epoch: 1000
next table: 2137
cur table: 2150
epoch: 1000
next table: 1556
cur table: 1526
epoch: 1000
next table: 1531
cur table: 1556
epoch: 1000
next table: 1495
cur table: 1531
epoch: 1000
next table: 2110
cur table: 2137
epoch: 1000
next table: 1534
cur table: 1495
epoch: 1000
next table: 1527
cur table: 1534
epoch: 1000
next table: 1535
cur table: 1527
epoch: 1000
next table: 2264
cur table: 2110
epoch: 1000
next table: 1484
cur table: 1535
epoch: 1000
next table: 1505
cur table: 1484
epoch: 1000
next table: 1531
cur table: 1505
epoch: 1000
next table: 2259
cur table: 2264
epoch: 1000
next table: 1533
cur table: 1531
epoch: 1000
next table: 1501
cur table: 1533
epoch: 1000
next table: 1460
cur table: 1501
epoch: 1000
next table: 2173
cur table: 2259
epoch: 1000
next table: 1546
cur table: 1460
epoch: 1000
next table: 1503
cur table: 1546
epoch: 1000
next table: 2819
cur table: 1503
epoch: 1000
next table: 2067
cur table: 2173
epoch: 1000
next table: 2478
cur table: 2819
epoch: 1000
next table: 1512
cur table: 2478
epoch: 1000
next table: 1529
cur table: 1512
epoch: 1000
next table: 2179
cur table: 2067
epoch: 1000
next table: 1550
cur table: 1529
epoch: 1000
next table: 1535
cur table: 1550
epoch: 1000
next table: 1535
cur table: 1535
epoch: 1000
next table: 2176
cur table: 2179
epoch: 1000
next table: 1532
cur table: 1535
epoch: 1000
next table: 1504
cur table: 1532
epoch: 1000
next table: 1523
cur table: 1504
epoch: 1000
next table: 2088
cur table: 2176
epoch: 1000
next table: 1522
cur table: 1523
epoch: 1000
next table: 1534
cur table: 1522
epoch: 1000
next table: 1497
cur table: 1534
epoch: 1000
next table: 2200
cur table: 2088
epoch: 1000
next table: 1517
cur table: 1497
epoch: 1000
next table: 1500
cur table: 1517
epoch: 1000
next table: 2162
cur table: 2200
epoch: 1000
next table: 1533
cur table: 1500
epoch: 1000
next table: 1517
cur table: 1533
epoch: 1000
next table: 1512
cur table: 1517
epoch: 1000
next table: 2128
cur table: 2162
epoch: 1000
next table: 1530
cur table: 1512
epoch: 1000
next table: 1515
cur table: 1530
epoch: 1000
next table: 2796
cur table: 1515
epoch: 1000
next table: 2412
cur table: 2796
epoch: 1000
next table: 2657
cur table: 2128
epoch: 1000
next table: 1660
cur table: 2412
epoch: 1000
next table: 1532
cur table: 1660
epoch: 1000
next table: 1561
cur table: 1532
epoch: 1000
next table: 2009
cur table: 2657
epoch: 1000
next table: 1540
cur table: 1561
epoch: 1000
next table: 1536
cur table: 1540
epoch: 1000
next table: 1539
cur table: 1536
epoch: 1000
next table: 2064
cur table: 2009
epoch: 1000
next table: 1533
cur table: 1539
epoch: 1000
next table: 1520
cur table: 1533
epoch: 1000
next table: 1994
cur table: 2064
epoch: 1000
next table: 1523
cur table: 1520
epoch: 1000
next table: 1522
cur table: 1523
epoch: 1000
next table: 1520
cur table: 1522
epoch: 1000
next table: 2081
cur table: 1994
epoch: 1000
next table: 1517
cur table: 1520
epoch: 1000
next table: 1503
cur table: 1517
epoch: 1000
next table: 2132
cur table: 2081
epoch: 1000
next table: 1547
cur table: 1503
epoch: 1000
next table: 1488
cur table: 1547
epoch: 1000
next table: 1520
cur table: 1488
epoch: 1000
next table: 2089
cur table: 2132
epoch: 1000
next table: 1534
cur table: 1520
epoch: 1000
next table: 1512
cur table: 1534
epoch: 1000
next table: 2057
cur table: 2089
epoch: 1000
next table: 2152
cur table: 1512
epoch: 1000
next table: 3159
cur table: 2152
epoch: 1000
next table: 1874
cur table: 3159
epoch: 1000
next table: 1484
cur table: 1874
epoch: 1000
next table: 2443
cur table: 2057
epoch: 1000
next table: 1545
cur table: 1484
epoch: 1000
next table: 1548
cur table: 1545
epoch: 1000
next table: 1536
cur table: 1548
epoch: 1000
next table: 1961
cur table: 2443
epoch: 1000
next table: 1529
cur table: 1536
epoch: 1000
next table: 1531
cur table: 1529
epoch: 1000
next table: 1956
cur table: 1961
epoch: 1000
next table: 1517
cur table: 1531
epoch: 1000
next table: 1516
cur table: 1517
epoch: 1000
next table: 1512
cur table: 1516
epoch: 1000
next table: 1899
cur table: 1956
epoch: 1000
next table: 1517
cur table: 1512
epoch: 1000
next table: 1516
cur table: 1517
epoch: 1000
next table: 1965
cur table: 1899
epoch: 1000
next table: 1494
cur table: 1516
epoch: 1000
next table: 1500
cur table: 1494
epoch: 1000
next table: 1996
cur table: 1965
epoch: 1000
next table: 1525
cur table: 1500
epoch: 1000
next table: 1488
cur table: 1525
epoch: 1000
next table: 1959
cur table: 1996
epoch: 1000
next table: 1531
cur table: 1488
epoch: 1000
next table: 1513
cur table: 1531
epoch: 1000
next table: 1526
cur table: 1513
epoch: 1000
next table: 1905
cur table: 1959
epoch: 1000
next table: 2900
cur table: 1526
epoch: 1000
next table: 2397
cur table: 2900
epoch: 1000
next table: 1616
cur table: 2397
epoch: 1000
next table: 2377
cur table: 1905
epoch: 1000
next table: 1535
cur table: 1616
epoch: 1000
next table: 1566
cur table: 1535
epoch: 1000
next table: 1846
cur table: 2377
epoch: 1000
next table: 1533
cur table: 1566
epoch: 1000
next table: 1520
cur table: 1533
epoch: 1000
next table: 1534
cur table: 1520
epoch: 1000
next table: 1865
cur table: 1846
epoch: 1000
next table: 1517
cur table: 1534
epoch: 1000
next table: 1528
cur table: 1517
epoch: 1000
next table: 1793
cur table: 1865
epoch: 1000
next table: 1506
cur table: 1528
epoch: 1000
next table: 1528
cur table: 1506
epoch: 1000
next table: 1888
cur table: 1793
epoch: 1000
next table: 1509
cur table: 1528
epoch: 1000
next table: 1495
cur table: 1509
epoch: 1000
next table: 1848
cur table: 1888
epoch: 1000
next table: 1495
cur table: 1495
epoch: 1000
next table: 1528
cur table: 1495
epoch: 1000
next table: 1875
cur table: 1848
epoch: 1000
next table: 1510
cur table: 1528
epoch: 1000
next table: 1493
cur table: 1510
epoch: 1000
next table: 1901
cur table: 1875
epoch: 1000
next table: 1534
cur table: 1493
epoch: 1000
next table: 1501
cur table: 1534
epoch: 1000
next table: 1928
cur table: 1901
epoch: 1000
next table: 2469
cur table: 1501
epoch: 1000
next table: 2638
cur table: 2469
epoch: 1000
next table: 1783
cur table: 2638
epoch: 1000
next table: 2193
cur table: 1928
epoch: 1000
next table: 1502
cur table: 1783
epoch: 1000
next table: 1575
cur table: 1502
epoch: 1000
next table: 1539
cur table: 1575
epoch: 1000
next table: 1759
cur table: 2193
epoch: 1000
next table: 1550
cur table: 1539
epoch: 1000
next table: 1532
cur table: 1550
epoch: 1000
next table: 1774
cur table: 1759
epoch: 1000
next table: 1532
cur table: 1532
epoch: 1000
next table: 1507
cur table: 1532
epoch: 1000
next table: 1780
cur table: 1774
epoch: 1000
next table: 1526
cur table: 1507
epoch: 1000
next table: 1530
cur table: 1526
epoch: 1000
next table: 1823
cur table: 1780
epoch: 1000
next table: 1505
cur table: 1530
epoch: 1000
next table: 1487
cur table: 1505
epoch: 1000
next table: 1822
cur table: 1823
epoch: 1000
next table: 1488
cur table: 1487
epoch: 1000
next table: 1534
cur table: 1488
epoch: 1000
next table: 1870
cur table: 1822
epoch: 1000
next table: 1490
cur table: 1534
epoch: 1000
next table: 1494
cur table: 1490
epoch: 1000
next table: 1866
cur table: 1870
epoch: 1000
next table: 1531
cur table: 1494
epoch: 1000
next table: 1505
cur table: 1531
epoch: 1000
next table: 1781
cur table: 1866
epoch: 1000
next table: 2293
cur table: 1505
epoch: 1000
next table: 2650
cur table: 2293
epoch: 1000
next table: 1969
cur table: 2650
epoch: 1000
next table: 2204
cur table: 1781
epoch: 1000
next table: 1501
cur table: 1969
epoch: 1000
next table: 1553
cur table: 1501
epoch: 1000
next table: 1752
cur table: 2204
epoch: 1000
next table: 1560
cur table: 1553
epoch: 1000
next table: 1530
cur table: 1560
epoch: 1000
next table: 1808
cur table: 1752
epoch: 1000
next table: 1528
cur table: 1530
epoch: 1000
next table: 1518
cur table: 1528
epoch: 1000
next table: 1774
cur table: 1808
epoch: 1000
next table: 1504
cur table: 1518
epoch: 1000
next table: 1529
cur table: 1504
epoch: 1000
next table: 1853
cur table: 1774
epoch: 1000
next table: 1513
cur table: 1529
epoch: 1000
next table: 1526
cur table: 1513
epoch: 1000
next table: 1937
cur table: 1853
epoch: 1000
next table: 1504
cur table: 1526
epoch: 1000
next table: 1471
cur table: 1504
epoch: 1000
next table: 1496
cur table: 1471
epoch: 1000
next table: 1931
cur table: 1937
epoch: 1000
next table: 1502
cur table: 1496
epoch: 1000
next table: 1491
cur table: 1502
epoch: 1000
next table: 1882
cur table: 1931
epoch: 1000
next table: 1525
cur table: 1491
epoch: 1000
next table: 1513
cur table: 1525
epoch: 1000
next table: 1896
cur table: 1882
epoch: 1000
next table: 1504
cur table: 1513
epoch: 1000
next table: 2961
cur table: 1504
epoch: 1000
next table: 2020
cur table: 1896
epoch: 1000
next table: 2312
cur table: 2961
epoch: 1000
next table: 1507
cur table: 2312
epoch: 1000
next table: 1541
cur table: 1507
epoch: 1000
next table: 1878
cur table: 2020
epoch: 1000
next table: 1551
cur table: 1541
epoch: 1000
next table: 1526
cur table: 1551
epoch: 1000
next table: 1894
cur table: 1878
epoch: 1000
next table: 1537
cur table: 1526
epoch: 1000
next table: 1507
cur table: 1537
epoch: 1000
next table: 1523
cur table: 1507
epoch: 1000
next table: 1907
cur table: 1894
epoch: 1000
next table: 1522
cur table: 1523
epoch: 1000
next table: 1509
cur table: 1522
epoch: 1000
next table: 1929
cur table: 1907
epoch: 1000
next table: 1545
cur table: 1509
epoch: 1000
next table: 1510
cur table: 1545
epoch: 1000
next table: 2008
cur table: 1929
epoch: 1000
next table: 1499
cur table: 1510
epoch: 1000
next table: 1503
cur table: 1499
epoch: 1000
next table: 1548
cur table: 1503
epoch: 1000
next table: 2038
cur table: 2008
epoch: 1000
next table: 1500
cur table: 1548
epoch: 1000
next table: 1490
cur table: 1500
epoch: 1000
next table: 1999
cur table: 2038
epoch: 1000
next table: 1523
cur table: 1490
epoch: 1000
next table: 1505
cur table: 1523
epoch: 1000
next table: 1987
cur table: 1999
epoch: 1000
next table: 2545
cur table: 1505
epoch: 1000
next table: 2755
cur table: 2545
epoch: 1000
next table: 1651
cur table: 2755
epoch: 1000
next table: 2010
cur table: 1987
epoch: 1000
next table: 1531
cur table: 1651
epoch: 1000
next table: 1565
cur table: 1531
epoch: 1000
next table: 1555
cur table: 1565
epoch: 1000
next table: 2008
cur table: 2010
epoch: 1000
next table: 1541
cur table: 1555
epoch: 1000
next table: 1534
cur table: 1541
epoch: 1000
next table: 1999
cur table: 2008
epoch: 1000
next table: 1535
cur table: 1534
epoch: 1000
next table: 1526
cur table: 1535
epoch: 1000
next table: 1523
cur table: 1526
epoch: 1000
next table: 2010
cur table: 1999
epoch: 1000
next table: 1510
cur table: 1523
epoch: 1000
next table: 1517
cur table: 1510
epoch: 1000
next table: 2020
cur table: 2010
epoch: 1000
next table: 1516
cur table: 1517
epoch: 1000
next table: 1500
cur table: 1516
epoch: 1000
next table: 1506
cur table: 1500
epoch: 1000
next table: 2067
cur table: 2020
epoch: 1000
next table: 1516
cur table: 1506
epoch: 1000
next table: 1506
cur table: 1516
epoch: 1000
next table: 2073
cur table: 2067
epoch: 1000
next table: 1509
cur table: 1506
epoch: 1000
next table: 1502
cur table: 1509
epoch: 1000
next table: 2338
cur table: 1502
epoch: 1000
next table: 2052
cur table: 2073
epoch: 1000
next table: 2927
cur table: 2338
epoch: 1000
next table: 1800
cur table: 2927
epoch: 1000
next table: 1504
cur table: 1800
epoch: 1000
next table: 2081
cur table: 2052
epoch: 1000
next table: 1555
cur table: 1504
epoch: 1000
next table: 1561
cur table: 1555
epoch: 1000
next table: 1538
cur table: 1561
epoch: 1000
next table: 2075
cur table: 2081
epoch: 1000
next table: 1518
cur table: 1538
epoch: 1000
next table: 1538
cur table: 1518
epoch: 1000
next table: 2030
cur table: 2075
epoch: 1000
next table: 1511
cur table: 1538
epoch: 1000
next table: 1522
cur table: 1511
epoch: 1000
next table: 1531
cur table: 1522
epoch: 1000
next table: 2065
cur table: 2030
epoch: 1000
next table: 1517
cur table: 1531
epoch: 1000
next table: 1511
cur table: 1517
epoch: 1000
next table: 1495
cur table: 1511
epoch: 1000
next table: 2078
cur table: 2065
epoch: 1000
next table: 1536
cur table: 1495
epoch: 1000
next table: 1497
cur table: 1536
epoch: 1000
next table: 2101
cur table: 2078
epoch: 1000
next table: 1500
cur table: 1497
epoch: 1000
next table: 1567
cur table: 1500
epoch: 1000
next table: 1497
cur table: 1567
epoch: 1000
next table: 2079
cur table: 2101
epoch: 1000
next table: 2115
cur table: 1497
epoch: 1000
next table: 2888
cur table: 2115
epoch: 1000
next table: 2161
cur table: 2079
epoch: 1000
next table: 2019
cur table: 2888
epoch: 1000
next table: 1489
cur table: 2019
epoch: 1000
next table: 1541
cur table: 1489
epoch: 1000
next table: 2025
cur table: 2161
epoch: 1000
next table: 1550
cur table: 1541
epoch: 1000
next table: 1549
cur table: 1550
epoch: 1000
next table: 1523
cur table: 1549
epoch: 1000
next table: 2114
cur table: 2025
epoch: 1000
next table: 1540
cur table: 1523
epoch: 1000
next table: 1523
cur table: 1540
epoch: 1000
next table: 1511
cur table: 1523
epoch: 1000
next table: 2057
cur table: 2114
epoch: 1000
next table: 1544
cur table: 1511
epoch: 1000
next table: 1530
cur table: 1544
epoch: 1000
next table: 1479
cur table: 1530
epoch: 1000
next table: 2138
cur table: 2057
epoch: 1000
next table: 1494
cur table: 1479
epoch: 1000
next table: 1505
cur table: 1494
epoch: 1000
next table: 2164
cur table: 2138
epoch: 1000
next table: 1516
cur table: 1505
epoch: 1000
next table: 1494
cur table: 1516
epoch: 1000
next table: 1526
cur table: 1494
epoch: 1000
next table: 2139
cur table: 2164
epoch: 1000
next table: 1497
cur table: 1526
epoch: 1000
next table: 1516
cur table: 1497
epoch: 1000
next table: 2699
cur table: 1516
epoch: 1000
next table: 2041
cur table: 2139
epoch: 1000
next table: 2544
cur table: 2699
epoch: 1000
next table: 1571
cur table: 2544
epoch: 1000
next table: 1527
cur table: 1571
epoch: 1000
next table: 2156
cur table: 2041
epoch: 1000
next table: 1554
cur table: 1527
epoch: 1000
next table: 1536
cur table: 1554
epoch: 1000
next table: 1536
cur table: 1536
epoch: 1000
next table: 2134
cur table: 2156
epoch: 1000
next table: 1518
cur table: 1536
epoch: 1000
next table: 1524
cur table: 1518
epoch: 1000
next table: 1515
cur table: 1524
epoch: 1000
next table: 2051
cur table: 2134
epoch: 1000
next table: 1511
cur table: 1515
epoch: 1000
next table: 1557
cur table: 1511
epoch: 1000
next table: 2129
cur table: 2051
epoch: 1000
next table: 1490
cur table: 1557
epoch: 1000
next table: 1503
cur table: 1490
epoch: 1000
next table: 1497
cur table: 1503
epoch: 1000
next table: 2154
cur table: 2129
epoch: 1000
next table: 1523
cur table: 1497
epoch: 1000
next table: 1503
cur table: 1523
epoch: 1000
next table: 1490
cur table: 1503
epoch: 1000
next table: 2211
cur table: 2154
epoch: 1000
next table: 1528
cur table: 1490
epoch: 1000
next table: 1516
cur table: 1528
epoch: 1000
next table: 2321
cur table: 1516
epoch: 1000
next table: 2131
cur table: 2211
epoch: 1000
next table: 2779
cur table: 2321
epoch: 1000
next table: 1681
cur table: 2779
epoch: 1000
next table: 2075
cur table: 2131
epoch: 1000
next table: 1500
cur table: 1681
epoch: 1000
next table: 1555
cur table: 1500
epoch: 1000
next table: 1544
cur table: 1555
epoch: 1000
next table: 2158
cur table: 2075
epoch: 1000
next table: 1508
cur table: 1544
epoch: 1000
next table: 1520
cur table: 1508
epoch: 1000
next table: 1532
cur table: 1520
epoch: 1000
next table: 2128
cur table: 2158
epoch: 1000
next table: 1500
cur table: 1532
epoch: 1000
next table: 1518
cur table: 1500
epoch: 1000
next table: 1527
cur table: 1518
epoch: 1000
next table: 2209
cur table: 2128
epoch: 1000
next table: 1518
cur table: 1527
epoch: 1000
next table: 1495
cur table: 1518
epoch: 1000
next table: 1492
cur table: 1495
epoch: 1000
next table: 2174
cur table: 2209
epoch: 1000
next table: 1542
cur table: 1492
epoch: 1000
next table: 1503
cur table: 1542
epoch: 1000
next table: 1463
cur table: 1503
epoch: 1000
next table: 2186
cur table: 2174
epoch: 1000
next table: 1541
cur table: 1463
epoch: 1000
next table: 1495
cur table: 1541
epoch: 1000
next table: 2179
cur table: 1495
epoch: 1000
next table: 2153
cur table: 2186
epoch: 1000
next table: 2689
cur table: 2179
epoch: 1000
next table: 1966
cur table: 2689
epoch: 1000
next table: 1498
cur table: 1966
epoch: 1000
next table: 2139
cur table: 2153
epoch: 1000
next table: 1546
cur table: 1498
epoch: 1000
next table: 1564
cur table: 1546
epoch: 1000
next table: 1535
cur table: 1564
epoch: 1000
next table: 2131
cur table: 2139
epoch: 1000
next table: 1524
cur table: 1535
epoch: 1000
next table: 1537
cur table: 1524
epoch: 1000
next table: 1524
cur table: 1537
epoch: 1000
next table: 2112
cur table: 2131
epoch: 1000
next table: 1511
cur table: 1524
epoch: 1000
next table: 1510
cur table: 1511
epoch: 1000
next table: 1532
cur table: 1510
epoch: 1000
next table: 2158
cur table: 2112
epoch: 1000
next table: 1501
cur table: 1532
epoch: 1000
next table: 1490
cur table: 1501
epoch: 1000
next table: 1526
cur table: 1490
epoch: 1000
next table: 2215
cur table: 2158
epoch: 1000
next table: 1506
cur table: 1526
epoch: 1000
next table: 1490
cur table: 1506
epoch: 1000
next table: 2195
cur table: 2215
epoch: 1000
next table: 1500
cur table: 1490
epoch: 1000
next table: 1507
cur table: 1500
epoch: 1000
next table: 1539
cur table: 1507
epoch: 1000
next table: 2189
cur table: 2195
epoch: 1000
next table: 2926
cur table: 1539
epoch: 1000
next table: 2364
cur table: 2926
epoch: 1000
next table: 1509
cur table: 2364
epoch: 1000
next table: 2094
cur table: 2189
epoch: 1000
next table: 1527
cur table: 1509
epoch: 1000
next table: 1542
cur table: 1527
epoch: 1000
next table: 1536
cur table: 1542
epoch: 1000
next table: 2128
cur table: 2094
epoch: 1000
next table: 1525
cur table: 1536
epoch: 1000
next table: 1555
cur table: 1525
epoch: 1000
next table: 1509
cur table: 1555
epoch: 1000
next table: 2143
cur table: 2128
epoch: 1000
next table: 1506
cur table: 1509
epoch: 1000
next table: 1539
cur table: 1506
epoch: 1000
next table: 1504
cur table: 1539
epoch: 1000
next table: 2203
cur table: 2143
epoch: 1000
next table: 1501
cur table: 1504
epoch: 1000
next table: 1502
cur table: 1501
epoch: 1000
next table: 1496
cur table: 1502
epoch: 1000
next table: 2216
cur table: 2203
epoch: 1000
next table: 1538
cur table: 1496
epoch: 1000
next table: 1503
cur table: 1538
epoch: 1000
next table: 1504
cur table: 1503
epoch: 1000
next table: 2241
cur table: 2216
epoch: 1000
next table: 1517
cur table: 1504
epoch: 1000
next table: 1501
cur table: 1517
epoch: 1000
next table: 3026
cur table: 1501
epoch: 1000
next table: 2157
cur table: 2241
epoch: 1000
next table: 2414
cur table: 3026
epoch: 1000
next table: 1617
cur table: 2414
epoch: 1000
next table: 2129
cur table: 2157
epoch: 1000
next table: 1498
cur table: 1617
epoch: 1000
next table: 1558
cur table: 1498
epoch: 1000
next table: 1549
cur table: 1558
epoch: 1000
next table: 1554
cur table: 1549
epoch: 1000
next table: 2182
cur table: 2129
epoch: 1000
next table: 1526
cur table: 1554
epoch: 1000
next table: 1523
cur table: 1526
epoch: 1000
next table: 1528
cur table: 1523
epoch: 1000
next table: 2134
cur table: 2182
epoch: 1000
next table: 1523
cur table: 1528
epoch: 1000
next table: 1533
cur table: 1523
epoch: 1000
next table: 1491
cur table: 1533
epoch: 1000
next table: 2226
cur table: 2134
epoch: 1000
next table: 1495
cur table: 1491
epoch: 1000
next table: 1488
cur table: 1495
epoch: 1000
next table: 1523
cur table: 1488
epoch: 1000
next table: 2237
cur table: 2226
epoch: 1000
next table: 1507
cur table: 1523
epoch: 1000
next table: 1500
cur table: 1507
epoch: 1000
next table: 2195
cur table: 2237
epoch: 1000
next table: 1527
cur table: 1500
epoch: 1000
next table: 1510
cur table: 1527
epoch: 1000
next table: 2208
cur table: 1510
epoch: 1000
next table: 1994
cur table: 2195
epoch: 1000
next table: 2915
cur table: 2208
epoch: 1000
next table: 1684
cur table: 2915
epoch: 1000
next table: 1490
cur table: 1684
epoch: 1000
next table: 2206
cur table: 1994
epoch: 1000
next table: 1558
cur table: 1490
epoch: 1000
next table: 1559
cur table: 1558
epoch: 1000
next table: 1529
cur table: 1559
epoch: 1000
next table: 2184
cur table: 2206
epoch: 1000
next table: 1532
cur table: 1529
epoch: 1000
next table: 1531
cur table: 1532
epoch: 1000
next table: 1520
cur table: 1531
epoch: 1000
next table: 2126
cur table: 2184
epoch: 1000
next table: 1532
cur table: 1520
epoch: 1000
next table: 1519
cur table: 1532
epoch: 1000
next table: 1496
cur table: 1519
epoch: 1000
next table: 2250
cur table: 2126
epoch: 1000
next table: 1517
cur table: 1496
epoch: 1000
next table: 1493
cur table: 1517
epoch: 1000
next table: 1533
cur table: 1493
epoch: 1000
next table: 2216
cur table: 2250
epoch: 1000
next table: 1518
cur table: 1533
epoch: 1000
next table: 1483
cur table: 1518
epoch: 1000
next table: 1542
cur table: 1483
epoch: 1000
next table: 2243
cur table: 2216
epoch: 1000
next table: 1486
cur table: 1542
epoch: 1000
next table: 2275
cur table: 1486
epoch: 1000
next table: 2667
cur table: 2275
epoch: 1000
next table: 2235
cur table: 2243
epoch: 1000
next table: 1753
cur table: 2667
epoch: 1000
next table: 1486
cur table: 1753
epoch: 1000
next table: 1538
cur table: 1486
epoch: 1000
next table: 2053
cur table: 2235
epoch: 1000
next table: 1562
cur table: 1538
epoch: 1000
next table: 1515
cur table: 1562
epoch: 1000
next table: 1532
cur table: 1515
epoch: 1000
next table: 2150
cur table: 2053
epoch: 1000
next table: 1521
cur table: 1532
epoch: 1000
next table: 1506
cur table: 1521
epoch: 1000
next table: 1525
cur table: 1506
epoch: 1000
next table: 2082
cur table: 2150
epoch: 1000
next table: 1520
cur table: 1525
epoch: 1000
next table: 1516
cur table: 1520
epoch: 1000
next table: 1506
cur table: 1516
epoch: 1000
next table: 2218
cur table: 2082
epoch: 1000
next table: 1484
cur table: 1506
epoch: 1000
next table: 1535
cur table: 1484
epoch: 1000
next table: 2180
cur table: 2218
epoch: 1000
next table: 1518
cur table: 1535
epoch: 1000
next table: 1482
cur table: 1518
epoch: 1000
next table: 1515
cur table: 1482
epoch: 1000
next table: 2152
cur table: 2180
epoch: 1000
next table: 1504
cur table: 1515
epoch: 1000
next table: 1917
cur table: 1504
epoch: 1000
next table: 2827
cur table: 1917
epoch: 1000
next table: 1999
cur table: 2827
epoch: 1000
next table: 2556
cur table: 2152
epoch: 1000
next table: 1484
cur table: 1999
epoch: 1000
next table: 1549
cur table: 1484
epoch: 1000
next table: 1559
cur table: 1549
epoch: 1000
next table: 2092
cur table: 2556
epoch: 1000
next table: 1523
cur table: 1559
epoch: 1000
next table: 1527
cur table: 1523
epoch: 1000
next table: 1511
cur table: 1527
epoch: 1000
next table: 2154
cur table: 2092
epoch: 1000
next table: 1531
cur table: 1511
epoch: 1000
next table: 1521
cur table: 1531
epoch: 1000
next table: 1523
cur table: 1521
epoch: 1000
next table: 2082
cur table: 2154
epoch: 1000
next table: 1500
cur table: 1523
epoch: 1000
next table: 1489
cur table: 1500
epoch: 1000
next table: 2091
cur table: 2082
epoch: 1000
next table: 1501
cur table: 1489
epoch: 1000
next table: 1494
cur table: 1501
epoch: 1000
next table: 1486
cur table: 1494
epoch: 1000
next table: 2097
cur table: 2091
epoch: 1000
next table: 1485
cur table: 1486
epoch: 1000
next table: 1516
cur table: 1485
epoch: 1000
next table: 1522
cur table: 1516
epoch: 1000
next table: 2122
cur table: 2097
epoch: 1000
next table: 1639
cur table: 1522
epoch: 1000
next table: 3222
cur table: 1639
epoch: 1000
next table: 2093
cur table: 3222
epoch: 1000
next table: 2521
cur table: 2122
epoch: 1000
next table: 1487
cur table: 2093
epoch: 1000
next table: 1529
cur table: 1487
epoch: 1000
next table: 1570
cur table: 1529
epoch: 1000
next table: 2071
cur table: 2521
epoch: 1000
next table: 1538
cur table: 1570
epoch: 1000
next table: 1549
cur table: 1538
epoch: 1000
next table: 1530
cur table: 1549
epoch: 1000
next table: 2067
cur table: 2071
epoch: 1000
next table: 1508
cur table: 1530
epoch: 1000
next table: 1514
cur table: 1508
epoch: 1000
next table: 1512
cur table: 1514
epoch: 1000
next table: 2047
cur table: 2067
epoch: 1000
next table: 1528
cur table: 1512
epoch: 1000
next table: 1499
cur table: 1528
epoch: 1000
next table: 2058
cur table: 2047
epoch: 1000
next table: 1485
cur table: 1499
epoch: 1000
next table: 1499
cur table: 1485
epoch: 1000
next table: 1527
cur table: 1499
epoch: 1000
next table: 2049
cur table: 2058
epoch: 1000
next table: 1504
cur table: 1527
epoch: 1000
next table: 1528
cur table: 1504
epoch: 1000
next table: 2077
cur table: 2049
epoch: 1000
next table: 1529
cur table: 1528
epoch: 1000
next table: 1483
cur table: 1529
epoch: 1000
next table: 2749
cur table: 1483
epoch: 1000
next table: 2455
cur table: 2749
epoch: 1000
next table: 2515
cur table: 2077
epoch: 1000
next table: 1603
cur table: 2455
epoch: 1000
next table: 1529
cur table: 1603
epoch: 1000
next table: 1565
cur table: 1529
epoch: 1000
next table: 1986
cur table: 2515
epoch: 1000
next table: 1535
cur table: 1565
epoch: 1000
next table: 1523
cur table: 1535
epoch: 1000
next table: 2003
cur table: 1986
epoch: 1000
next table: 1541
cur table: 1523
epoch: 1000
next table: 1535
cur table: 1541
epoch: 1000
next table: 1521
cur table: 1535
epoch: 1000
next table: 1960
cur table: 2003
epoch: 1000
next table: 1507
cur table: 1521
epoch: 1000
next table: 1511
cur table: 1507
epoch: 1000
next table: 2029
cur table: 1960
epoch: 1000
next table: 1490
cur table: 1511
epoch: 1000
next table: 1520
cur table: 1490
epoch: 1000
next table: 1499
cur table: 1520
epoch: 1000
next table: 2039
cur table: 2029
epoch: 1000
next table: 1501
cur table: 1499
epoch: 1000
next table: 1498
cur table: 1501
epoch: 1000
next table: 1988
cur table: 2039
epoch: 1000
next table: 1493
cur table: 1498
epoch: 1000
next table: 1517
cur table: 1493
epoch: 1000
next table: 1507
cur table: 1517
epoch: 1000
next table: 1930
cur table: 1988
epoch: 1000
next table: 2452
cur table: 1507
epoch: 1000
next table: 2562
cur table: 2452
epoch: 1000
next table: 1792
cur table: 2562
epoch: 1000
next table: 2512
cur table: 1930
epoch: 1000
next table: 1496
cur table: 1792
epoch: 1000
next table: 1547
cur table: 1496
epoch: 1000
next table: 1560
cur table: 1547
epoch: 1000
next table: 1883
cur table: 2512
epoch: 1000
next table: 1527
cur table: 1560
epoch: 1000
next table: 1544
cur table: 1527
epoch: 1000
next table: 1934
cur table: 1883
epoch: 1000
next table: 1526
cur table: 1544
epoch: 1000
next table: 1524
cur table: 1526
epoch: 1000
next table: 1852
cur table: 1934
epoch: 1000
next table: 1514
cur table: 1524
epoch: 1000
next table: 1500
cur table: 1514
epoch: 1000
next table: 1489
cur table: 1500
epoch: 1000
next table: 1940
cur table: 1852
epoch: 1000
next table: 1521
cur table: 1489
epoch: 1000
next table: 1478
cur table: 1521
epoch: 1000
next table: 1941
cur table: 1940
epoch: 1000
next table: 1520
cur table: 1478
epoch: 1000
next table: 1513
cur table: 1520
epoch: 1000
next table: 1959
cur table: 1941
epoch: 1000
next table: 1505
cur table: 1513
epoch: 1000
next table: 1524
cur table: 1505
epoch: 1000
next table: 1983
cur table: 1959
epoch: 1000
next table: 1503
cur table: 1524
epoch: 1000
next table: 1791
cur table: 1503
epoch: 1000
next table: 3103
cur table: 1791
epoch: 1000
next table: 2241
cur table: 1983
epoch: 1000
next table: 2007
cur table: 3103
epoch: 1000
next table: 1470
cur table: 2007
epoch: 1000
next table: 1565
cur table: 1470
epoch: 1000
next table: 1808
cur table: 2241
epoch: 1000
next table: 1540
cur table: 1565
epoch: 1000
next table: 1516
cur table: 1540
epoch: 1000
next table: 1930
cur table: 1808
epoch: 1000
next table: 1526
cur table: 1516
epoch: 1000
next table: 1545
cur table: 1526
epoch: 1000
next table: 1889
cur table: 1930
epoch: 1000
next table: 1511
cur table: 1545
epoch: 1000
next table: 1511
cur table: 1511
epoch: 1000
next table: 1520
cur table: 1511
epoch: 1000
next table: 1947
cur table: 1889
epoch: 1000
next table: 1516
cur table: 1520
epoch: 1000
next table: 1484
cur table: 1516
epoch: 1000
next table: 1985
cur table: 1947
epoch: 1000
next table: 1495
cur table: 1484
epoch: 1000
next table: 1504
cur table: 1495
epoch: 1000
next table: 1521
cur table: 1504
epoch: 1000
next table: 2022
cur table: 1985
epoch: 1000
next table: 1520
cur table: 1521
epoch: 1000
next table: 1510
cur table: 1520
epoch: 1000
next table: 2004
cur table: 2022
epoch: 1000
next table: 1504
cur table: 1510
epoch: 1000
next table: 1594
cur table: 1504
epoch: 1000
next table: 1905
cur table: 2004
epoch: 1000
next table: 2850
cur table: 1594
epoch: 1000
next table: 2224
cur table: 2850
epoch: 1000
next table: 1475
cur table: 2224
epoch: 1000
next table: 2009
cur table: 1905
epoch: 1000
next table: 1535
cur table: 1475
epoch: 1000
next table: 1570
cur table: 1535
epoch: 1000
next table: 1871
cur table: 2009
epoch: 1000
next table: 1539
cur table: 1570
epoch: 1000
next table: 1532
cur table: 1539
epoch: 1000
next table: 1539
cur table: 1532
epoch: 1000
next table: 1966
cur table: 1871
epoch: 1000
next table: 1539
cur table: 1539
epoch: 1000
next table: 1505
cur table: 1539
epoch: 1000
next table: 1916
cur table: 1966
epoch: 1000
next table: 1526
cur table: 1505
epoch: 1000
next table: 1511
cur table: 1526
epoch: 1000
next table: 1508
cur table: 1511
epoch: 1000
next table: 2117
cur table: 1916
epoch: 1000
next table: 1525
cur table: 1508
epoch: 1000
next table: 1504
cur table: 1525
epoch: 1000
next table: 2019
cur table: 2117
epoch: 1000
next table: 1504
cur table: 1504
epoch: 1000
next table: 1511
cur table: 1504
epoch: 1000
next table: 1511
cur table: 1511
epoch: 1000
next table: 2068
cur table: 2019
epoch: 1000
next table: 1506
cur table: 1511
epoch: 1000
next table: 1505
cur table: 1506
epoch: 1000
next table: 2044
cur table: 2068
epoch: 1000
next table: 2758
cur table: 1505
epoch: 1000
next table: 2550
cur table: 2758
epoch: 1000
next table: 1537
cur table: 2550
epoch: 1000
next table: 2000
cur table: 2044
epoch: 1000
next table: 1525
cur table: 1537
epoch: 1000
next table: 1554
cur table: 1525
epoch: 1000
next table: 1964
cur table: 2000
epoch: 1000
next table: 1541
cur table: 1554
epoch: 1000
next table: 1545
cur table: 1541
epoch: 1000
next table: 1538
cur table: 1545
epoch: 1000
next table: 2021
cur table: 1964
epoch: 1000
next table: 1514
cur table: 1538
epoch: 1000
next table: 1511
cur table: 1514
epoch: 1000
next table: 1498
cur table: 1511
epoch: 1000
next table: 1960
cur table: 2021
epoch: 1000
next table: 1534
cur table: 1498
epoch: 1000
next table: 1485
cur table: 1534
epoch: 1000
next table: 2126
cur table: 1960
epoch: 1000
next table: 1491
cur table: 1485
epoch: 1000
next table: 1491
cur table: 1491
epoch: 1000
next table: 1533
cur table: 1491
epoch: 1000
next table: 2115
cur table: 2126
epoch: 1000
next table: 1508
cur table: 1533
epoch: 1000
next table: 1472
cur table: 1508
epoch: 1000
next table: 1522
cur table: 1472
epoch: 1000
next table: 2069
cur table: 2115
epoch: 1000
next table: 1491
cur table: 1522
epoch: 1000
next table: 2403
cur table: 1491
epoch: 1000
next table: 1974
cur table: 2069
epoch: 1000
next table: 2574
cur table: 2403
epoch: 1000
next table: 1665
cur table: 2574
epoch: 1000
next table: 2200
cur table: 1974
epoch: 1000
next table: 1878
cur table: 1665
epoch: 1000
next table: 1482
cur table: 1878
epoch: 1000
next table: 1567
cur table: 1482
epoch: 1000
next table: 1998
cur table: 2200
epoch: 1000
next table: 1563
cur table: 1567
epoch: 1000
next table: 1519
cur table: 1563
epoch: 1000
next table: 1549
cur table: 1519
epoch: 1000
next table: 2033
cur table: 1998
epoch: 1000
next table: 1537
cur table: 1549
epoch: 1000
next table: 1536
cur table: 1537
epoch: 1000
next table: 1494
cur table: 1536
epoch: 1000
next table: 2039
cur table: 2033
epoch: 1000
next table: 1507
cur table: 1494
epoch: 1000
next table: 1500
cur table: 1507
epoch: 1000
next table: 2088
cur table: 2039
epoch: 1000
next table: 1476
cur table: 1500
epoch: 1000
next table: 1509
cur table: 1476
epoch: 1000
next table: 1510
cur table: 1509
epoch: 1000
next table: 2147
cur table: 2088
epoch: 1000
next table: 1513
cur table: 1510
epoch: 1000
next table: 1499
cur table: 1513
epoch: 1000
next table: 1517
cur table: 1499
epoch: 1000
next table: 2125
cur table: 2147
epoch: 1000
next table: 1516
cur table: 1517
epoch: 1000
next table: 1647
cur table: 1516
epoch: 1000
next table: 2020
cur table: 2125
epoch: 1000
next table: 2853
cur table: 1647
epoch: 1000
next table: 1878
cur table: 2853
epoch: 1000
next table: 1936
cur table: 2020
epoch: 1000
next table: 1477
cur table: 1878
epoch: 1000
next table: 1572
cur table: 1477
epoch: 1000
next table: 1559
cur table: 1572
epoch: 1000
next table: 2092
cur table: 1936
epoch: 1000
next table: 1539
cur table: 1559
epoch: 1000
next table: 1533
cur table: 1539
epoch: 1000
next table: 1535
cur table: 1533
epoch: 1000
next table: 2051
cur table: 2092
epoch: 1000
next table: 1527
cur table: 1535
epoch: 1000
next table: 1488
cur table: 1527
epoch: 1000
next table: 1539
cur table: 1488
epoch: 1000
next table: 2126
cur table: 2051
epoch: 1000
next table: 1512
cur table: 1539
epoch: 1000
next table: 1499
cur table: 1512
epoch: 1000
next table: 1488
cur table: 1499
epoch: 1000
next table: 2097
cur table: 2126
epoch: 1000
next table: 1506
cur table: 1488
epoch: 1000
next table: 1506
cur table: 1506
epoch: 1000
next table: 1484
cur table: 1506
epoch: 1000
next table: 2185
cur table: 2097
epoch: 1000
next table: 1502
cur table: 1484
epoch: 1000
next table: 1516
cur table: 1502
epoch: 1000
next table: 2131
cur table: 2185
epoch: 1000
next table: 1543
cur table: 1516
epoch: 1000
next table: 3037
cur table: 1543
epoch: 1000
next table: 2235
cur table: 3037
epoch: 1000
next table: 2086
cur table: 2131
epoch: 1000
next table: 1516
cur table: 2235
epoch: 1000
next table: 1551
cur table: 1516
epoch: 1000
next table: 1560
cur table: 1551
epoch: 1000
next table: 2065
cur table: 2086
epoch: 1000
next table: 1557
cur table: 1560
epoch: 1000
next table: 1558
cur table: 1557
epoch: 1000
next table: 1555
cur table: 1558
epoch: 1000
next table: 2070
cur table: 2065
epoch: 1000
next table: 1543
cur table: 1555
epoch: 1000
next table: 1506
cur table: 1543
epoch: 1000
next table: 2065
cur table: 2070
epoch: 1000
next table: 1512
cur table: 1506
epoch: 1000
next table: 1512
cur table: 1512
epoch: 1000
next table: 1481
cur table: 1512
epoch: 1000
next table: 2140
cur table: 2065
epoch: 1000
next table: 1502
cur table: 1481
epoch: 1000
next table: 1482
cur table: 1502
epoch: 1000
next table: 1535
cur table: 1482
epoch: 1000
next table: 2191
cur table: 2140
epoch: 1000
next table: 1498
cur table: 1535
epoch: 1000
next table: 1527
cur table: 1498
epoch: 1000
next table: 1518
cur table: 1527
epoch: 1000
next table: 2176
cur table: 2191
epoch: 1000
next table: 1492
cur table: 1518
epoch: 1000
next table: 2466
cur table: 1492
epoch: 1000
next table: 1967
cur table: 2176
epoch: 1000
next table: 2673
cur table: 2466
epoch: 1000
next table: 1648
cur table: 2673
epoch: 1000
next table: 1494
cur table: 1648
epoch: 1000
next table: 2207
cur table: 1967
epoch: 1000
next table: 1576
cur table: 1494
epoch: 1000
next table: 1558
cur table: 1576
epoch: 1000
next table: 1551
cur table: 1558
epoch: 1000
next table: 2133
cur table: 2207
epoch: 1000
next table: 1542
cur table: 1551
epoch: 1000
next table: 1521
cur table: 1542
epoch: 1000
next table: 1497
cur table: 1521
epoch: 1000
next table: 2063
cur table: 2133
epoch: 1000
next table: 1517
cur table: 1497
epoch: 1000
next table: 1519
cur table: 1517
epoch: 1000
next table: 1512
cur table: 1519
epoch: 1000
next table: 2220
cur table: 2063
epoch: 1000
next table: 1497
cur table: 1512
epoch: 1000
next table: 1490
cur table: 1497
epoch: 1000
next table: 1527
cur table: 1490
epoch: 1000
next table: 2169
cur table: 2220
epoch: 1000
next table: 1506
cur table: 1527
epoch: 1000
next table: 1495
cur table: 1506
epoch: 1000
next table: 1509
cur table: 1495
epoch: 1000
next table: 2163
cur table: 2169
epoch: 1000
next table: 1491
cur table: 1509
epoch: 1000
next table: 2115
cur table: 1491
epoch: 1000
next table: 2022
cur table: 2163
epoch: 1000
next table: 2999
cur table: 2115
epoch: 1000
next table: 1882
cur table: 2999
epoch: 1000
next table: 1486
cur table: 1882
epoch: 1000
next table: 2102
cur table: 2022
epoch: 1000
next table: 1562
cur table: 1486
epoch: 1000
next table: 1564
cur table: 1562
epoch: 1000
next table: 1542
cur table: 1564
epoch: 1000
next table: 2101
cur table: 2102
epoch: 1000
next table: 1550
cur table: 1542
epoch: 1000
next table: 1523
cur table: 1550
epoch: 1000
next table: 1539
cur table: 1523
epoch: 1000
next table: 2062
cur table: 2101
epoch: 1000
next table: 1519
cur table: 1539
epoch: 1000
next table: 1536
cur table: 1519
epoch: 1000
next table: 1522
cur table: 1536
epoch: 1000
next table: 2194
cur table: 2062
epoch: 1000
next table: 1508
cur table: 1522
epoch: 1000
next table: 1486
cur table: 1508
epoch: 1000
next table: 1513
cur table: 1486
epoch: 1000
next table: 2237
cur table: 2194
epoch: 1000
next table: 1504
cur table: 1513
epoch: 1000
next table: 1490
cur table: 1504
epoch: 1000
next table: 2194
cur table: 2237
epoch: 1000
next table: 1521
cur table: 1490
epoch: 1000
next table: 1518
cur table: 1521
epoch: 1000
next table: 1721
cur table: 1518
epoch: 1000
next table: 2099
cur table: 2194
Heartbeat CPU 0 instructions: 20000000 cycles: 6692847 heartbeat IPC: 2.98742 cumulative IPC: 2.98827 (Simulation time: 0 hr 19 min 43 sec) 
epoch: 1000
next table: 2923
cur table: 1721
epoch: 1000
next table: 2190
cur table: 2923
epoch: 1000
next table: 1502
cur table: 2190
epoch: 1000
next table: 2103
cur table: 2099
epoch: 1000
next table: 1553
cur table: 1502
epoch: 1000
next table: 1555
cur table: 1553
epoch: 1000
next table: 1551
cur table: 1555
epoch: 1000
next table: 2106
cur table: 2103
epoch: 1000
next table: 1538
cur table: 1551
epoch: 1000
next table: 1544
cur table: 1538
epoch: 1000
next table: 1525
cur table: 1544
epoch: 1000
next table: 2158
cur table: 2106
epoch: 1000
next table: 1512
cur table: 1525
epoch: 1000
next table: 1543
cur table: 1512
epoch: 1000
next table: 1520
cur table: 1543
epoch: 1000
next table: 2186
cur table: 2158
epoch: 1000
next table: 1506
cur table: 1520
epoch: 1000
next table: 1504
cur table: 1506
epoch: 1000
next table: 1499
cur table: 1504
epoch: 1000
next table: 2250
cur table: 2186
epoch: 1000
next table: 1535
cur table: 1499
epoch: 1000
next table: 1500
cur table: 1535
epoch: 1000
next table: 1513
cur table: 1500
epoch: 1000
next table: 2236
cur table: 2250
epoch: 1000
next table: 1538
cur table: 1513
epoch: 1000
next table: 1485
cur table: 1538
epoch: 1000
[...]
next table: 2484
cur table: 2317
epoch: 1000
next table: 1723
cur table: 2484
epoch: 1000
next table: 1971
cur table: 1784
epoch: 1000
next table: 1563
cur table: 1723
epoch: 1000
next table: 1584
cur table: 1563
epoch: 1000
next table: 1570
cur table: 1584
epoch: 1000
next table: 1859
cur table: 1971
epoch: 1000
next table: 1549
cur table: 1570
epoch: 1000
next table: 1539
cur table: 1549
epoch: 1000
next table: 1890
cur table: 1859
epoch: 1000
next table: 1547
cur table: 1539
epoch: 1000
next table: 1535
cur table: 1547
epoch: 1000
next table: 1506
cur table: 1535
epoch: 1000
next table: 1914
cur table: 1890
epoch: 1000
next table: 1480
cur table: 1506
epoch: 1000
next table: 1483
cur table: 1480
epoch: 1000
next table: 1898
cur table: 1914
epoch: 1000
next table: 1469
cur table: 1483
epoch: 1000
next table: 1467
cur table: 1469
epoch: 1000
next table: 1934
cur table: 1898
epoch: 1000
next table: 1491
cur table: 1467
epoch: 1000
next table: 1492
cur table: 1491
epoch: 1000
next table: 1428
cur table: 1492
epoch: 1000
next table: 1941
cur table: 1934
epoch: 1000
next table: 1512
cur table: 1428
epoch: 1000
next table: 1510
cur table: 1512
epoch: 1000
next table: 1994
cur table: 1941
epoch: 1000
next table: 2372
cur table: 1510
epoch: 1000
next table: 2413
cur table: 2372
epoch: 1000
next table: 1668
cur table: 2413
epoch: 1000
next table: 1976
cur table: 1994
epoch: 1000
next table: 1567
cur table: 1668
epoch: 1000
next table: 1566
cur table: 1567
epoch: 1000
next table: 1942
cur table: 1976
epoch: 1000
next table: 1554
cur table: 1566
epoch: 1000
next table: 1558
cur table: 1554
epoch: 1000
next table: 1523
cur table: 1558
epoch: 1000
next table: 1955
cur table: 1942
epoch: 1000
next table: 1561
cur table: 1523
epoch: 1000
next table: 1519
cur table: 1561
epoch: 1000
next table: 1507
cur table: 1519
epoch: 1000
next table: 2003
cur table: 1955
epoch: 1000
next table: 1490
cur table: 1507
epoch: 1000
next table: 1487
cur table: 1490
epoch: 1000
next table: 1973
cur table: 2003
epoch: 1000
next table: 1501
cur table: 1487
epoch: 1000
next table: 1462
cur table: 1501
epoch: 1000
next table: 1493
cur table: 1462
epoch: 1000
next table: 1999
cur table: 1973
epoch: 1000
next table: 1487
cur table: 1493
epoch: 1000
next table: 1448
cur table: 1487
epoch: 1000
next table: 1966
cur table: 1999
epoch: 1000
next table: 1518
cur table: 1448
epoch: 1000
next table: 1485
cur table: 1518
Heartbeat CPU 0 instructions: 100000001 cycles: 210175298 heartbeat IPC: 0.258441 cumulative IPC: 0.258475 (Simulation time: 1 hr 28 min 24 sec) 
Finished CPU 0 instructions: 50000000 cycles: 193442656 cumulative IPC: 0.258475 (Simulation time: 1 hr 28 min 24 sec) 

ChampSim completed all CPUs

Region of Interest Statistics

CPU 0 cumulative IPC: 0.258475 instructions: 50000000 cycles: 193442656
ITLB TOTAL     ACCESS:    8878708  HIT:    8878708  MISS:          0  HIT %:        100  MISS %:          0   MPKI: 0
ITLB LOAD TRANSLATION ACCESS:    8878708  HIT:    8878708  MISS:          0  HIT %:        100  MISS %:          0   MPKI: 0
ITLB PREFETCH  REQUESTED:          0  ISSUED:          0  USEFUL:          0  USELESS:          0
ITLB USEFUL LOAD PREFETCHES:          0 PREFETCH ISSUED TO LOWER LEVEL:          0  ACCURACY: -nan
ITLB TIMELY PREFETCHES:          0 LATE PREFETCHES: 0 DROPPED PREFETCHES: 0
ITLB PREFETCHES SAME FILL-ORIGIN LEVEL: 0 DIFFERENT FILL-ORIGIN LEVEL: 0
ITLB AVERAGE MISS LATENCY: -nan cycles
ITLB RQ	ACCESS:    9293575	FORWARD:          0	MERGED:     414867	TO_CACHE:    8878708

Revised Interactions: positive negative neutral
ITLB_interactions 0 0 0 -nan -nan -nan
DTLB TOTAL     ACCESS:   14771745  HIT:   13427340  MISS:    1344405  HIT %:    90.8988  MISS %:    9.10119   MPKI: 26.8881
DTLB LOAD TRANSLATION ACCESS:   14771745  HIT:   13427340  MISS:    1344405  HIT %:    90.8988  MISS %:    9.10119   MPKI: 26.8881
DTLB PREFETCH  REQUESTED:          0  ISSUED:          0  USEFUL:          0  USELESS:          0
DTLB USEFUL LOAD PREFETCHES:          0 PREFETCH ISSUED TO LOWER LEVEL:          0  ACCURACY: -nan
DTLB TIMELY PREFETCHES:          0 LATE PREFETCHES: 0 DROPPED PREFETCHES: 0
DTLB PREFETCHES SAME FILL-ORIGIN LEVEL: 0 DIFFERENT FILL-ORIGIN LEVEL: 0
DTLB AVERAGE MISS LATENCY: 10.8804 cycles
DTLB RQ	ACCESS:   18040348	FORWARD:          0	MERGED:    3164907	TO_CACHE:   14875441

Revised Interactions: positive negative neutral
DTLB_interactions 0 0 0 -nan -nan -nan
STLB TOTAL     ACCESS:    5130955  HIT:    5114257  MISS:      16698  HIT %:    99.6746  MISS %:   0.325436   MPKI: 0.33396
STLB LOAD TRANSLATION ACCESS:    1344405  HIT:    1327707  MISS:      16698  HIT %:     98.758  MISS %:    1.24204   MPKI: 0.33396
STLB TRANSLATION FROM L1D PREFETCHER ACCESS:    3786550  HIT:    3786550  MISS:          0  HIT %:        100  MISS %:          0   MPKI: 0
STLB PREFETCH  REQUESTED:          0  ISSUED:          0  USEFUL:          0  USELESS:          0
STLB USEFUL LOAD PREFETCHES:          0 PREFETCH ISSUED TO LOWER LEVEL:          0  ACCURACY: -nan
STLB TIMELY PREFETCHES:          0 LATE PREFETCHES: 0 DROPPED PREFETCHES: 0
STLB PREFETCHES SAME FILL-ORIGIN LEVEL: 0 DIFFERENT FILL-ORIGIN LEVEL: 0
STLB AVERAGE MISS LATENCY: 132.014 cycles
STLB RQ	ACCESS:    5815118	FORWARD:          0	MERGED:     684163	TO_CACHE:    5130955

Revised Interactions: positive negative neutral
STLB_interactions 0 0 0 -nan -nan -nan
STLB Hit, L1D data hit: 0
STLB Hit, L2C data hit: 0
STLB Hit, LLC data hit: 0
STLB Hit, LLC data miss: 0
STLB STLB hints to L2: 0
L1D TOTAL     ACCESS:   21956165  HIT:   17271109  MISS:    4685056  HIT %:    78.6618  MISS %:    21.3382   MPKI: 93.7011
L1D LOAD      ACCESS:   12777533  HIT:   10931930  MISS:    1845603  HIT %:    85.5559  MISS %:    14.4441   MPKI: 36.9121
L1D RFO       ACCESS:    4798377  HIT:    4623014  MISS:     175363  HIT %:    96.3454  MISS %:    3.65463   MPKI: 3.50726
L1D PREFETCH  ACCESS:    4380255  HIT:    1716165  MISS:    2664090  HIT %:    39.1796  MISS %:    60.8204   MPKI: 53.2818
L1D PREFETCH  REQUESTED:    8945654  ISSUED:    8945614  USEFUL:     678656  USELESS:    1985444
L1D USEFUL LOAD PREFETCHES:     678656 PREFETCH ISSUED TO LOWER LEVEL:    2664288  ACCURACY: 25.4723
L1D TIMELY PREFETCHES:     678656 LATE PREFETCHES: 171065 DROPPED PREFETCHES: 0
L1D PREFETCHES SAME FILL-ORIGIN LEVEL: 2664288 DIFFERENT FILL-ORIGIN LEVEL: 0
L1D AVERAGE MISS LATENCY: 4706.08 cycles
L1D RQ	ACCESS:   17092679	FORWARD:          0	MERGED:    3648281	TO_CACHE:   12956409
L1D WQ	ACCESS:    5115293	FORWARD:     492177	MERGED:      31354	TO_CACHE:    5083939
L1D PQ	ACCESS:    4474901	FORWARD:          0	MERGED:          0	TO_CACHE:    4470713

Revised Interactions: positive negative neutral
L1D_interactions 0 0 0 -nan -nan -nan
L1D UNIQUE REGIONS ACCESSED: 0
L1D REGIONS CONFLICTS: 0
L1D Cross Page Prefetch Requests: 0
L1D Same Page Prefetch Requests: 8783331
L1D ROI Sum of L1D PQ occupancy: 59700224
L1D PREFETCHES PUSHED FROM L2C: 0
L1I TOTAL     ACCESS:    9293575  HIT:    9293575  MISS:          0  HIT %:        100  MISS %:          0   MPKI: 0
L1I LOAD      ACCESS:    9293575  HIT:    9293575  MISS:          0  HIT %:        100  MISS %:          0   MPKI: 0
L1I PREFETCH  REQUESTED:          0  ISSUED:          0  USEFUL:          0  USELESS:          0
L1I USEFUL LOAD PREFETCHES:          0 PREFETCH ISSUED TO LOWER LEVEL:          0  ACCURACY: -nan
L1I TIMELY PREFETCHES:          0 LATE PREFETCHES: 0 DROPPED PREFETCHES: 0
L1I PREFETCHES SAME FILL-ORIGIN LEVEL: 0 DIFFERENT FILL-ORIGIN LEVEL: 0
L1I AVERAGE MISS LATENCY: -nan cycles
L1I RQ	ACCESS:   14375964	FORWARD:          0	MERGED:    5082389	TO_CACHE:    9293575

Revised Interactions: positive negative neutral
L1I_interactions 0 0 0 -nan -nan -nan
BTB TOTAL     ACCESS:   11925168  HIT:   11434425  MISS:     490743  HIT %:    95.8848  MISS %:    4.11519   MPKI: 9.81486
BTB BRANCH_DIRECT_JUMP	ACCESS:    1334802  HIT:    1334766  MISS:         36
BTB BRANCH_INDIRECT	ACCESS:          0  HIT:          0  MISS:          0
BTB BRANCH_CONDITIONAL	ACCESS:    8291483  HIT:    8291408  MISS:         75
BTB BRANCH_DIRECT_CALL	ACCESS:    1079832  HIT:    1079814  MISS:         18
BTB BRANCH_INDIRECT_CALL	ACCESS:      69608  HIT:      69600  MISS:          8
BTB BRANCH_RETURN	ACCESS:    1149443  HIT:     658837  MISS:     490606
BTB BRANCH_OTHER ACCESS:          0  HIT:          0  MISS:          0

L2C TOTAL     ACCESS:    5579103  HIT:    2275270  MISS:    3303833  HIT %:     40.782  MISS %:     59.218   MPKI: 66.0767
L2C LOAD      ACCESS:    1845598  HIT:     608474  MISS:    1237124  HIT %:    32.9689  MISS %:    67.0311   MPKI: 24.7425
L2C DATA LOAD MPKI: 24.7425
L2C INSTRUCTION LOAD MPKI: 0
L2C RFO       ACCESS:     175170  HIT:     155694  MISS:      19476  HIT %:    88.8817  MISS %:    11.1183   MPKI: 0.38952
L2C PREFETCH  ACCESS:    3271868  HIT:    1246115  MISS:    2025753  HIT %:    38.0857  MISS %:    61.9143   MPKI: 40.5151
L2C DATA PREFETCH MPKI: 40.5151
L2C INSTRUCTION PREFETCH MPKI: 0
L2C WRITEBACK ACCESS:     269691  HIT:     254514  MISS:      15177  HIT %:    94.3724  MISS %:    5.62755   MPKI: 0.30354
L2C LOAD TRANSLATION ACCESS:      16776  HIT:      10473  MISS:       6303  HIT %:    62.4285  MISS %:    37.5715   MPKI: 0.12606
L2C PREFETCH  REQUESTED:    1356295  ISSUED:    1356295  USEFUL:      86115  USELESS:    1939492
L2C USEFUL LOAD PREFETCHES:      86115 PREFETCH ISSUED TO LOWER LEVEL:    2031159  ACCURACY: 4.2397
L2C TIMELY PREFETCHES:      86115 LATE PREFETCHES: 5407 DROPPED PREFETCHES: 0
L2C PREFETCHES SAME FILL-ORIGIN LEVEL: 527529 DIFFERENT FILL-ORIGIN LEVEL: 0
L2C AVERAGE MISS LATENCY: 90.1938 cycles
L2C RQ	ACCESS:    2037550	FORWARD:          0	MERGED:          0	TO_CACHE:    2037544
L2C WQ	ACCESS:     269691	FORWARD:         10	MERGED:          0	TO_CACHE:     269691
L2C PQ	ACCESS:    4020576	FORWARD:          0	MERGED:     351315	TO_CACHE:    3669257

Revised Interactions: positive negative neutral
L2C_interactions 69630 1992996 710307 2.51106 71.8732 25.6157
L2C Instructions Evicting Data 0
L2C Translations Evicting Data 6272
L2C Data Evicting Data 3276140
L2C Instructions Evicting Instructions 0
L2C Translations Evicting Instructions 0
L2C Data Evicting Instructions 0
L2C Instructions Evicting Translations 0
L2C Translations Evicting Translations 31
L2C Data Evicting Translations 6213
L2C Dense regions hint from L2: 0
PSCL5 TOTAL     ACCESS:      16698  HIT:      16698  MISS:          0  HIT %:        100  MISS %:          0   MPKI: 0
PSCL5 LOAD TRANSLATION ACCESS:      16698  HIT:      16698  MISS:          0  HIT %:        100  MISS %:          0   MPKI: 0
PSCL5 PREFETCH  REQUESTED:          0  ISSUED:          0  USEFUL:          0  USELESS:          0
PSCL5 USEFUL LOAD PREFETCHES:          0 PREFETCH ISSUED TO LOWER LEVEL:          0  ACCURACY: -nan
PSCL5 TIMELY PREFETCHES:          0 LATE PREFETCHES: 0 DROPPED PREFETCHES: 0
PSCL5 PREFETCHES SAME FILL-ORIGIN LEVEL: 0 DIFFERENT FILL-ORIGIN LEVEL: 0

Revised Interactions: positive negative neutral
PSCL5_interactions 0 0 0 -nan -nan -nan
PSCL4 TOTAL     ACCESS:      16698  HIT:      16698  MISS:          0  HIT %:        100  MISS %:          0   MPKI: 0
PSCL4 LOAD TRANSLATION ACCESS:      16698  HIT:      16698  MISS:          0  HIT %:        100  MISS %:          0   MPKI: 0
PSCL4 PREFETCH  REQUESTED:          0  ISSUED:          0  USEFUL:          0  USELESS:          0
PSCL4 USEFUL LOAD PREFETCHES:          0 PREFETCH ISSUED TO LOWER LEVEL:          0  ACCURACY: -nan
PSCL4 TIMELY PREFETCHES:          0 LATE PREFETCHES: 0 DROPPED PREFETCHES: 0
PSCL4 PREFETCHES SAME FILL-ORIGIN LEVEL: 0 DIFFERENT FILL-ORIGIN LEVEL: 0

Revised Interactions: positive negative neutral
PSCL4_interactions 0 0 0 -nan -nan -nan
PSCL3 TOTAL     ACCESS:      16698  HIT:      16698  MISS:          0  HIT %:        100  MISS %:          0   MPKI: 0
PSCL3 LOAD TRANSLATION ACCESS:      16698  HIT:      16698  MISS:          0  HIT %:        100  MISS %:          0   MPKI: 0
PSCL3 PREFETCH  REQUESTED:          0  ISSUED:          0  USEFUL:          0  USELESS:          0
PSCL3 USEFUL LOAD PREFETCHES:          0 PREFETCH ISSUED TO LOWER LEVEL:          0  ACCURACY: -nan
PSCL3 TIMELY PREFETCHES:          0 LATE PREFETCHES: 0 DROPPED PREFETCHES: 0
PSCL3 PREFETCHES SAME FILL-ORIGIN LEVEL: 0 DIFFERENT FILL-ORIGIN LEVEL: 0

Revised Interactions: positive negative neutral
PSCL3_interactions 0 0 0 -nan -nan -nan
PSCL2 TOTAL     ACCESS:      16698  HIT:      16523  MISS:        175  HIT %:     98.952  MISS %:    1.04803   MPKI: 0.0035
PSCL2 LOAD TRANSLATION ACCESS:      16698  HIT:      16523  MISS:        175  HIT %:     98.952  MISS %:    1.04803   MPKI: 0.0035
PSCL2 PREFETCH  REQUESTED:          0  ISSUED:          0  USEFUL:          0  USELESS:          0
PSCL2 USEFUL LOAD PREFETCHES:          0 PREFETCH ISSUED TO LOWER LEVEL:          0  ACCURACY: -nan
PSCL2 TIMELY PREFETCHES:          0 LATE PREFETCHES: 0 DROPPED PREFETCHES: 0
PSCL2 PREFETCHES SAME FILL-ORIGIN LEVEL: 0 DIFFERENT FILL-ORIGIN LEVEL: 0

Revised Interactions: positive negative neutral
PSCL2_interactions 0 0 0 -nan -nan -nan
LLC TOTAL     ACCESS:    3365910  HIT:    2086438  MISS:    1279472  HIT %:    61.9873  MISS %:    38.0127   MPKI: 25.5894
LLC LOAD      ACCESS:    1231718  HIT:     991683  MISS:     240035  HIT %:    80.5122  MISS %:    19.4878   MPKI: 4.8007
LLC RFO       ACCESS:      19475  HIT:      18488  MISS:        987  HIT %:     94.932  MISS %:    5.06804   MPKI: 0.01974
LLC PREFETCH  ACCESS:    2031160  HIT:    1005574  MISS:    1025586  HIT %:    49.5074  MISS %:    50.4926   MPKI: 20.5117
LLC WRITEBACK ACCESS:      77254  HIT:      67478  MISS:       9776  HIT %:    87.3456  MISS %:    12.6544   MPKI: 0.19552
LLC LOAD TRANSLATION ACCESS:       6303  HIT:       3215  MISS:       3088  HIT %:    51.0075  MISS %:    48.9925   MPKI: 0.06176
LLC PREFETCH  REQUESTED:          0  ISSUED:          0  USEFUL:      35750  USELESS:     989529
LLC USEFUL LOAD PREFETCHES:      35750 PREFETCH ISSUED TO LOWER LEVEL:    1025586  ACCURACY: 3.48581
LLC TIMELY PREFETCHES:      35750 LATE PREFETCHES: 0 DROPPED PREFETCHES: 0
LLC PREFETCHES SAME FILL-ORIGIN LEVEL: 0 DIFFERENT FILL-ORIGIN LEVEL: 0
LLC AVERAGE MISS LATENCY: 155.349 cycles
LLC RQ	ACCESS:    1257496	FORWARD:          0	MERGED:          0	TO_CACHE:    1257496
LLC WQ	ACCESS:      77254	FORWARD:          0	MERGED:          0	TO_CACHE:      77254
LLC PQ	ACCESS:    2031159	FORWARD:          0	MERGED:          0	TO_CACHE:    2031159

Revised Interactions: positive negative neutral
LLC_interactions 11708 1019677 176374 0.969399 84.4272 14.6034
LLC Dense regions hint to LLC: 0

RAW hits: 639256
Loads Generated: 17731939
Loads sent to L1D: 17092679
Stores Generated: 5115295
Stores sent to L1D: 5115293
Major fault: 0 Minor fault: 24460
Allocated PAGES: 24460

stream: 
stream:times selected: 11910422
stream:pref_filled: 3364256
stream:pref_useful: 167301
stream:pref_late: 5243
stream:misses: 772405
stream:misses_by_poll: 0

CS: 
CS:times selected: 1947989
CS:pref_filled: 1386304
CS:pref_useful: 1111895
CS:pref_late: 309666
CS:misses: 453348
CS:misses_by_poll: 1258

CPLX: 
CPLX:times selected: 9875804
CPLX:pref_filled: 401661
CPLX:pref_useful: 44354
CPLX:pref_late: 1590
CPLX:misses: 2865663
CPLX:misses_by_poll: 774

NL_L1: 
NL:times selected: 74281
NL:pref_filled: 24954
NL:pref_useful: 1687
NL:pref_late: 224
NL:misses: 26655
NL:misses_by_poll: 1

total selections: 23808496
total_filled: 2664090
total_useful: 678656
total_late: 316727
total_polluted: 2033
total_misses_after_warmup: 2024479
conflicts: 83198
Degree Incremented Times: 97731
Degree Decremented Times: 319754

L1 IP Table Write Accesses: 12751298
L1 IP Table Read Accesses: 12668100
L1 RST Write Accesses: 5878285
L1 RST Read Accesses: 11756570
L1 CSPT Write Accesses: 5878285
L1 CSPT Read Accesses: 10815128
L1 RR Filter Tag Write Accesses: 4474941
L1 RR Filter Tag Read Accesses: 247596574
L1 IP Table Tag Write Accesses: 12956409
L1 IP Table Tag Read Accesses: 12956409
L1 RST Tag Write Accesses: 0
L1 RST Tag Read Accesses: 56048875
L1 RR Filter Write Accesses: 0
L1 RR Filter Read Accesses: 8931360
test: 5572682
L2 IP Table Read Accesses: 8413547
L2 IP Table Write Accesses: 6573348
L2 IP Table Tag Read Accesses: 4209708
L2 IP Table Tag Write Accesses: 4209708

DRAM Statistics
 CHANNEL 0
 RQ ROW_BUFFER_HIT:     460227  ROW_BUFFER_MISS:     809457
 DBUS_CONGESTED:        485
 WQ ROW_BUFFER_HIT:       2831  ROW_BUFFER_MISS:      13563  FULL:          0

 AVG_CONGESTED_CYCLE: 4
 All warmup complete: 2
Channel 0 Bank busy for read cycles: 0
Channel 0 Bank busy for write cycles: 0
Channel 0
Rank 0
0banks busy for read cycles: 129381458
0banks busy for write cycles: 12734
1banks busy for read cycles: 24277862
1banks busy for write cycles: 2566098
2banks busy for read cycles: 15146570
2banks busy for write cycles: 470251
3banks busy for read cycles: 8675609
3banks busy for write cycles: 104283
4banks busy for read cycles: 5698219
4banks busy for write cycles: 27675
5banks busy for read cycles: 3470044
5banks busy for write cycles: 6189
6banks busy for read cycles: 2027187
6banks busy for write cycles: 1616
7banks busy for read cycles: 1080195
7banks busy for write cycles: 427
8banks busy for read cycles: 496240
8banks busy for write cycles: 0

CPU 0 Branch Prediction Accuracy: 90.2682% MPKI: 24.3487 Average ROB Occupancy at Mispredict: 14.8928
Branch types
NOT_BRANCH: 37489794 74.9796%
BRANCH_DIRECT_JUMP: 1334802 2.6696%
BRANCH_INDIRECT: 0 0%
BRANCH_CONDITIONAL: 8876182 17.7524%
BRANCH_DIRECT_CALL: 1079832 2.15966%
BRANCH_INDIRECT_CALL: 69608 0.139216%
BRANCH_RETURN: 1149443 2.29889%
BRANCH_OTHER: 0 0%

@sumon_overall_L1D    678656    171065    171065   1985444   2664090   8945614   8945654
@Sumon_Early_by_class_L1D     84004    562743     31062       207
@Sumon_Late_by_class_L1D      2653    145784      1306       207

@Sumon_Early_by_cycle_L1D    141226    143671    194850     63696     13666     11821     15550     22445     24652     25912     14008      7159
@Sumon_Late_by_cycle_L1D     26205      9102     29152     29036     56358        97
@Sumon_Early_stream_L1D      6712      2204      1840      1252       856      4439      5804     10211     14291     19231     10980      6184
@Sumon_Early_CS_L1D    132311    138717    187333     58069     10151      5311      9028     10837      7969      2214       555       248
@Sumon_Early_CPLX_L1D      1992      2735      5652      4357      2639      1961       655      1315      2271      4353      2427       705
@Sumon_Late_stream_L1D       920       442       351       125       815         0
@Sumon_Late_CS_L1D     25044      8406     28691     28396     55150        97
@Sumon_Late_CPLX_L1D       227        64       109       515       391         0
@sumon_overall_L2C     86115      5407         0   1939492   2025753   1356295   1356295
@Sumon_Early_by_class_L2C     17949     63140      4724         0
@Sumon_Late_by_class_L2C         0      5145         0         0

@Sumon_Early_by_cycle_L2C      5784      5324      3847       982       244        88        18        75       684      2189      3447     63433
@Sumon_Late_by_cycle_L2C       252       384       950      2066      1747         8
@Sumon_Early_stream_L2C         0         0         0         0         0         0         5        47       564      1704      2005     13624
@Sumon_Early_CS_L2C      5742      5302      3842       982       244        81         3         8        14       213      1005     45704
@Sumon_Early_CPLX_L2C         0         0         0         0         0         0         1         6        95       241       412      3969
@Sumon_Late_stream_L2C         0         0         0         0         0         0
@Sumon_Late_CS_L2C         0       384       948      2066      1739         8
@Sumon_Late_CPLX_L2C         0         0         0         0         0         0
DRAM PAGES: 1048576
Allocated PAGES: 24460
