
*** ChampSim Multicore Out-of-Order Simulator ***

Warmup Instructions: 50000000
Simulation Instructions: 50000000
Number of CPUs: 1
LLC sets: 2048
LLC ways: 16
Off-chip DRAM Size: 4096 MB Channels: 1 Width: 64-bit Data Rate: 6400 MT/s
CPU 0 runs ../../biswa/SPEC2017Traces/605.mcf_s-484B.champsimtrace.xz
.xz
CPU 0 Bimodal branch predictor
BTB has LRU replacement policy
ITLB has LRU replacement policy
DTLB has LRU replacement policy
STLB has LRU replacement policy
L1I has LRU replacement policy
IP Table Entries: 256
L1D has LRU replacement policy
IP_Table L2 entries: 256
Initialize DRRIP state for L2C
Initialize Hawkeye state
epoch: 1000
next table: 1646
cur table: 4972
epoch: 1000
next table: 1569
cur table: 1646
epoch: 1000
next table: 1540
cur table: 1569
epoch: 1000
next table: 1526
cur table: 1540
epoch: 1000
next table: 1518
cur table: 1526
epoch: 1000
next table: 1540
cur table: 1518
epoch: 1000
next table: 1532
cur table: 1540
epoch: 1000
next table: 1587
cur table: 1532
epoch: 1000
next table: 1485
cur table: 1587
epoch: 1000
next table: 1512
cur table: 1485
epoch: 1000
next table: 1498
cur table: 1512
epoch: 1000
next table: 1530
cur table: 1498
epoch: 1000
next table: 1511
cur table: 1530
epoch: 1000
next table: 1517
cur table: 1511
epoch: 1000
next table: 1475
cur table: 1517
epoch: 1000
next table: 1540
cur table: 1475
epoch: 1000
next table: 1492
cur table: 1540
epoch: 1000
next table: 1485
cur table: 1492
epoch: 1000
next table: 1499
cur table: 1485
epoch: 1000
next table: 1499
cur table: 1499
epoch: 1000
next table: 1493
cur table: 1499
epoch: 1000
next table: 1534
cur table: 1493
epoch: 1000
next table: 1526
cur table: 1534
epoch: 1000
next table: 1456
cur table: 1526
epoch: 1000
next table: 1639
cur table: 15207
epoch: 1000
next table: 1516
cur table: 1456
epoch: 1000
next table: 1598
cur table: 1639
epoch: 1000
next table: 1464
cur table: 1516
epoch: 1000
next table: 1504
cur table: 1598
epoch: 1000
next table: 1481
cur table: 1464
epoch: 1000
next table: 1487
cur table: 1504
epoch: 1000
next table: 1533
cur table: 1481
epoch: 1000
next table: 1462
cur table: 1487
epoch: 1000
next table: 1498
cur table: 1533
epoch: 1000
next table: 1533
cur table: 1498
epoch: 1000
next table: 1455
cur table: 1462
epoch: 1000
next table: 1466
cur table: 1533
epoch: 1000
next table: 1441
cur table: 1455
epoch: 1000
next table: 1486
cur table: 1466
epoch: 1000
next table: 1455
cur table: 1441
epoch: 1000
next table: 1499
cur table: 1486
epoch: 1000
next table: 1461
cur table: 1455
epoch: 1000
next table: 1508
cur table: 1499
epoch: 1000
next table: 1449
cur table: 1461
epoch: 1000
next table: 1508
cur table: 1508
epoch: 1000
next table: 1453
cur table: 1449
epoch: 1000
next table: 1465
cur table: 1508
epoch: 1000
next table: 1439
cur table: 1453
epoch: 1000
next table: 1528
cur table: 1465
epoch: 1000
next table: 1437
cur table: 1439
epoch: 1000
next table: 1498
cur table: 1528
epoch: 1000
next table: 1456
cur table: 1437
epoch: 1000
next table: 1437
cur table: 1498
epoch: 1000
next table: 1433
cur table: 1456
epoch: 1000
next table: 1505
cur table: 1437
epoch: 1000
next table: 1458
cur table: 1433
epoch: 1000
next table: 1530
cur table: 1505
epoch: 1000
next table: 1471
cur table: 1458
epoch: 1000
next table: 1526
cur table: 1530
epoch: 1000
next table: 1506
cur table: 1471
epoch: 1000
next table: 1499
cur table: 1526
epoch: 1000
next table: 1460
cur table: 1506
epoch: 1000
next table: 1478
cur table: 1499
epoch: 1000
next table: 1456
cur table: 1460
epoch: 1000
next table: 1495
cur table: 1478
epoch: 1000
next table: 1464
cur table: 1456
epoch: 1000
next table: 1504
cur table: 1495
epoch: 1000
next table: 1449
cur table: 1464
epoch: 1000
next table: 1574
cur table: 1504
epoch: 1000
next table: 1449
cur table: 1449
epoch: 1000
next table: 1471
cur table: 1574
epoch: 1000
next table: 1416
cur table: 1449
epoch: 1000
next table: 1463
cur table: 1471
epoch: 1000
next table: 1466
cur table: 1416
epoch: 1000
next table: 1510
cur table: 1463
epoch: 1000
next table: 1463
cur table: 1466
epoch: 1000
next table: 1536
cur table: 1510
epoch: 1000
next table: 1469
cur table: 1463
epoch: 1000
next table: 1487
cur table: 1536
epoch: 1000
next table: 1421
cur table: 1469
epoch: 1000
next table: 1470
cur table: 1487
epoch: 1000
next table: 1426
cur table: 1421
epoch: 1000
next table: 1449
cur table: 1470
epoch: 1000
next table: 1443
cur table: 1426
epoch: 1000
next table: 1524
cur table: 1449
epoch: 1000
next table: 1434
cur table: 1443
epoch: 1000
next table: 1488
cur table: 1524
epoch: 1000
next table: 1394
cur table: 1434
epoch: 1000
next table: 1468
cur table: 1488
epoch: 1000
next table: 1406
cur table: 1394
epoch: 1000
next table: 1430
cur table: 1468
epoch: 1000
next table: 1416
cur table: 1406
epoch: 1000
next table: 1457
cur table: 1430
epoch: 1000
next table: 1445
cur table: 1416
epoch: 1000
next table: 1544
cur table: 1457
epoch: 1000
next table: 1435
cur table: 1445
epoch: 1000
next table: 1511
cur table: 1544
epoch: 1000
next table: 1472
cur table: 1435
epoch: 1000
next table: 1512
cur table: 1511
epoch: 1000
next table: 1486
cur table: 1472
epoch: 1000
next table: 1529
cur table: 1512
epoch: 1000
next table: 1484
cur table: 1486
epoch: 1000
next table: 1560
cur table: 1529
epoch: 1000
next table: 1403
cur table: 1484
epoch: 1000
next table: 1476
cur table: 1560
epoch: 1000
next table: 1417
cur table: 1403
epoch: 1000
next table: 1470
cur table: 1476
epoch: 1000
next table: 1415
cur table: 1417
epoch: 1000
next table: 1445
cur table: 1470
epoch: 1000
next table: 1433
cur table: 1415
epoch: 1000
next table: 1539
cur table: 1445
epoch: 1000
next table: 1433
cur table: 1433
epoch: 1000
next table: 1487
cur table: 1539
epoch: 1000
next table: 1422
cur table: 1433
epoch: 1000
next table: 1458
cur table: 1487
epoch: 1000
next table: 1427
cur table: 1422
epoch: 1000
next table: 1501
cur table: 1458
epoch: 1000
next table: 1425
cur table: 1427
epoch: 1000
next table: 1483
cur table: 1501
epoch: 1000
next table: 1426
cur table: 1425
epoch: 1000
next table: 1459
cur table: 1483
epoch: 1000
next table: 1503
cur table: 1459
epoch: 1000
next table: 1429
cur table: 1426
epoch: 1000
next table: 1469
cur table: 1503
epoch: 1000
next table: 1422
cur table: 1429
epoch: 1000
next table: 1513
cur table: 1469
epoch: 1000
next table: 1439
cur table: 1422
epoch: 1000
next table: 1507
cur table: 1513
epoch: 1000
next table: 1449
cur table: 1439
epoch: 1000
next table: 1531
cur table: 1507
epoch: 1000
next table: 1444
cur table: 1449
epoch: 1000
next table: 1459
cur table: 1531
epoch: 1000
next table: 1418
cur table: 1444
epoch: 1000
next table: 1472
cur table: 1459
epoch: 1000
next table: 1415
cur table: 1418
epoch: 1000
next table: 1467
cur table: 1472
epoch: 1000
next table: 1412
cur table: 1415
epoch: 1000
next table: 1501
cur table: 1467
epoch: 1000
next table: 1420
cur table: 1412
epoch: 1000
next table: 1466
cur table: 1501
epoch: 1000
next table: 1408
cur table: 1420
epoch: 1000
next table: 1473
cur table: 1466
epoch: 1000
next table: 1403
cur table: 1408
epoch: 1000
next table: 1533
cur table: 1473
epoch: 1000
next table: 1439
cur table: 1403
epoch: 1000
next table: 1474
cur table: 1533
epoch: 1000
next table: 1422
cur table: 1439
epoch: 1000
next table: 1477
cur table: 1474
epoch: 1000
next table: 1433
cur table: 1422
epoch: 1000
next table: 1459
cur table: 1477
epoch: 1000
next table: 1427
cur table: 1433
epoch: 1000
next table: 1500
cur table: 1459
epoch: 1000
next table: 1415
cur table: 1427
epoch: 1000
next table: 1503
cur table: 1500
epoch: 1000
next table: 1447
cur table: 1415
epoch: 1000
next table: 1475
cur table: 1503
epoch: 1000
next table: 1448
cur table: 1447
epoch: 1000
next table: 1515
cur table: 1475
epoch: 1000
next table: 1443
cur table: 1448
epoch: 1000
next table: 1495
cur table: 1515
epoch: 1000
next table: 1447
cur table: 1443
epoch: 1000
next table: 1484
cur table: 1495
epoch: 1000
next table: 1451
cur table: 1447
epoch: 1000
next table: 1499
cur table: 1484
epoch: 1000
next table: 1450
cur table: 1451
epoch: 1000
next table: 1491
cur table: 1499
epoch: 1000
next table: 1454
cur table: 1450
epoch: 1000
next table: 1495
cur table: 1491
epoch: 1000
next table: 1469
cur table: 1454
epoch: 1000
next table: 1559
cur table: 1495
epoch: 1000
next table: 1467
cur table: 1469
epoch: 1000
next table: 1462
cur table: 1559
epoch: 1000
next table: 1426
cur table: 1467
epoch: 1000
next table: 1502
cur table: 1462
epoch: 1000
next table: 1437
cur table: 1426
epoch: 1000
next table: 1505
cur table: 1502
epoch: 1000
next table: 1440
cur table: 1437
epoch: 1000
next table: 1464
cur table: 1505
epoch: 1000
next table: 1438
cur table: 1440
epoch: 1000
next table: 1519
cur table: 1464
epoch: 1000
next table: 1441
cur table: 1438
epoch: 1000
next table: 1528
cur table: 1519
epoch: 1000
next table: 1467
cur table: 1441
epoch: 1000
next table: 1522
cur table: 1528
epoch: 1000
next table: 1434
cur table: 1467
epoch: 1000
next table: 1527
cur table: 1522
epoch: 1000
next table: 1460
cur table: 1434
epoch: 1000
next table: 1544
cur table: 1527
epoch: 1000
next table: 1463
cur table: 1460
epoch: 1000
next table: 1504
cur table: 1544
epoch: 1000
next table: 1439
cur table: 1463
epoch: 1000
next table: 1488
cur table: 1504
epoch: 1000
next table: 1461
cur table: 1439
epoch: 1000
next table: 1515
cur table: 1488
epoch: 1000
next table: 1441
cur table: 1461
epoch: 1000
next table: 1543
cur table: 1515
epoch: 1000
next table: 1462
cur table: 1441
epoch: 1000
next table: 1502
cur table: 1543
epoch: 1000
next table: 1454
cur table: 1462
epoch: 1000
next table: 1504
cur table: 1502
epoch: 1000
next table: 1420
cur table: 1454
epoch: 1000
next table: 1464
cur table: 1504
epoch: 1000
next table: 1450
cur table: 1420
epoch: 1000
next table: 1436
cur table: 1464
epoch: 1000
next table: 1400
cur table: 1450
epoch: 1000
next table: 1452
cur table: 1436
epoch: 1000
next table: 1338
cur table: 1400
epoch: 1000
next table: 1333
cur table: 1452
epoch: 1000
next table: 1316
cur table: 1338
epoch: 1000
next table: 1313
cur table: 1333
epoch: 1000
next table: 1250
cur table: 1316
epoch: 1000
next table: 1266
cur table: 1313
epoch: 1000
next table: 1231
cur table: 1250
epoch: 1000
next table: 1243
cur table: 1266
epoch: 1000
next table: 1204
cur table: 1231
epoch: 1000
next table: 1278
cur table: 1243
epoch: 1000
next table: 1268
cur table: 1204
epoch: 1000
next table: 1270
cur table: 1278
epoch: 1000
next table: 1224
cur table: 1268
epoch: 1000
next table: 1276
cur table: 1270
epoch: 1000
next table: 1240
cur table: 1224
epoch: 1000
next table: 1247
cur table: 1276
epoch: 1000
next table: 1215
cur table: 1240
epoch: 1000
next table: 1259
cur table: 1247
epoch: 1000
next table: 1249
cur table: 1215
epoch: 1000
next table: 1280
cur table: 1259
epoch: 1000
next table: 1225
cur table: 1249
epoch: 1000
next table: 1272
cur table: 1280
epoch: 1000
next table: 1214
cur table: 1225
epoch: 1000
next table: 1303
cur table: 1272
epoch: 1000
next table: 1239
cur table: 1214
epoch: 1000
next table: 1260
cur table: 1303
epoch: 1000
next table: 1237
cur table: 1239
epoch: 1000
next table: 1251
cur table: 1260
epoch: 1000
next table: 1200
cur table: 1237
epoch: 1000
next table: 1255
cur table: 1251
epoch: 1000
next table: 1217
cur table: 1200
epoch: 1000
next table: 1278
cur table: 1255
epoch: 1000
next table: 1175
cur table: 1217
epoch: 1000
next table: 1229
cur table: 1278
epoch: 1000
next table: 1189
cur table: 1175
epoch: 1000
next table: 1249
cur table: 1229
epoch: 1000
next table: 1224
cur table: 1189
epoch: 1000
next table: 1217
cur table: 1249
epoch: 1000
next table: 1173
cur table: 1224
epoch: 1000
next table: 1264
cur table: 1217
epoch: 1000
next table: 1181
cur table: 1173
epoch: 1000
next table: 1242
cur table: 1264
epoch: 1000
next table: 1191
cur table: 1181
epoch: 1000
next table: 1247
cur table: 1242
epoch: 1000
next table: 1191
cur table: 1191
epoch: 1000
next table: 1276
cur table: 1247
epoch: 1000
next table: 1220
cur table: 1191
epoch: 1000
next table: 1264
cur table: 1276
epoch: 1000
next table: 1200
cur table: 1220
epoch: 1000
next table: 1285
cur table: 1264
epoch: 1000
next table: 1212
cur table: 1200
epoch: 1000
next table: 1258
cur table: 1285
epoch: 1000
next table: 1190
cur table: 1212
epoch: 1000
next table: 1212
cur table: 1258
epoch: 1000
next table: 1194
cur table: 1190
epoch: 1000
next table: 1249
cur table: 1212
epoch: 1000
next table: 1184
cur table: 1194
epoch: 1000
next table: 1242
cur table: 1249
epoch: 1000
next table: 1185
cur table: 1184
epoch: 1000
next table: 1241
cur table: 1242
epoch: 1000
next table: 1216
cur table: 1185
epoch: 1000
next table: 1266
cur table: 1241
epoch: 1000
next table: 1179
cur table: 1216
epoch: 1000
next table: 1203
cur table: 1266
epoch: 1000
next table: 1183
cur table: 1179
epoch: 1000
next table: 1274
cur table: 1203
epoch: 1000
next table: 1200
cur table: 1183
epoch: 1000
next table: 1252
cur table: 1274
epoch: 1000
next table: 1189
cur table: 1200
epoch: 1000
next table: 1266
cur table: 1252
epoch: 1000
next table: 1189
cur table: 1189
epoch: 1000
next table: 1199
cur table: 1266
epoch: 1000
next table: 1172
cur table: 1189
epoch: 1000
next table: 1251
cur table: 1199
epoch: 1000
next table: 1185
cur table: 1172
epoch: 1000
next table: 1201
cur table: 1251
epoch: 1000
next table: 1191
cur table: 1185
epoch: 1000
next table: 1283
cur table: 1201
epoch: 1000
next table: 1227
cur table: 1191
epoch: 1000
next table: 1256
cur table: 1283
epoch: 1000
next table: 1201
cur table: 1227
epoch: 1000
next table: 1280
cur table: 1256
epoch: 1000
next table: 1223
cur table: 1201
epoch: 1000
next table: 1250
cur table: 1280
epoch: 1000
next table: 1205
cur table: 1223
epoch: 1000
next table: 1236
cur table: 1250
epoch: 1000
next table: 1212
cur table: 1205
epoch: 1000
next table: 1213
cur table: 1236
epoch: 1000
next table: 1194
cur table: 1212
epoch: 1000
next table: 1267
cur table: 1213
epoch: 1000
next table: 1217
cur table: 1194
epoch: 1000
next table: 1219
cur table: 1267
epoch: 1000
next table: 1198
cur table: 1217
epoch: 1000
next table: 1281
cur table: 1219
epoch: 1000
next table: 1221
cur table: 1198
epoch: 1000
next table: 1232
cur table: 1281
epoch: 1000
next table: 1215
cur table: 1221
epoch: 1000
next table: 1272
cur table: 1232
epoch: 1000
next table: 1185
cur table: 1215
epoch: 1000
next table: 1216
cur table: 1272
epoch: 1000
next table: 1212
cur table: 1185
epoch: 1000
next table: 1295
cur table: 1216
epoch: 1000
next table: 1221
cur table: 1212
epoch: 1000
next table: 1245
cur table: 1295
epoch: 1000
next table: 1194
cur table: 1221
epoch: 1000
next table: 1259
cur table: 1245
epoch: 1000
next table: 1204
cur table: 1194
epoch: 1000
next table: 1289
cur table: 1259
epoch: 1000
next table: 1208
cur table: 1204
epoch: 1000
next table: 1250
cur table: 1289
epoch: 1000
next table: 1193
cur table: 1208
epoch: 1000
next table: 1212
cur table: 1250
epoch: 1000
next table: 1196
cur table: 1193
epoch: 1000
next table: 1274
cur table: 1212
epoch: 1000
next table: 1174
cur table: 1196
epoch: 1000
next table: 1241
cur table: 1274
epoch: 1000
next table: 1195
cur table: 1174
epoch: 1000
next table: 1220
cur table: 1241
epoch: 1000
next table: 1195
cur table: 1195
epoch: 1000
next table: 1264
cur table: 1220
epoch: 1000
next table: 1198
cur table: 1195
epoch: 1000
next table: 1269
cur table: 1264
epoch: 1000
next table: 1198
cur table: 1198
epoch: 1000
next table: 1257
cur table: 1269
epoch: 1000
next table: 1186
cur table: 1198
epoch: 1000
next table: 1191
cur table: 1257
epoch: 1000
next table: 1200
cur table: 1186
epoch: 1000
next table: 1263
cur table: 1191
epoch: 1000
next table: 1191
cur table: 1200
epoch: 1000
next table: 1292
cur table: 1263
epoch: 1000
next table: 1208
cur table: 1191
epoch: 1000
next table: 1275
cur table: 1292
epoch: 1000
next table: 1202
cur table: 1208
epoch: 1000
next table: 1251
cur table: 1275
epoch: 1000
next table: 1187
cur table: 1202
epoch: 1000
next table: 1185
cur table: 1251
epoch: 1000
next table: 1202
cur table: 1187
epoch: 1000
next table: 1274
cur table: 1185
epoch: 1000
next table: 1179
cur table: 1202
epoch: 1000
next table: 1239
cur table: 1274
epoch: 1000
next table: 1152
cur table: 1179
epoch: 1000
next table: 1183
cur table: 1239
epoch: 1000
next table: 1205
cur table: 1152
epoch: 1000
next table: 1205
cur table: 1183
epoch: 1000
next table: 1163
cur table: 1205
epoch: 1000
next table: 1171
cur table: 1205
epoch: 1000
next table: 1164
cur table: 1163
epoch: 1000
next table: 1193
cur table: 1171
epoch: 1000
next table: 1162
cur table: 1164
epoch: 1000
next table: 1172
cur table: 1193
epoch: 1000
next table: 1150
cur table: 1162
epoch: 1000
next table: 1168
cur table: 1172
epoch: 1000
next table: 1191
cur table: 1150
epoch: 1000
next table: 1210
cur table: 1168
epoch: 1000
next table: 1152
cur table: 1191
epoch: 1000
next table: 1180
cur table: 1210
epoch: 1000
next table: 1342
cur table: 1152
epoch: 1000
next table: 1413
cur table: 1180
epoch: 1000
next table: 1389
cur table: 1342
epoch: 1000
next table: 1403
cur table: 1413
epoch: 1000
next table: 1422
cur table: 1389
epoch: 1000
next table: 1443
cur table: 1403
epoch: 1000
next table: 1461
cur table: 1422
epoch: 1000
next table: 1489
cur table: 1443
epoch: 1000
next table: 1480
cur table: 1461
epoch: 1000
next table: 1487
cur table: 1489
epoch: 1000
next table: 1546
cur table: 1487
epoch: 1000
next table: 1512
cur table: 1480
epoch: 1000
next table: 1472
cur table: 1546
epoch: 1000
next table: 1498
cur table: 1512
epoch: 1000
next table: 1479
cur table: 1472
epoch: 1000
next table: 1501
cur table: 1498
epoch: 1000
next table: 1475
cur table: 1479
epoch: 1000
next table: 1541
cur table: 1501
epoch: 1000
next table: 1474
cur table: 1475
epoch: 1000
next table: 1602
cur table: 1541
epoch: 1000
next table: 1501
cur table: 1474
epoch: 1000
next table: 1503
cur table: 1501
epoch: 1000
next table: 1702
cur table: 1602
epoch: 1000
next table: 1511
cur table: 1503
epoch: 1000
next table: 1569
cur table: 1511
epoch: 1000
next table: 1835
cur table: 1702
epoch: 1000
next table: 1515
cur table: 1569
epoch: 1000
next table: 1488
cur table: 1515
epoch: 1000
next table: 1944
cur table: 1835
epoch: 1000
next table: 1513
cur table: 1488
epoch: 1000
next table: 1533
cur table: 1513
epoch: 1000
next table: 1997
cur table: 1944
epoch: 1000
next table: 1549
cur table: 1533
epoch: 1000
next table: 1544
cur table: 1997
epoch: 1000
next table: 1493
cur table: 1549
epoch: 1000
next table: 1556
cur table: 1544
epoch: 1000
next table: 1477
cur table: 1493
epoch: 1000
next table: 1474
cur table: 1477
epoch: 1000
next table: 1644
cur table: 1556
epoch: 1000
next table: 1502
cur table: 1474
epoch: 1000
next table: 1468
cur table: 1502
epoch: 1000
next table: 1687
cur table: 1644
epoch: 1000
next table: 1445
cur table: 1468
epoch: 1000
next table: 1626
cur table: 1687
epoch: 1000
next table: 1521
cur table: 1445
epoch: 1000
next table: 1628
cur table: 1626
epoch: 1000
next table: 1489
cur table: 1521
epoch: 1000
next table: 1471
cur table: 1489
epoch: 1000
next table: 1642
cur table: 1628
epoch: 1000
next table: 1582
cur table: 1471
epoch: 1000
next table: 1644
cur table: 1642
epoch: 1000
next table: 1473
cur table: 1582
epoch: 1000
next table: 1506
cur table: 1473
epoch: 1000
next table: 1606
cur table: 1644
epoch: 1000
next table: 1485
cur table: 1506
epoch: 1000
next table: 1564
cur table: 1606
epoch: 1000
next table: 1478
cur table: 1485
epoch: 1000
next table: 1523
cur table: 1564
epoch: 1000
next table: 1498
cur table: 1478
epoch: 1000
next table: 1535
cur table: 1523
epoch: 1000
next table: 1565
cur table: 1498
epoch: 1000
next table: 1523
cur table: 1535
epoch: 1000
next table: 1498
cur table: 1565
epoch: 1000
next table: 1455
cur table: 1523
epoch: 1000
next table: 1479
cur table: 1498
epoch: 1000
next table: 1480
cur table: 1455
epoch: 1000
next table: 1475
cur table: 1479
epoch: 1000
next table: 1530
cur table: 1475
epoch: 1000
next table: 1485
cur table: 1480
epoch: 1000
next table: 1497
cur table: 1530
epoch: 1000
next table: 1469
cur table: 1485
epoch: 1000
next table: 1503
cur table: 1497
epoch: 1000
next table: 1469
cur table: 1469
Heartbeat CPU 0 instructions: 10000001 cycles: 3160995 heartbeat IPC: 3.16356 cumulative IPC: 3.16356 (Simulation time: 0 hr 8 min 56 sec) 
epoch: 1000
next table: 1502
cur table: 1503
epoch: 1000
next table: 1460
cur table: 1469
epoch: 1000
next table: 1498
cur table: 1502
epoch: 1000
next table: 1459
cur table: 1460
epoch: 1000
next table: 1486
cur table: 1498
epoch: 1000
next table: 1470
cur table: 1459
epoch: 1000
next table: 1483
cur table: 1486
epoch: 1000
next table: 1465
cur table: 1470
epoch: 1000
next table: 1519
cur table: 1483
epoch: 1000
next table: 1481
cur table: 1465
epoch: 1000
next table: 1469
cur table: 1519
epoch: 1000
next table: 1479
cur table: 1481
epoch: 1000
next table: 1528
cur table: 1469
epoch: 1000
next table: 1458
cur table: 1479
epoch: 1000
next table: 1499
cur table: 1528
epoch: 1000
next table: 1458
cur table: 1458
epoch: 1000
next table: 1465
cur table: 1499
epoch: 1000
next table: 1461
cur table: 1458
epoch: 1000
next table: 1519
cur table: 1465
epoch: 1000
next table: 1449
cur table: 1461
epoch: 1000
next table: 1476
cur table: 1519
epoch: 1000
next table: 1437
cur table: 1449
epoch: 1000
next table: 1505
cur table: 1476
epoch: 1000
next table: 1432
cur table: 1437
epoch: 1000
next table: 1462
cur table: 1505
epoch: 1000
next table: 1423
cur table: 1432
epoch: 1000
next table: 1468
cur table: 1462
epoch: 1000
next table: 1424
cur table: 1423
epoch: 1000
next table: 1477
cur table: 1468
epoch: 1000
next table: 1434
cur table: 1424
epoch: 1000
next table: 1503
cur table: 1477
epoch: 1000
next table: 1433
cur table: 1434
epoch: 1000
next table: 1470
cur table: 1503
epoch: 1000
next table: 1441
cur table: 1433
epoch: 1000
next table: 1497
cur table: 1470
epoch: 1000
next table: 1500
cur table: 1441
epoch: 1000
next table: 1583
cur table: 1497
epoch: 1000
next table: 1427
cur table: 1500
epoch: 1000
next table: 1481
cur table: 1583
epoch: 1000
next table: 1419
cur table: 1427
epoch: 1000
next table: 1461
cur table: 1481
epoch: 1000
next table: 1417
cur table: 1419
epoch: 1000
next table: 1454
cur table: 1461
epoch: 1000
next table: 1420
cur table: 1417
epoch: 1000
next table: 1522
cur table: 1454
epoch: 1000
next table: 1434
cur table: 1420
epoch: 1000
next table: 1479
cur table: 1522
epoch: 1000
next table: 1413
cur table: 1434
epoch: 1000
next table: 1490
cur table: 1479
epoch: 1000
next table: 1425
cur table: 1413
epoch: 1000
next table: 1484
cur table: 1490
epoch: 1000
next table: 1427
cur table: 1425
epoch: 1000
next table: 1526
cur table: 1484
epoch: 1000
next table: 1414
cur table: 1427
epoch: 1000
next table: 1454
cur table: 1526
epoch: 1000
next table: 1456
cur table: 1414
epoch: 1000
next table: 1486
cur table: 1454
epoch: 1000
next table: 1455
cur table: 1456
epoch: 1000
next table: 1502
cur table: 1486
epoch: 1000
next table: 1500
cur table: 1455
epoch: 1000
next table: 1532
cur table: 1502
epoch: 1000
next table: 1516
cur table: 1532
epoch: 1000
next table: 1476
cur table: 1500
epoch: 1000
next table: 1506
cur table: 1516
epoch: 1000
next table: 1469
cur table: 1476
epoch: 1000
next table: 1542
cur table: 1506
epoch: 1000
next table: 1494
cur table: 1469
epoch: 1000
next table: 1483
cur table: 1542
epoch: 1000
next table: 1446
cur table: 1494
epoch: 1000
next table: 1567
cur table: 1483
epoch: 1000
next table: 1470
cur table: 1446
epoch: 1000
next table: 1483
cur table: 1567
epoch: 1000
next table: 1464
cur table: 1470
epoch: 1000
next table: 1528
cur table: 1483
epoch: 1000
next table: 1483
cur table: 1464
epoch: 1000
next table: 1515
cur table: 1528
epoch: 1000
next table: 1462
cur table: 1483
epoch: 1000
next table: 1528
cur table: 1515
epoch: 1000
next table: 1480
cur table: 1462
epoch: 1000
next table: 1510
cur table: 1528
epoch: 1000
next table: 1487
cur table: 1480
epoch: 1000
next table: 1536
cur table: 1510
epoch: 1000
next table: 1472
cur table: 1487
epoch: 1000
next table: 1515
cur table: 1536
epoch: 1000
next table: 1487
cur table: 1472
epoch: 1000
next table: 1522
cur table: 1515
epoch: 1000
next table: 1464
cur table: 1487
epoch: 1000
next table: 1516
cur table: 1522
epoch: 1000
next table: 1486
cur table: 1464
epoch: 1000
next table: 1510
cur table: 1516
epoch: 1000
next table: 1477
cur table: 1486
epoch: 1000
next table: 1532
cur table: 1510
epoch: 1000
next table: 1469
cur table: 1477
epoch: 1000
next table: 1551
cur table: 1532
epoch: 1000
next table: 1474
cur table: 1469
epoch: 1000
next table: 1511
cur table: 1551
epoch: 1000
next table: 1465
cur table: 1474
epoch: 1000
next table: 1535
cur table: 1511
epoch: 1000
next table: 1479
cur table: 1465
epoch: 1000
next table: 1490
cur table: 1535
epoch: 1000
next table: 1465
cur table: 1479
epoch: 1000
next table: 1534
cur table: 1490
epoch: 1000
next table: 1498
cur table: 1465
epoch: 1000
next table: 1528
cur table: 1534
epoch: 1000
next table: 1473
cur table: 1498
epoch: 1000
next table: 1511
cur table: 1528
epoch: 1000
next table: 1477
cur table: 1473
epoch: 1000
next table: 1545
cur table: 1511
epoch: 1000
next table: 1475
cur table: 1477
epoch: 1000
next table: 1527
cur table: 1545
epoch: 1000
next table: 1466
cur table: 1475
epoch: 1000
next table: 1533
cur table: 1527
epoch: 1000
next table: 1512
cur table: 1466
epoch: 1000
next table: 1522
cur table: 1533
epoch: 1000
next table: 1467
cur table: 1512
epoch: 1000
next table: 1491
cur table: 1522
epoch: 1000
next table: 1449
cur table: 1467
epoch: 1000
next table: 1487
cur table: 1491
epoch: 1000
next table: 1454
cur table: 1449
epoch: 1000
next table: 1482
cur table: 1487
epoch: 1000
next table: 1428
cur table: 1454
epoch: 1000
next table: 1375
cur table: 1482
epoch: 1000
next table: 1334
cur table: 1428
epoch: 1000
next table: 1316
cur table: 1375
epoch: 1000
next table: 1299
cur table: 1334
epoch: 1000
next table: 1289
cur table: 1316
epoch: 1000
next table: 1241
cur table: 1299
epoch: 1000
next table: 1262
cur table: 1289
epoch: 1000
next table: 1251
cur table: 1241
epoch: 1000
next table: 1269
cur table: 1262
epoch: 1000
next table: 1222
cur table: 1251
epoch: 1000
next table: 1227
cur table: 1269
epoch: 1000
next table: 1233
cur table: 1222
epoch: 1000
next table: 1265
cur table: 1227
epoch: 1000
next table: 1268
cur table: 1233
epoch: 1000
next table: 1299
cur table: 1265
epoch: 1000
next table: 1229
cur table: 1268
epoch: 1000
next table: 1238
cur table: 1299
epoch: 1000
next table: 1202
cur table: 1229
epoch: 1000
next table: 1236
cur table: 1238
epoch: 1000
next table: 1222
cur table: 1202
epoch: 1000
next table: 1244
cur table: 1236
epoch: 1000
next table: 1213
cur table: 1222
epoch: 1000
next table: 1252
cur table: 1244
epoch: 1000
next table: 1215
cur table: 1213
epoch: 1000
next table: 1230
cur table: 1252
epoch: 1000
next table: 1215
cur table: 1215
epoch: 1000
next table: 1247
cur table: 1230
epoch: 1000
next table: 1213
cur table: 1215
epoch: 1000
next table: 1250
cur table: 1247
epoch: 1000
next table: 1240
cur table: 1213
epoch: 1000
next table: 1301
cur table: 1250
epoch: 1000
next table: 1257
cur table: 1240
epoch: 1000
next table: 1262
cur table: 1301
epoch: 1000
next table: 1227
cur table: 1257
epoch: 1000
next table: 1234
cur table: 1262
epoch: 1000
next table: 1193
cur table: 1227
epoch: 1000
next table: 1294
cur table: 1234
epoch: 1000
next table: 1224
cur table: 1193
epoch: 1000
next table: 1185
cur table: 1294
epoch: 1000
next table: 1187
cur table: 1224
epoch: 1000
next table: 1259
cur table: 1185
epoch: 1000
next table: 1203
cur table: 1187
epoch: 1000
next table: 1228
cur table: 1259
epoch: 1000
next table: 1175
cur table: 1203
epoch: 1000
next table: 1264
cur table: 1228
epoch: 1000
next table: 1197
cur table: 1175
epoch: 1000
next table: 1274
cur table: 1264
epoch: 1000
next table: 1216
cur table: 1197
epoch: 1000
next table: 1247
cur table: 1274
epoch: 1000
next table: 1177
cur table: 1216
epoch: 1000
next table: 1260
cur table: 1247
epoch: 1000
next table: 1217
cur table: 1177
epoch: 1000
next table: 1261
cur table: 1260
epoch: 1000
next table: 1208
cur table: 1217
epoch: 1000
next table: 1235
cur table: 1261
epoch: 1000
next table: 1212
cur table: 1208
epoch: 1000
next table: 1275
cur table: 1235
epoch: 1000
next table: 1179
cur table: 1212
epoch: 1000
next table: 1240
cur table: 1275
epoch: 1000
next table: 1193
cur table: 1179
epoch: 1000
next table: 1245
cur table: 1240
epoch: 1000
next table: 1208
cur table: 1193
epoch: 1000
next table: 1262
cur table: 1245
epoch: 1000
next table: 1193
cur table: 1208
epoch: 1000
next table: 1256
cur table: 1262
epoch: 1000
next table: 1205
cur table: 1193
epoch: 1000
next table: 1227
cur table: 1256
epoch: 1000
next table: 1193
cur table: 1205
epoch: 1000
next table: 1264
cur table: 1227
epoch: 1000
next table: 1187
cur table: 1193
epoch: 1000
next table: 1257
cur table: 1264
epoch: 1000
next table: 1264
cur table: 1187
epoch: 1000
next table: 1290
cur table: 1257
epoch: 1000
next table: 1225
cur table: 1264
epoch: 1000
next table: 1247
cur table: 1290
epoch: 1000
next table: 1186
cur table: 1225
epoch: 1000
next table: 1249
cur table: 1247
epoch: 1000
next table: 1194
cur table: 1186
epoch: 1000
next table: 1250
cur table: 1249
epoch: 1000
next table: 1212
cur table: 1194
epoch: 1000
next table: 1284
cur table: 1250
epoch: 1000
next table: 1214
cur table: 1212
epoch: 1000
next table: 1240
cur table: 1284
epoch: 1000
next table: 1246
cur table: 1214
epoch: 1000
next table: 1269
cur table: 1240
epoch: 1000
next table: 1204
cur table: 1246
epoch: 1000
next table: 1236
cur table: 1269
epoch: 1000
next table: 1227
cur table: 1204
epoch: 1000
next table: 1271
cur table: 1236
epoch: 1000
next table: 1204
cur table: 1227
epoch: 1000
next table: 1254
cur table: 1271
epoch: 1000
next table: 1221
cur table: 1204
epoch: 1000
next table: 1263
cur table: 1254
epoch: 1000
next table: 1186
cur table: 1221
epoch: 1000
next table: 1233
cur table: 1263
epoch: 1000
next table: 1226
cur table: 1186
epoch: 1000
next table: 1251
cur table: 1233
epoch: 1000
next table: 1198
cur table: 1226
epoch: 1000
next table: 1250
cur table: 1251
epoch: 1000
next table: 1200
cur table: 1198
epoch: 1000
next table: 1233
cur table: 1250
epoch: 1000
next table: 1190
cur table: 1200
epoch: 1000
next table: 1241
cur table: 1233
epoch: 1000
next table: 1192
cur table: 1190
epoch: 1000
next table: 1205
cur table: 1241
epoch: 1000
next table: 1196
cur table: 1192
epoch: 1000
next table: 1290
cur table: 1205
epoch: 1000
next table: 1213
cur table: 1196
epoch: 1000
next table: 1285
cur table: 1290
epoch: 1000
next table: 1190
cur table: 1213
epoch: 1000
next table: 1235
cur table: 1285
epoch: 1000
next table: 1182
cur table: 1190
epoch: 1000
next table: 1286
cur table: 1235
epoch: 1000
next table: 1211
cur table: 1182
epoch: 1000
next table: 1194
cur table: 1286
epoch: 1000
next table: 1173
cur table: 1211
epoch: 1000
next table: 1262
cur table: 1194
epoch: 1000
next table: 1199
cur table: 1173
epoch: 1000
next table: 1256
cur table: 1262
epoch: 1000
next table: 1182
cur table: 1199
epoch: 1000
next table: 1193
cur table: 1256
epoch: 1000
next table: 1216
cur table: 1182
epoch: 1000
next table: 1285
cur table: 1193
epoch: 1000
next table: 1191
cur table: 1216
epoch: 1000
next table: 1268
cur table: 1285
epoch: 1000
next table: 1183
cur table: 1191
epoch: 1000
next table: 1230
cur table: 1268
epoch: 1000
next table: 1177
cur table: 1183
epoch: 1000
next table: 1200
cur table: 1230
epoch: 1000
next table: 1189
cur table: 1177
epoch: 1000
next table: 1262
cur table: 1200
epoch: 1000
next table: 1179
cur table: 1189
epoch: 1000
next table: 1249
cur table: 1262
epoch: 1000
next table: 1186
cur table: 1179
epoch: 1000
next table: 1253
cur table: 1249
epoch: 1000
next table: 1175
cur table: 1186
epoch: 1000
next table: 1243
cur table: 1253
epoch: 1000
next table: 1193
cur table: 1175
epoch: 1000
next table: 1239
cur table: 1243
epoch: 1000
next table: 1186
cur table: 1193
epoch: 1000
next table: 1212
cur table: 1239
epoch: 1000
next table: 1190
cur table: 1186
epoch: 1000
next table: 1203
cur table: 1212
epoch: 1000
next table: 1157
cur table: 1190
epoch: 1000
next table: 1168
cur table: 1203
epoch: 1000
next table: 1143
cur table: 1157
epoch: 1000
next table: 1175
cur table: 1168
epoch: 1000
next table: 1178
cur table: 1143
epoch: 1000
next table: 1193
cur table: 1175
epoch: 1000
next table: 1199
cur table: 1178
epoch: 1000
next table: 1192
cur table: 1193
epoch: 1000
next table: 1154
cur table: 1199
epoch: 1000
next table: 1200
cur table: 1192
epoch: 1000
next table: 1171
cur table: 1154
epoch: 1000
next table: 1166
cur table: 1200
epoch: 1000
next table: 1153
cur table: 1171
epoch: 1000
next table: 1205
cur table: 1166
epoch: 1000
next table: 1328
cur table: 1153
epoch: 1000
next table: 1381
cur table: 1205
epoch: 1000
next table: 1299
cur table: 1328
epoch: 1000
next table: 1296
cur table: 1381
epoch: 1000
next table: 1275
cur table: 1299
epoch: 1000
next table: 1281
cur table: 1296
epoch: 1000
next table: 1250
cur table: 1275
epoch: 1000
next table: 1250
cur table: 1281
epoch: 1000
next table: 1256
cur table: 1250
epoch: 1000
next table: 1301
cur table: 1250
epoch: 1000
next table: 1247
cur table: 1256
epoch: 1000
next table: 1325
cur table: 1301
epoch: 1000
next table: 1319
cur table: 1247
epoch: 1000
next table: 1318
cur table: 1325
epoch: 1000
next table: 1268
cur table: 1319
epoch: 1000
next table: 1340
cur table: 1318
epoch: 1000
next table: 1288
cur table: 1268
epoch: 1000
next table: 1339
cur table: 1340
epoch: 1000
next table: 1292
cur table: 1288
epoch: 1000
next table: 1308
cur table: 1339
epoch: 1000
next table: 1273
cur table: 1292
epoch: 1000
next table: 1334
cur table: 1308
epoch: 1000
next table: 1278
cur table: 1273
epoch: 1000
next table: 1341
cur table: 1334
epoch: 1000
next table: 1286
cur table: 1278
epoch: 1000
next table: 1305
cur table: 1341
epoch: 1000
next table: 1310
cur table: 1286
epoch: 1000
next table: 1367
cur table: 1305
epoch: 1000
next table: 1303
cur table: 1310
epoch: 1000
next table: 1376
cur table: 1367
epoch: 1000
next table: 1287
cur table: 1303
epoch: 1000
next table: 1344
cur table: 1376
epoch: 1000
next table: 1328
cur table: 1287
epoch: 1000
next table: 1361
cur table: 1344
epoch: 1000
next table: 1299
cur table: 1328
epoch: 1000
next table: 1323
cur table: 1361
epoch: 1000
next table: 1270
cur table: 1299
epoch: 1000
next table: 1349
cur table: 1323
epoch: 1000
next table: 1282
cur table: 1270
epoch: 1000
next table: 1320
cur table: 1349
epoch: 1000
next table: 1309
cur table: 1282
epoch: 1000
next table: 1352
cur table: 1320
epoch: 1000
next table: 1271
cur table: 1309
epoch: 1000
next table: 1278
cur table: 1352
epoch: 1000
next table: 1275
cur table: 1271
epoch: 1000
next table: 1285
cur table: 1278
epoch: 1000
next table: 1265
cur table: 1275
epoch: 1000
next table: 1276
cur table: 1285
epoch: 1000
next table: 1241
cur table: 1265
epoch: 1000
next table: 1256
cur table: 1276
epoch: 1000
next table: 1256
cur table: 1241
epoch: 1000
next table: 1273
cur table: 1256
epoch: 1000
next table: 1277
cur table: 1256
epoch: 1000
next table: 1331
cur table: 1273
epoch: 1000
next table: 1271
cur table: 1277
epoch: 1000
next table: 1319
cur table: 1331
epoch: 1000
next table: 1264
cur table: 1271
epoch: 1000
next table: 1348
cur table: 1319
epoch: 1000
next table: 1283
cur table: 1264
epoch: 1000
next table: 1321
cur table: 1348
epoch: 1000
next table: 1276
cur table: 1283
epoch: 1000
next table: 1292
cur table: 1321
epoch: 1000
next table: 1282
cur table: 1276
epoch: 1000
next table: 1335
cur table: 1292
epoch: 1000
next table: 1274
cur table: 1282
epoch: 1000
next table: 1354
cur table: 1335
epoch: 1000
next table: 1287
cur table: 1274
epoch: 1000
next table: 1338
cur table: 1354
epoch: 1000
next table: 1284
cur table: 1287
epoch: 1000
next table: 1333
cur table: 1338
epoch: 1000
next table: 1279
cur table: 1284
epoch: 1000
next table: 1304
cur table: 1333
epoch: 1000
next table: 1288
cur table: 1279
epoch: 1000
next table: 1333
cur table: 1304
epoch: 1000
next table: 1282
cur table: 1288
epoch: 1000
next table: 1293
cur table: 1333
epoch: 1000
next table: 1289
cur table: 1282
epoch: 1000
next table: 1353
cur table: 1293
epoch: 1000
next table: 1286
cur table: 1289
epoch: 1000
next table: 1352
cur table: 1353
epoch: 1000
next table: 1275
cur table: 1286
epoch: 1000
next table: 1288
cur table: 1352
epoch: 1000
next table: 1293
cur table: 1275
epoch: 1000
next table: 1352
cur table: 1288
epoch: 1000
next table: 1290
cur table: 1293
epoch: 1000
next table: 1333
cur table: 1352
epoch: 1000
next table: 1268
cur table: 1290
epoch: 1000
next table: 1329
cur table: 1333
epoch: 1000
next table: 1299
cur table: 1268
epoch: 1000
next table: 1306
cur table: 1329
epoch: 1000
next table: 1290
cur table: 1299
epoch: 1000
next table: 1360
cur table: 1306
epoch: 1000
next table: 1254
cur table: 1290
epoch: 1000
next table: 1295
cur table: 1360
epoch: 1000
next table: 1272
cur table: 1254
epoch: 1000
next table: 1326
cur table: 1295
epoch: 1000
next table: 1228
cur table: 1272
epoch: 1000
next table: 1222
cur table: 1326
epoch: 1000
next table: 1207
cur table: 1228
epoch: 1000
next table: 1274
cur table: 1222
epoch: 1000
next table: 1193
cur table: 1207
epoch: 1000
next table: 1264
cur table: 1274
epoch: 1000
next table: 1195
cur table: 1193
epoch: 1000
next table: 1238
cur table: 1264
epoch: 1000
next table: 1182
cur table: 1195
epoch: 1000
next table: 1202
cur table: 1238
epoch: 1000
next table: 1194
cur table: 1182
epoch: 1000
next table: 1200
cur table: 1202
epoch: 1000
next table: 1165
cur table: 1194
epoch: 1000
next table: 1182
cur table: 1200
epoch: 1000
next table: 1185
cur table: 1165
epoch: 1000
next table: 1207
cur table: 1182
epoch: 1000
next table: 1170
cur table: 1185
epoch: 1000
next table: 1179
cur table: 1207
epoch: 1000
next table: 1161
cur table: 1170
epoch: 1000
next table: 1178
cur table: 1179
epoch: 1000
next table: 1173
cur table: 1161
epoch: 1000
next table: 1190
cur table: 1178
epoch: 1000
next table: 1188
cur table: 1173
epoch: 1000
next table: 1194
cur table: 1190
epoch: 1000
next table: 1158
cur table: 1188
epoch: 1000
next table: 1170
cur table: 1194
epoch: 1000
next table: 1157
cur table: 1158
epoch: 1000
next table: 1184
cur table: 1170
epoch: 1000
next table: 1185
cur table: 1157
epoch: 1000
next table: 1208
cur table: 1184
epoch: 1000
next table: 1183
cur table: 1185
epoch: 1000
next table: 1173
cur table: 1208
epoch: 1000
next table: 1159
cur table: 1183
epoch: 1000
next table: 1183
cur table: 1173
epoch: 1000
next table: 1167
cur table: 1159
epoch: 1000
next table: 1171
cur table: 1183
epoch: 1000
next table: 1150
cur table: 1167
epoch: 1000
next table: 1171
cur table: 1171
epoch: 1000
next table: 1174
cur table: 1150
epoch: 1000
next table: 1195
cur table: 1171
epoch: 1000
next table: 1163
cur table: 1174
epoch: 1000
next table: 1167
cur table: 1195
epoch: 1000
next table: 1164
cur table: 1163
epoch: 1000
next table: 1191
cur table: 1167
epoch: 1000
next table: 1201
cur table: 1164
epoch: 1000
next table: 1221
cur table: 1191
epoch: 1000
next table: 1165
cur table: 1201
epoch: 1000
next table: 1167
cur table: 1221
epoch: 1000
next table: 1177
cur table: 1165
epoch: 1000
next table: 1202
cur table: 1167
epoch: 1000
next table: 1183
cur table: 1177
epoch: 1000
next table: 1191
cur table: 1202
epoch: 1000
next table: 1178
cur table: 1183
epoch: 1000
next table: 1198
cur table: 1191
epoch: 1000
next table: 1151
cur table: 1178
epoch: 1000
next table: 1164
cur table: 1198
epoch: 1000
next table: 1174
cur table: 1164
epoch: 1000
next table: 1154
cur table: 1151
epoch: 1000
next table: 1205
cur table: 1174
epoch: 1000
next table: 1193
cur table: 1154
epoch: 1000
next table: 1185
cur table: 1205
epoch: 1000
next table: 1173
cur table: 1193
epoch: 1000
next table: 1173
cur table: 1185
epoch: 1000
next table: 1168
cur table: 1173
epoch: 1000
next table: 1191
cur table: 1173
epoch: 1000
next table: 1172
cur table: 1168
epoch: 1000
next table: 1189
cur table: 1191
epoch: 1000
next table: 1178
cur table: 1172
epoch: 1000
next table: 1202
cur table: 1189
epoch: 1000
next table: 1197
cur table: 1178
epoch: 1000
next table: 1177
cur table: 1202
epoch: 1000
next table: 1162
cur table: 1197
epoch: 1000
next table: 1195
cur table: 1177
epoch: 1000
next table: 1179
cur table: 1162
epoch: 1000
next table: 1189
cur table: 1195
epoch: 1000
next table: 1184
cur table: 1179
epoch: 1000
next table: 1175
cur table: 1189
epoch: 1000
next table: 1163
cur table: 1184
epoch: 1000
next table: 1193
cur table: 1175
epoch: 1000
next table: 1191
cur table: 1163
epoch: 1000
next table: 1177
cur table: 1193
epoch: 1000
next table: 1146
cur table: 1191
epoch: 1000
next table: 1168
cur table: 1177
epoch: 1000
next table: 1194
cur table: 1146
epoch: 1000
next table: 1199
cur table: 1168
epoch: 1000
next table: 1171
cur table: 1194
epoch: 1000
next table: 1171
cur table: 1199
epoch: 1000
next table: 1181
cur table: 1171
epoch: 1000
next table: 1171
cur table: 1171
epoch: 1000
next table: 1205
cur table: 1171
epoch: 1000
next table: 1209
cur table: 1181
epoch: 1000
next table: 1172
cur table: 1205
epoch: 1000
next table: 1196
cur table: 1209
epoch: 1000
next table: 1168
cur table: 1172
epoch: 1000
next table: 1191
cur table: 1196
epoch: 1000
next table: 1162
cur table: 1168
epoch: 1000
next table: 1210
cur table: 1162
epoch: 1000
next table: 1248
cur table: 1191
epoch: 1000
next table: 1180
cur table: 1210
epoch: 1000
next table: 1205
cur table: 1248
epoch: 1000
next table: 1164
cur table: 1180
epoch: 1000
next table: 1218
cur table: 1205
epoch: 1000
next table: 1164
cur table: 1164
epoch: 1000
next table: 1176
cur table: 1164
epoch: 1000
next table: 1245
cur table: 1218
epoch: 1000
next table: 1193
cur table: 1176
epoch: 1000
next table: 1251
cur table: 1245
epoch: 1000
next table: 1188
cur table: 1193
epoch: 1000
next table: 1193
cur table: 1188
epoch: 1000
next table: 1305
cur table: 1251
epoch: 1000
next table: 1205
cur table: 1193
epoch: 1000
next table: 1180
cur table: 1205
epoch: 1000
next table: 1280
cur table: 1305
epoch: 1000
next table: 1183
cur table: 1180
epoch: 1000
next table: 1271
cur table: 1280
epoch: 1000
next table: 1186
cur table: 1183
epoch: 1000
next table: 1186
cur table: 1186
epoch: 1000
next table: 1245
cur table: 1271
epoch: 1000
next table: 1184
cur table: 1186
epoch: 1000
next table: 1194
cur table: 1184
epoch: 1000
next table: 1278
cur table: 1245
epoch: 1000
next table: 1187
cur table: 1194
epoch: 1000
next table: 1280
cur table: 1278
epoch: 1000
next table: 1200
cur table: 1187
epoch: 1000
next table: 1180
cur table: 1200
epoch: 1000
next table: 1282
cur table: 1280
epoch: 1000
next table: 1184
cur table: 1180
epoch: 1000
next table: 1206
cur table: 1184
epoch: 1000
next table: 1293
cur table: 1282
epoch: 1000
next table: 1198
cur table: 1206
epoch: 1000
next table: 1297
cur table: 1293
epoch: 1000
next table: 1188
cur table: 1198
epoch: 1000
next table: 1156
cur table: 1188
epoch: 1000
next table: 1232
cur table: 1297
epoch: 1000
next table: 1166
cur table: 1156
epoch: 1000
next table: 1189
cur table: 1166
epoch: 1000
next table: 1267
cur table: 1232
epoch: 1000
next table: 1171
cur table: 1189
epoch: 1000
next table: 1285
cur table: 1267
epoch: 1000
next table: 1186
cur table: 1171
epoch: 1000
next table: 1169
cur table: 1186
epoch: 1000
next table: 1295
cur table: 1285
epoch: 1000
next table: 1200
cur table: 1169
epoch: 1000
next table: 1186
cur table: 1200
epoch: 1000
next table: 1290
cur table: 1295
epoch: 1000
next table: 1176
cur table: 1186
epoch: 1000
next table: 1200
cur table: 1176
epoch: 1000
next table: 1341
cur table: 1290
epoch: 1000
next table: 1189
cur table: 1200
epoch: 1000
next table: 1371
cur table: 1341
epoch: 1000
next table: 1309
cur table: 1189
epoch: 1000
next table: 1362
cur table: 1309
epoch: 1000
next table: 1425
cur table: 1371
epoch: 1000
next table: 1457
cur table: 1362
epoch: 1000
next table: 1494
cur table: 1425
epoch: 1000
next table: 1469
cur table: 1457
epoch: 1000
next table: 1575
cur table: 1494
epoch: 1000
next table: 1519
cur table: 1469
epoch: 1000
next table: 1512
cur table: 1575
epoch: 1000
next table: 1519
cur table: 1519
epoch: 1000
next table: 1441
cur table: 1512
epoch: 1000
next table: 1443
cur table: 1519
epoch: 1000
next table: 1468
cur table: 1441
epoch: 1000
next table: 1491
cur table: 1443
epoch: 1000
next table: 1485
cur table: 1491
epoch: 1000
next table: 1460
cur table: 1468
epoch: 1000
next table: 1472
cur table: 1485
epoch: 1000
next table: 1470
cur table: 1460
epoch: 1000
next table: 1458
cur table: 1472
epoch: 1000
next table: 1474
cur table: 1470
epoch: 1000
next table: 1514
cur table: 1458
epoch: 1000
next table: 1457
cur table: 1474
epoch: 1000
next table: 1483
cur table: 1514
epoch: 1000
next table: 1491
cur table: 1457
epoch: 1000
next table: 1458
cur table: 1483
epoch: 1000
next table: 1506
cur table: 1491
epoch: 1000
next table: 1520
cur table: 1458
epoch: 1000
next table: 1497
cur table: 1506
epoch: 1000
next table: 1544
cur table: 1520
epoch: 1000
next table: 1464
cur table: 1497
epoch: 1000
next table: 1482
cur table: 1544
epoch: 1000
next table: 1454
cur table: 1482
epoch: 1000
next table: 1475
cur table: 1464
epoch: 1000
next table: 1502
cur table: 1454
epoch: 1000
next table: 1487
cur table: 1475
epoch: 1000
next table: 1553
cur table: 1502
epoch: 1000
next table: 1482
cur table: 1487
epoch: 1000
next table: 1513
cur table: 1553
epoch: 1000
next table: 1467
cur table: 1482
epoch: 1000
next table: 1449
cur table: 1513
epoch: 1000
next table: 1454
cur table: 1467
epoch: 1000
next table: 1525
cur table: 1449
epoch: 1000
next table: 1476
cur table: 1454
epoch: 1000
next table: 1489
cur table: 1525
epoch: 1000
next table: 1440
cur table: 1476
epoch: 1000
next table: 1524
cur table: 1489
epoch: 1000
next table: 1472
cur table: 1440
epoch: 1000
next table: 1494
cur table: 1524
epoch: 1000
next table: 1431
cur table: 1472
epoch: 1000
next table: 1498
cur table: 1494
epoch: 1000
next table: 1448
cur table: 1431
epoch: 1000
next table: 1558
cur table: 1498
epoch: 1000
next table: 1430
cur table: 1448
epoch: 1000
next table: 1469
cur table: 1558
epoch: 1000
next table: 1434
cur table: 1430
epoch: 1000
next table: 1475
cur table: 1469
epoch: 1000
next table: 1433
cur table: 1434
epoch: 1000
next table: 1478
cur table: 1475
epoch: 1000
next table: 1413
cur table: 1433
epoch: 1000
next table: 1478
cur table: 1478
epoch: 1000
next table: 1437
cur table: 1413
epoch: 1000
next table: 1470
cur table: 1478
epoch: 1000
next table: 1442
cur table: 1437
epoch: 1000
next table: 1490
cur table: 1470
epoch: 1000
next table: 1491
cur table: 1490
epoch: 1000
next table: 1448
cur table: 1442
epoch: 1000
next table: 1549
cur table: 1491
epoch: 1000
next table: 1463
cur table: 1448
epoch: 1000
next table: 1467
cur table: 1549
epoch: 1000
next table: 1434
cur table: 1463
epoch: 1000
next table: 1494
cur table: 1467
epoch: 1000
next table: 1446
cur table: 1434
epoch: 1000
next table: 1452
cur table: 1494
epoch: 1000
next table: 1429
cur table: 1446
epoch: 1000
next table: 1472
cur table: 1452
epoch: 1000
next table: 1411
cur table: 1429
epoch: 1000
next table: 1483
cur table: 1472
epoch: 1000
next table: 1440
cur table: 1411
epoch: 1000
next table: 1543
cur table: 1483
epoch: 1000
next table: 1454
cur table: 1440
epoch: 1000
next table: 1482
cur table: 1543
epoch: 1000
next table: 1419
cur table: 1454
epoch: 1000
next table: 1478
cur table: 1482
epoch: 1000
next table: 1421
cur table: 1419
epoch: 1000
next table: 1564
cur table: 1478
epoch: 1000
next table: 1435
cur table: 1421
epoch: 1000
next table: 1454
cur table: 1564
epoch: 1000
next table: 1418
cur table: 1435
epoch: 1000
next table: 1493
cur table: 1454
epoch: 1000
next table: 1430
cur table: 1418
epoch: 1000
next table: 1511
cur table: 1493
epoch: 1000
next table: 1410
cur table: 1430
epoch: 1000
next table: 1463
cur table: 1511
epoch: 1000
next table: 1415
cur table: 1410
epoch: 1000
next table: 1493
cur table: 1463
epoch: 1000
next table: 1425
cur table: 1415
epoch: 1000
next table: 1510
cur table: 1493
epoch: 1000
next table: 1433
cur table: 1425
epoch: 1000
next table: 1484
cur table: 1510
epoch: 1000
next table: 1431
cur table: 1433
epoch: 1000
next table: 1474
cur table: 1484
epoch: 1000
next table: 1428
cur table: 1431
epoch: 1000
next table: 1516
cur table: 1474
epoch: 1000
next table: 1442
cur table: 1428
epoch: 1000
next table: 1480
cur table: 1516
epoch: 1000
next table: 1423
cur table: 1442
epoch: 1000
next table: 1497
cur table: 1480
epoch: 1000
next table: 1441
cur table: 1423
epoch: 1000
next table: 1535
cur table: 1497
epoch: 1000
next table: 1449
cur table: 1441
epoch: 1000
next table: 1498
cur table: 1535
epoch: 1000
next table: 1435
cur table: 1449
epoch: 1000
next table: 1508
cur table: 1498
epoch: 1000
next table: 1483
cur table: 1435
epoch: 1000
next table: 1509
cur table: 1508
epoch: 1000
next table: 1487
cur table: 1483
epoch: 1000
next table: 1516
cur table: 1509
epoch: 1000
next table: 1466
cur table: 1487
epoch: 1000
next table: 1476
cur table: 1516
epoch: 1000
next table: 1476
cur table: 1466
epoch: 1000
next table: 1509
cur table: 1476
epoch: 1000
next table: 1456
cur table: 1476
epoch: 1000
next table: 1522
cur table: 1509
epoch: 1000
next table: 1469
cur table: 1456
epoch: 1000
next table: 1489
cur table: 1522
epoch: 1000
next table: 1453
cur table: 1469
epoch: 1000
next table: 1482
cur table: 1489
epoch: 1000
next table: 1464
cur table: 1453
epoch: 1000
next table: 1509
cur table: 1482
epoch: 1000
next table: 1456
cur table: 1464
epoch: 1000
next table: 1557
cur table: 1509
epoch: 1000
next table: 1462
cur table: 1456
epoch: 1000
next table: 1495
cur table: 1557
epoch: 1000
next table: 1475
cur table: 1462
epoch: 1000
next table: 1511
cur table: 1495
epoch: 1000
next table: 1534
cur table: 1511
epoch: 1000
next table: 1483
cur table: 1475
epoch: 1000
next table: 1519
cur table: 1534
epoch: 1000
next table: 1501
cur table: 1483
epoch: 1000
next table: 1504
cur table: 1519
epoch: 1000
next table: 1459
cur table: 1501
epoch: 1000
next table: 1488
cur table: 1504
epoch: 1000
next table: 1469
cur table: 1459
epoch: 1000
next table: 1547
cur table: 1488
epoch: 1000
next table: 1479
cur table: 1469
epoch: 1000
next table: 1497
cur table: 1547
epoch: 1000
next table: 1481
cur table: 1479
epoch: 1000
next table: 1529
cur table: 1497
epoch: 1000
next table: 1494
cur table: 1481
epoch: 1000
next table: 1512
cur table: 1529
epoch: 1000
next table: 1435
cur table: 1494
epoch: 1000
next table: 1462
cur table: 1512
epoch: 1000
next table: 1448
cur table: 1435
epoch: 1000
next table: 1502
cur table: 1462
epoch: 1000
next table: 1474
cur table: 1448
epoch: 1000
next table: 1482
cur table: 1502
epoch: 1000
next table: 1431
cur table: 1474
epoch: 1000
next table: 1537
cur table: 1482
epoch: 1000
next table: 1468
cur table: 1431
epoch: 1000
next table: 1534
cur table: 1537
epoch: 1000
next table: 1477
cur table: 1468
epoch: 1000
next table: 1489
cur table: 1534
epoch: 1000
next table: 1465
cur table: 1477
epoch: 1000
next table: 1515
cur table: 1489
epoch: 1000
next table: 1467
cur table: 1465
epoch: 1000
next table: 1497
cur table: 1515
epoch: 1000
next table: 1460
cur table: 1467
epoch: 1000
next table: 1504
cur table: 1497
epoch: 1000
next table: 1456
cur table: 1460
epoch: 1000
next table: 1545
cur table: 1504
epoch: 1000
next table: 1457
cur table: 1456
epoch: 1000
next table: 1492
cur table: 1545
epoch: 1000
next table: 1469
cur table: 1457
epoch: 1000
next table: 1502
cur table: 1492
epoch: 1000
next table: 1455
cur table: 1469
epoch: 1000
next table: 1480
cur table: 1502
epoch: 1000
next table: 1456
cur table: 1455
epoch: 1000
next table: 1498
cur table: 1480
epoch: 1000
next table: 1445
cur table: 1456
epoch: 1000
next table: 1496
cur table: 1498
epoch: 1000
next table: 1437
cur table: 1445
epoch: 1000
next table: 1547
cur table: 1496
epoch: 1000
next table: 1412
cur table: 1437
epoch: 1000
next table: 1472
cur table: 1547
epoch: 1000
next table: 1452
cur table: 1412
epoch: 1000
next table: 1521
cur table: 1472
epoch: 1000
next table: 1418
cur table: 1452
epoch: 1000
next table: 1464
cur table: 1521
epoch: 1000
next table: 1441
cur table: 1418
epoch: 1000
next table: 1516
cur table: 1464
epoch: 1000
next table: 1445
cur table: 1441
epoch: 1000
next table: 1502
cur table: 1516
epoch: 1000
next table: 1438
cur table: 1445
epoch: 1000
next table: 1529
cur table: 1502
epoch: 1000
next table: 1449
cur table: 1438
epoch: 1000
next table: 1493
cur table: 1529
Heartbeat CPU 0 instructions: 20000001 cycles: 6351677 heartbeat IPC: 3.13413 cumulative IPC: 3.14877 (Simulation time: 0 hr 18 min 55 sec) 
epoch: 1000
next table: 1429
cur table: 1449
epoch: 1000
next table: 1495
cur table: 1493
epoch: 1000
next table: 1416
cur table: 1429
epoch: 1000
next table: 1456
cur table: 1495
epoch: 1000
next table: 1411
cur table: 1416
epoch: 1000
next table: 1500
cur table: 1456
epoch: 1000
next table: 1445
cur table: 1411
epoch: 1000
next table: 1506
cur table: 1500
epoch: 1000
next table: 1426
cur table: 1445
epoch: 1000
next table: 1461
cur table: 1506
epoch: 1000
next table: 1482
cur table: 1461
epoch: 1000
next table: 1426
cur table: 1426
epoch: 1000
next table: 1477
cur table: 1482
epoch: 1000
next table: 1436
cur table: 1426
epoch: 1000
next table: 1507
cur table: 1477
epoch: 1000
next table: 1475
cur table: 1436
epoch: 1000
next table: 1504
cur table: 1507
epoch: 1000
next table: 1462
cur table: 1475
epoch: 1000
next table: 1510
cur table: 1504
epoch: 1000
next table: 1480
cur table: 1462
epoch: 1000
next table: 1545
cur table: 1510
epoch: 1000
next table: 1482
cur table: 1480
epoch: 1000
next table: 1533
cur table: 1545
epoch: 1000
next table: 1485
cur table: 1482
epoch: 1000
next table: 1518
cur table: 1533
epoch: 1000
next table: 1503
cur table: 1485
epoch: 1000
next table: 1529
cur table: 1518
epoch: 1000
next table: 1483
cur table: 1503
epoch: 1000
next table: 1551
cur table: 1529
epoch: 1000
next table: 1506
cur table: 1483
epoch: 1000
next table: 1544
cur table: 1551
epoch: 1000
next table: 1524
cur table: 1506
epoch: 1000
next table: 1599
cur table: 1544
epoch: 1000
next table: 1513
cur table: 1524
epoch: 1000
next table: 1517
cur table: 1599
epoch: 1000
next table: 1475
cur table: 1513
epoch: 1000
next table: 1540
cur table: 1517
epoch: 1000
next table: 1523
cur table: 1475
epoch: 1000
next table: 1561
cur table: 1540
epoch: 1000
next table: 1499
cur table: 1523
epoch: 1000
next table: 1560
cur table: 1561
epoch: 1000
next table: 1544
cur table: 1499
epoch: 1000
next table: 1602
cur table: 1560
epoch: 1000
next table: 1507
cur table: 1544
epoch: 1000
next table: 1513
cur table: 1602
epoch: 1000
next table: 1511
cur table: 1507
epoch: 1000
next table: 1572
cur table: 1513
epoch: 1000
next table: 1493
cur table: 1511
epoch: 1000
next table: 1542
cur table: 1572
epoch: 1000
next table: 1508
cur table: 1493
epoch: 1000
next table: 1544
cur table: 1542
epoch: 1000
next table: 1498
cur table: 1508
epoch: 1000
next table: 1522
cur table: 1544
epoch: 1000
next table: 1495
cur table: 1498
epoch: 1000
next table: 1565
cur table: 1522
epoch: 1000
next table: 1502
cur table: 1495
epoch: 1000
next table: 1519
cur table: 1565
epoch: 1000
next table: 1487
cur table: 1502
epoch: 1000
next table: 1498
cur table: 1519
epoch: 1000
next table: 1447
cur table: 1487
epoch: 1000
next table: 1469
cur table: 1498
epoch: 1000
next table: 1413
cur table: 1447
epoch: 1000
next table: 1391
cur table: 1469
epoch: 1000
next table: 1312
cur table: 1413
epoch: 1000
next table: 1324
cur table: 1391
epoch: 1000
next table: 1260
cur table: 1312
epoch: 1000
next table: 1298
cur table: 1324
epoch: 1000
next table: 1256
cur table: 1260
epoch: 1000
next table: 1259
cur table: 1298
epoch: 1000
next table: 1234
cur table: 1256
epoch: 1000
next table: 1250
cur table: 1259
epoch: 1000
next table: 1236
cur table: 1234
epoch: 1000
next table: 1253
cur table: 1250
epoch: 1000
next table: 1226
cur table: 1236
epoch: 1000
next table: 1247
cur table: 1253
epoch: 1000
next table: 1288
cur table: 1247
epoch: 1000
next table: 1262
cur table: 1226
epoch: 1000
next table: 1234
cur table: 1288
epoch: 1000
next table: 1231
cur table: 1262
epoch: 1000
next table: 1268
cur table: 1234
epoch: 1000
next table: 1252
cur table: 1231
epoch: 1000
next table: 1279
cur table: 1268
epoch: 1000
next table: 1237
cur table: 1252
epoch: 1000
next table: 1254
cur table: 1279
epoch: 1000
next table: 1237
cur table: 1237
epoch: 1000
next table: 1239
cur table: 1254
epoch: 1000
next table: 1224
cur table: 1237
epoch: 1000
next table: 1231
cur table: 1239
epoch: 1000
next table: 1219
cur table: 1224
epoch: 1000
next table: 1272
cur table: 1231
epoch: 1000
next table: 1269
cur table: 1219
epoch: 1000
next table: 1300
cur table: 1272
epoch: 1000
next table: 1234
cur table: 1269
epoch: 1000
next table: 1218
cur table: 1300
epoch: 1000
next table: 1193
cur table: 1234
epoch: 1000
next table: 1245
cur table: 1218
epoch: 1000
next table: 1202
cur table: 1193
epoch: 1000
next table: 1299
cur table: 1245
epoch: 1000
next table: 1233
cur table: 1202
epoch: 1000
next table: 1246
cur table: 1299
epoch: 1000
next table: 1205
cur table: 1233
epoch: 1000
next table: 1253
cur table: 1246
epoch: 1000
next table: 1220
cur table: 1205
epoch: 1000
next table: 1210
cur table: 1253
epoch: 1000
next table: 1194
cur table: 1220
epoch: 1000
next table: 1267
cur table: 1210
epoch: 1000
next table: 1197
cur table: 1194
epoch: 1000
next table: 1261
cur table: 1267
epoch: 1000
next table: 1182
cur table: 1197
epoch: 1000
next table: 1231
cur table: 1261
epoch: 1000
next table: 1205
cur table: 1182
epoch: 1000
next table: 1306
cur table: 1231
epoch: 1000
next table: 1210
cur table: 1205
epoch: 1000
next table: 1244
cur table: 1306
epoch: 1000
next table: 1194
cur table: 1210
epoch: 1000
next table: 1226
cur table: 1244
epoch: 1000
next table: 1202
cur table: 1194
epoch: 1000
next table: 1284
cur table: 1226
epoch: 1000
next table: 1238
cur table: 1202
epoch: 1000
next table: 1281
cur table: 1284
epoch: 1000
next table: 1226
cur table: 1238
epoch: 1000
next table: 1225
cur table: 1281
epoch: 1000
next table: 1168
cur table: 1226
epoch: 1000
next table: 1266
cur table: 1225
epoch: 1000
next table: 1203
cur table: 1168
epoch: 1000
next table: 1252
cur table: 1266
epoch: 1000
next table: 1202
cur table: 1203
epoch: 1000
next table: 1243
cur table: 1252
epoch: 1000
next table: 1191
cur table: 1202
epoch: 1000
next table: 1242
cur table: 1243
epoch: 1000
next table: 1209
cur table: 1191
epoch: 1000
next table: 1267
cur table: 1242
epoch: 1000
next table: 1214
cur table: 1209
epoch: 1000
next table: 1248
cur table: 1267
epoch: 1000
next table: 1219
cur table: 1214
epoch: 1000
next table: 1286
cur table: 1248
epoch: 1000
next table: 1195
cur table: 1219
epoch: 1000
next table: 1252
cur table: 1286
epoch: 1000
next table: 1170
cur table: 1195
epoch: 1000
next table: 1212
cur table: 1252
epoch: 1000
next table: 1195
cur table: 1170
epoch: 1000
next table: 1258
cur table: 1212
epoch: 1000
next table: 1224
cur table: 1195
epoch: 1000
next table: 1246
cur table: 1258
epoch: 1000
next table: 1206
cur table: 1224
epoch: 1000
next table: 1234
cur table: 1246
epoch: 1000
next table: 1218
cur table: 1206
epoch: 1000
next table: 1248
cur table: 1234
epoch: 1000
next table: 1194
cur table: 1218
epoch: 1000
next table: 1240
cur table: 1248
epoch: 1000
next table: 1211
cur table: 1194
epoch: 1000
next table: 1255
cur table: 1240
epoch: 1000
next table: 1207
cur table: 1211
epoch: 1000
next table: 1256
cur table: 1255
epoch: 1000
next table: 1205
cur table: 1207
epoch: 1000
next table: 1241
cur table: 1256
epoch: 1000
next table: 1208
cur table: 1205
epoch: 1000
next table: 1220
cur table: 1241
epoch: 1000
next table: 1163
cur table: 1208
epoch: 1000
next table: 1234
cur table: 1220
epoch: 1000
next table: 1199
cur table: 1163
epoch: 1000
next table: 1262
cur table: 1234
epoch: 1000
next table: 1206
cur table: 1199
epoch: 1000
next table: 1250
cur table: 1262
epoch: 1000
next table: 1175
cur table: 1206
epoch: 1000
next table: 1250
cur table: 1250
epoch: 1000
next table: 1231
cur table: 1175
epoch: 1000
next table: 1243
cur table: 1250
epoch: 1000
next table: 1217
cur table: 1231
epoch: 1000
next table: 1295
cur table: 1243
epoch: 1000
next table: 1197
cur table: 1217
epoch: 1000
next table: 1244
cur table: 1295
epoch: 1000
next table: 1185
cur table: 1197
epoch: 1000
next table: 1283
cur table: 1244
epoch: 1000
next table: 1216
cur table: 1185
epoch: 1000
next table: 1198
cur table: 1283
epoch: 1000
next table: 1189
cur table: 1216
epoch: 1000
next table: 1262
cur table: 1198
epoch: 1000
next table: 1164
cur table: 1189
epoch: 1000
next table: 1228
cur table: 1262
epoch: 1000
next table: 1174
cur table: 1164
epoch: 1000
next table: 1257
cur table: 1228
epoch: 1000
next table: 1230
cur table: 1174
epoch: 1000
next table: 1235
cur table: 1257
epoch: 1000
next table: 1215
cur table: 1230
epoch: 1000
next table: 1270
cur table: 1235
epoch: 1000
next table: 1173
cur table: 1215
epoch: 1000
next table: 1240
cur table: 1270
epoch: 1000
next table: 1180
cur table: 1173
epoch: 1000
next table: 1254
cur table: 1240
epoch: 1000
next table: 1210
cur table: 1180
epoch: 1000
next table: 1230
cur table: 1254
epoch: 1000
next table: 1213
cur table: 1210
epoch: 1000
next table: 1265
cur table: 1230
epoch: 1000
next table: 1181
cur table: 1213
epoch: 1000
next table: 1248
cur table: 1265
epoch: 1000
next table: 1175
cur table: 1181
epoch: 1000
next table: 1241
cur table: 1248
epoch: 1000
next table: 1160
cur table: 1175
epoch: 1000
next table: 1235
cur table: 1241
epoch: 1000
next table: 1196
cur table: 1160
epoch: 1000
next table: 1202
cur table: 1235
epoch: 1000
next table: 1171
cur table: 1196
epoch: 1000
next table: 1181
cur table: 1202
epoch: 1000
next table: 1150
cur table: 1171
epoch: 1000
next table: 1167
cur table: 1181
epoch: 1000
next table: 1160
cur table: 1150
epoch: 1000
next table: 1166
cur table: 1167
epoch: 1000
next table: 1163
cur table: 1160
epoch: 1000
next table: 1195
cur table: 1166
epoch: 1000
next table: 1156
cur table: 1163
epoch: 1000
next table: 1167
cur table: 1195
epoch: 1000
next table: 1184
cur table: 1156
epoch: 1000
next table: 1197
cur table: 1167
epoch: 1000
next table: 1152
cur table: 1184
epoch: 1000
next table: 1157
cur table: 1197
epoch: 1000
next table: 1232
cur table: 1152
epoch: 1000
next table: 1296
cur table: 1157
epoch: 1000
next table: 1356
cur table: 1232
epoch: 1000
next table: 1364
cur table: 1296
epoch: 1000
next table: 1315
cur table: 1356
epoch: 1000
next table: 1388
cur table: 1364
epoch: 1000
next table: 1288
cur table: 1315
epoch: 1000
next table: 1331
cur table: 1388
epoch: 1000
next table: 1240
cur table: 1288
epoch: 1000
next table: 1308
cur table: 1331
epoch: 1000
next table: 1288
cur table: 1240
epoch: 1000
next table: 1289
cur table: 1308
epoch: 1000
next table: 1307
cur table: 1288
epoch: 1000
next table: 1338
cur table: 1289
epoch: 1000
next table: 1281
cur table: 1307
epoch: 1000
next table: 1311
cur table: 1338
epoch: 1000
next table: 1284
cur table: 1281
epoch: 1000
next table: 1337
cur table: 1311
epoch: 1000
next table: 1346
cur table: 1337
epoch: 1000
next table: 1317
cur table: 1284
epoch: 1000
next table: 1312
cur table: 1346
epoch: 1000
next table: 1304
cur table: 1317
epoch: 1000
next table: 1377
cur table: 1312
epoch: 1000
next table: 1327
cur table: 1304
epoch: 1000
next table: 1352
cur table: 1377
epoch: 1000
next table: 1307
cur table: 1327
epoch: 1000
next table: 1319
cur table: 1352
epoch: 1000
next table: 1309
cur table: 1307
epoch: 1000
next table: 1377
cur table: 1319
epoch: 1000
next table: 1330
cur table: 1309
epoch: 1000
next table: 1343
cur table: 1377
epoch: 1000
next table: 1299
cur table: 1330
epoch: 1000
next table: 1324
cur table: 1343
epoch: 1000
next table: 1324
cur table: 1299
epoch: 1000
next table: 1387
cur table: 1324
epoch: 1000
next table: 1317
cur table: 1324
epoch: 1000
next table: 1352
cur table: 1387
epoch: 1000
next table: 1320
cur table: 1317
epoch: 1000
next table: 1320
cur table: 1352
epoch: 1000
next table: 1327
cur table: 1320
epoch: 1000
next table: 1365
cur table: 1320
epoch: 1000
next table: 1297
cur table: 1327
epoch: 1000
next table: 1286
cur table: 1365
epoch: 1000
next table: 1296
cur table: 1297
epoch: 1000
next table: 1279
cur table: 1286
epoch: 1000
next table: 1288
cur table: 1296
epoch: 1000
next table: 1351
cur table: 1279
epoch: 1000
next table: 1300
cur table: 1288
epoch: 1000
next table: 1283
cur table: 1351
epoch: 1000
next table: 1280
cur table: 1283
epoch: 1000
next table: 1283
cur table: 1300
epoch: 1000
next table: 1265
cur table: 1280
epoch: 1000
next table: 1267
cur table: 1283
epoch: 1000
next table: 1329
cur table: 1265
epoch: 1000
next table: 1294
cur table: 1267
epoch: 1000
next table: 1330
cur table: 1329
epoch: 1000
next table: 1303
cur table: 1294
epoch: 1000
next table: 1346
cur table: 1330
epoch: 1000
next table: 1310
cur table: 1303
epoch: 1000
next table: 1351
cur table: 1346
epoch: 1000
next table: 1290
cur table: 1310
epoch: 1000
next table: 1316
cur table: 1351
epoch: 1000
next table: 1301
cur table: 1290
epoch: 1000
next table: 1324
cur table: 1316
epoch: 1000
next table: 1338
cur table: 1301
epoch: 1000
next table: 1329
cur table: 1324
epoch: 1000
next table: 1339
cur table: 1338
epoch: 1000
next table: 1346
cur table: 1329
epoch: 1000
next table: 1340
cur table: 1346
epoch: 1000
next table: 1379
cur table: 1339
epoch: 1000
next table: 1282
cur table: 1340
epoch: 1000
next table: 1330
cur table: 1379
epoch: 1000
next table: 1365
cur table: 1282
epoch: 1000
next table: 1368
cur table: 1330
epoch: 1000
next table: 1317
cur table: 1365
epoch: 1000
next table: 1359
cur table: 1368
epoch: 1000
next table: 1344
cur table: 1317
epoch: 1000
next table: 1326
cur table: 1359
epoch: 1000
next table: 1349
cur table: 1344
epoch: 1000
next table: 1386
cur table: 1349
epoch: 1000
next table: 1359
cur table: 1326
epoch: 1000
next table: 1320
cur table: 1386
epoch: 1000
next table: 1356
cur table: 1359
epoch: 1000
next table: 1356
cur table: 1320
epoch: 1000
next table: 1341
cur table: 1356
epoch: 1000
next table: 1331
cur table: 1356
epoch: 1000
next table: 1386
cur table: 1341
epoch: 1000
next table: 1355
cur table: 1331
epoch: 1000
next table: 1358
cur table: 1386
epoch: 1000
next table: 1347
cur table: 1355
epoch: 1000
next table: 1371
cur table: 1358
epoch: 1000
next table: 1339
cur table: 1347
epoch: 1000
next table: 1374
cur table: 1339
epoch: 1000
next table: 1411
cur table: 1371
epoch: 1000
next table: 1333
cur table: 1374
epoch: 1000
next table: 1364
cur table: 1411
epoch: 1000
next table: 1299
cur table: 1333
epoch: 1000
next table: 1329
cur table: 1364
epoch: 1000
next table: 1323
cur table: 1299
epoch: 1000
next table: 1339
cur table: 1329
epoch: 1000
next table: 1292
cur table: 1323
epoch: 1000
next table: 1307
cur table: 1292
epoch: 1000
next table: 1365
cur table: 1339
epoch: 1000
next table: 1249
cur table: 1307
epoch: 1000
next table: 1328
cur table: 1365
epoch: 1000
next table: 1288
cur table: 1249
epoch: 1000
next table: 1263
cur table: 1288
epoch: 1000
next table: 1338
cur table: 1328
epoch: 1000
next table: 1279
cur table: 1263
epoch: 1000
next table: 1217
cur table: 1279
epoch: 1000
next table: 1308
cur table: 1338
epoch: 1000
next table: 1221
cur table: 1217
epoch: 1000
next table: 1384
cur table: 1308
epoch: 1000
next table: 1251
cur table: 1221
epoch: 1000
next table: 1222
cur table: 1251
epoch: 1000
next table: 1175
cur table: 1222
epoch: 1000
next table: 1378
cur table: 1384
epoch: 1000
next table: 1173
cur table: 1175
epoch: 1000
next table: 1193
cur table: 1173
epoch: 1000
next table: 1320
cur table: 1378
epoch: 1000
next table: 1163
cur table: 1193
epoch: 1000
next table: 1298
cur table: 1320
epoch: 1000
next table: 1188
cur table: 1163
epoch: 1000
next table: 1163
cur table: 1188
epoch: 1000
next table: 1303
cur table: 1298
epoch: 1000
next table: 1176
cur table: 1163
epoch: 1000
next table: 1181
cur table: 1176
epoch: 1000
next table: 1295
cur table: 1303
epoch: 1000
next table: 1172
cur table: 1181
epoch: 1000
next table: 1176
cur table: 1172
epoch: 1000
next table: 1351
cur table: 1295
epoch: 1000
next table: 1212
cur table: 1176
epoch: 1000
next table: 1195
cur table: 1212
epoch: 1000
next table: 1352
cur table: 1351
epoch: 1000
next table: 1176
cur table: 1195
epoch: 1000
next table: 1179
cur table: 1176
epoch: 1000
next table: 1347
cur table: 1352
epoch: 1000
next table: 1183
cur table: 1179
epoch: 1000
next table: 1191
cur table: 1183
epoch: 1000
next table: 1196
cur table: 1191
epoch: 1000
next table: 1365
cur table: 1347
epoch: 1000
next table: 1201
cur table: 1196
epoch: 1000
next table: 1179
cur table: 1201
epoch: 1000
next table: 1355
cur table: 1365
epoch: 1000
next table: 1170
cur table: 1179
epoch: 1000
next table: 1196
cur table: 1170
epoch: 1000
next table: 1362
cur table: 1355
epoch: 1000
next table: 1194
cur table: 1196
epoch: 1000
next table: 1234
cur table: 1194
epoch: 1000
next table: 1410
cur table: 1362
epoch: 1000
next table: 1195
cur table: 1234
epoch: 1000
next table: 1201
cur table: 1195
epoch: 1000
next table: 1392
cur table: 1410
epoch: 1000
next table: 1205
cur table: 1201
epoch: 1000
next table: 1180
cur table: 1205
epoch: 1000
next table: 1364
cur table: 1392
epoch: 1000
next table: 1188
cur table: 1180
epoch: 1000
next table: 1189
cur table: 1188
epoch: 1000
next table: 1358
cur table: 1364
epoch: 1000
next table: 1205
cur table: 1189
epoch: 1000
next table: 1188
cur table: 1205
epoch: 1000
next table: 1368
cur table: 1358
epoch: 1000
next table: 1188
cur table: 1188
epoch: 1000
next table: 1192
cur table: 1188
epoch: 1000
next table: 1359
cur table: 1368
epoch: 1000
next table: 1197
cur table: 1192
epoch: 1000
next table: 1168
cur table: 1197
epoch: 1000
next table: 1265
cur table: 1359
epoch: 1000
next table: 1179
cur table: 1168
epoch: 1000
next table: 1154
cur table: 1265
epoch: 1000
next table: 1199
cur table: 1179
epoch: 1000
next table: 1180
cur table: 1154
epoch: 1000
next table: 1186
cur table: 1199
epoch: 1000
next table: 1173
cur table: 1180
epoch: 1000
next table: 1179
cur table: 1186
epoch: 1000
next table: 1140
cur table: 1173
epoch: 1000
next table: 1182
cur table: 1179
epoch: 1000
next table: 1170
cur table: 1140
epoch: 1000
next table: 1168
cur table: 1182
epoch: 1000
next table: 1170
cur table: 1170
epoch: 1000
next table: 1184
cur table: 1168
epoch: 1000
next table: 1162
cur table: 1170
epoch: 1000
next table: 1183
cur table: 1184
epoch: 1000
next table: 1171
cur table: 1162
epoch: 1000
next table: 1196
cur table: 1183
epoch: 1000
next table: 1163
cur table: 1171
epoch: 1000
next table: 1176
cur table: 1196
epoch: 1000
next table: 1188
cur table: 1163
epoch: 1000
next table: 1213
cur table: 1176
epoch: 1000
next table: 1162
cur table: 1188
epoch: 1000
next table: 1186
cur table: 1213
epoch: 1000
next table: 1180
cur table: 1162
epoch: 1000
next table: 1177
cur table: 1186
epoch: 1000
next table: 1180
cur table: 1180
epoch: 1000
next table: 1177
cur table: 1177
epoch: 1000
next table: 1193
cur table: 1177
epoch: 1000
next table: 1201
cur table: 1180
epoch: 1000
next table: 1182
cur table: 1193
epoch: 1000
next table: 1164
cur table: 1201
epoch: 1000
next table: 1166
cur table: 1182
epoch: 1000
next table: 1152
cur table: 1164
epoch: 1000
next table: 1204
cur table: 1166
epoch: 1000
next table: 1183
cur table: 1152
epoch: 1000
next table: 1189
cur table: 1204
epoch: 1000
next table: 1162
cur table: 1183
epoch: 1000
next table: 1193
cur table: 1189
epoch: 1000
next table: 1180
cur table: 1162
epoch: 1000
next table: 1163
cur table: 1193
epoch: 1000
next table: 1143
cur table: 1180
epoch: 1000
next table: 1195
cur table: 1163
epoch: 1000
next table: 1172
cur table: 1143
epoch: 1000
next table: 1178
cur table: 1195
epoch: 1000
next table: 1158
cur table: 1172
epoch: 1000
next table: 1197
cur table: 1178
epoch: 1000
next table: 1174
cur table: 1158
epoch: 1000
next table: 1166
cur table: 1197
epoch: 1000
next table: 1152
cur table: 1174
epoch: 1000
next table: 1183
cur table: 1166
epoch: 1000
next table: 1161
cur table: 1152
epoch: 1000
next table: 1205
cur table: 1183
epoch: 1000
next table: 1185
cur table: 1161
epoch: 1000
next table: 1181
cur table: 1205
epoch: 1000
next table: 1163
cur table: 1185
epoch: 1000
next table: 1193
cur table: 1181
epoch: 1000
next table: 1183
cur table: 1163
epoch: 1000
next table: 1175
cur table: 1193
epoch: 1000
next table: 1157
cur table: 1183
epoch: 1000
next table: 1185
cur table: 1175
epoch: 1000
next table: 1166
cur table: 1157
epoch: 1000
next table: 1162
cur table: 1185
epoch: 1000
next table: 1146
cur table: 1166
epoch: 1000
next table: 1177
cur table: 1162
epoch: 1000
next table: 1164
cur table: 1146
epoch: 1000
next table: 1202
cur table: 1177
epoch: 1000
next table: 1187
cur table: 1164
epoch: 1000
next table: 1178
cur table: 1202
epoch: 1000
next table: 1162
cur table: 1187
epoch: 1000
next table: 1380
cur table: 1178
epoch: 1000
next table: 1378
cur table: 1162
epoch: 1000
next table: 1385
cur table: 1380
epoch: 1000
next table: 1384
cur table: 1378
epoch: 1000
next table: 1469
cur table: 1385
epoch: 1000
next table: 1446
cur table: 1384
epoch: 1000
next table: 1482
cur table: 1469
epoch: 1000
next table: 1457
cur table: 1446
epoch: 1000
next table: 1516
cur table: 1482
epoch: 1000
next table: 1490
cur table: 1457
epoch: 1000
next table: 1499
cur table: 1516
epoch: 1000
next table: 1474
cur table: 1490
epoch: 1000
next table: 1473
cur table: 1499
epoch: 1000
next table: 1451
cur table: 1474
epoch: 1000
next table: 1461
cur table: 1473
epoch: 1000
next table: 1444
cur table: 1451
epoch: 1000
next table: 1506
cur table: 1461
epoch: 1000
next table: 1477
cur table: 1444
epoch: 1000
next table: 1519
cur table: 1506
epoch: 1000
next table: 1483
cur table: 1477
epoch: 1000
next table: 1499
cur table: 1519
epoch: 1000
next table: 1481
cur table: 1483
epoch: 1000
next table: 1509
cur table: 1499
epoch: 1000
next table: 1477
cur table: 1481
epoch: 1000
next table: 1511
cur table: 1509
epoch: 1000
next table: 1486
cur table: 1477
epoch: 1000
next table: 1541
cur table: 1511
epoch: 1000
next table: 1512
cur table: 1486
epoch: 1000
next table: 1529
cur table: 1541
epoch: 1000
next table: 1488
cur table: 1512
epoch: 1000
next table: 1497
cur table: 1529
epoch: 1000
next table: 1481
cur table: 1488
epoch: 1000
next table: 1529
cur table: 1497
epoch: 1000
next table: 1496
cur table: 1481
epoch: 1000
next table: 1563
cur table: 1529
epoch: 1000
next table: 1505
cur table: 1496
epoch: 1000
next table: 1508
cur table: 1563
epoch: 1000
next table: 1488
cur table: 1505
epoch: 1000
next table: 1509
cur table: 1508
epoch: 1000
next table: 1488
cur table: 1488
epoch: 1000
next table: 1562
cur table: 1509
epoch: 1000
next table: 1510
cur table: 1488
epoch: 1000
next table: 1550
cur table: 1562
epoch: 1000
next table: 1504
cur table: 1510
epoch: 1000
next table: 1494
cur table: 1550
epoch: 1000
next table: 1501
cur table: 1504
epoch: 1000
next table: 1502
cur table: 1494
epoch: 1000
next table: 1494
cur table: 1501
epoch: 1000
next table: 1546
cur table: 1502
epoch: 1000
next table: 1521
cur table: 1494
epoch: 1000
next table: 1548
cur table: 1546
epoch: 1000
next table: 1517
cur table: 1521
epoch: 1000
next table: 1510
cur table: 1548
epoch: 1000
next table: 1484
cur table: 1517
epoch: 1000
next table: 1494
cur table: 1510
epoch: 1000
next table: 1460
cur table: 1484
epoch: 1000
next table: 1521
cur table: 1494
epoch: 1000
next table: 1508
cur table: 1460
epoch: 1000
next table: 1565
cur table: 1521
epoch: 1000
next table: 1510
cur table: 1508
epoch: 1000
next table: 1517
cur table: 1565
epoch: 1000
next table: 1490
cur table: 1510
epoch: 1000
next table: 1526
cur table: 1517
epoch: 1000
next table: 1489
cur table: 1490
epoch: 1000
next table: 1525
cur table: 1526
epoch: 1000
next table: 1501
cur table: 1489
epoch: 1000
next table: 1530
cur table: 1525
epoch: 1000
next table: 1490
cur table: 1501
epoch: 1000
next table: 1495
cur table: 1530
epoch: 1000
next table: 1470
cur table: 1490
epoch: 1000
next table: 1544
cur table: 1495
epoch: 1000
next table: 1490
cur table: 1470
epoch: 1000
next table: 1514
cur table: 1544
epoch: 1000
next table: 1489
cur table: 1490
epoch: 1000
next table: 1485
cur table: 1514
epoch: 1000
next table: 1462
cur table: 1489
epoch: 1000
next table: 1527
cur table: 1485
epoch: 1000
next table: 1473
cur table: 1462
epoch: 1000
next table: 1509
cur table: 1527
epoch: 1000
next table: 1507
cur table: 1473
epoch: 1000
next table: 1526
cur table: 1509
epoch: 1000
next table: 1477
cur table: 1507
epoch: 1000
next table: 1517
cur table: 1526
epoch: 1000
next table: 1490
cur table: 1477
epoch: 1000
next table: 1507
cur table: 1517
epoch: 1000
next table: 1483
cur table: 1490
epoch: 1000
next table: 1544
cur table: 1507
epoch: 1000
next table: 1494
cur table: 1483
epoch: 1000
next table: 1517
cur table: 1544
epoch: 1000
next table: 1477
cur table: 1494
epoch: 1000
next table: 1537
cur table: 1517
epoch: 1000
next table: 1490
cur table: 1477
epoch: 1000
next table: 1510
cur table: 1537
epoch: 1000
next table: 1494
cur table: 1490
epoch: 1000
next table: 1536
cur table: 1510
epoch: 1000
next table: 1492
cur table: 1494
epoch: 1000
next table: 1523
cur table: 1536
epoch: 1000
next table: 1484
cur table: 1492
epoch: 1000
next table: 1561
cur table: 1523
epoch: 1000
next table: 1453
cur table: 1484
epoch: 1000
next table: 1490
cur table: 1561
epoch: 1000
next table: 1475
cur table: 1453
epoch: 1000
next table: 1490
cur table: 1490
epoch: 1000
next table: 1478
cur table: 1475
epoch: 1000
next table: 1557
cur table: 1490
epoch: 1000
next table: 1488
cur table: 1478
epoch: 1000
next table: 1502
cur table: 1557
epoch: 1000
next table: 1478
cur table: 1488
epoch: 1000
next table: 1511
cur table: 1502
epoch: 1000
next table: 1489
cur table: 1478
epoch: 1000
next table: 1526
cur table: 1511
epoch: 1000
next table: 1480
cur table: 1489
epoch: 1000
next table: 1532
cur table: 1526
epoch: 1000
next table: 1508
cur table: 1480
epoch: 1000
next table: 1536
cur table: 1532
epoch: 1000
next table: 1508
cur table: 1508
epoch: 1000
next table: 1500
cur table: 1536
epoch: 1000
next table: 1470
cur table: 1508
epoch: 1000
next table: 1532
cur table: 1500
epoch: 1000
next table: 1475
cur table: 1470
epoch: 1000
next table: 1502
cur table: 1532
epoch: 1000
next table: 1489
cur table: 1475
epoch: 1000
next table: 1505
cur table: 1502
epoch: 1000
next table: 1496
cur table: 1489
epoch: 1000
next table: 1550
cur table: 1505
epoch: 1000
next table: 1495
cur table: 1496
epoch: 1000
next table: 1508
cur table: 1550
epoch: 1000
next table: 1443
cur table: 1495
epoch: 1000
next table: 1480
cur table: 1508
epoch: 1000
next table: 1462
cur table: 1443
epoch: 1000
next table: 1511
cur table: 1480
epoch: 1000
next table: 1476
cur table: 1462
epoch: 1000
next table: 1506
cur table: 1511
epoch: 1000
next table: 1483
cur table: 1476
epoch: 1000
next table: 1527
cur table: 1506
epoch: 1000
next table: 1475
cur table: 1483
epoch: 1000
next table: 1496
cur table: 1527
epoch: 1000
next table: 1418
cur table: 1475
epoch: 1000
next table: 1406
cur table: 1496
epoch: 1000
next table: 1367
cur table: 1418
epoch: 1000
next table: 1379
cur table: 1406
epoch: 1000
next table: 1349
cur table: 1367
epoch: 1000
next table: 1319
cur table: 1379
epoch: 1000
next table: 1257
cur table: 1349
epoch: 1000
next table: 1303
cur table: 1319
epoch: 1000
next table: 1281
cur table: 1257
epoch: 1000
next table: 1287
cur table: 1303
epoch: 1000
next table: 1246
cur table: 1281
epoch: 1000
next table: 1264
cur table: 1287
epoch: 1000
[...]
next table: 1521
cur table: 1511
epoch: 1000
next table: 1547
cur table: 1544
epoch: 1000
next table: 1486
cur table: 1521
epoch: 1000
next table: 1517
cur table: 1547
epoch: 1000
next table: 1484
cur table: 1517
epoch: 1000
next table: 1467
cur table: 1486
epoch: 1000
next table: 1513
cur table: 1484
epoch: 1000
next table: 1472
cur table: 1467
epoch: 1000
next table: 1527
cur table: 1513
epoch: 1000
next table: 1512
cur table: 1472
epoch: 1000
next table: 1503
cur table: 1527
epoch: 1000
next table: 1483
cur table: 1512
epoch: 1000
next table: 1528
cur table: 1503
epoch: 1000
next table: 1488
cur table: 1483
epoch: 1000
next table: 1489
cur table: 1528
epoch: 1000
next table: 1478
cur table: 1488
epoch: 1000
next table: 1496
cur table: 1489
epoch: 1000
next table: 1483
cur table: 1478
epoch: 1000
next table: 1572
cur table: 1496
epoch: 1000
next table: 1498
cur table: 1483
epoch: 1000
next table: 1524
cur table: 1572
epoch: 1000
next table: 1509
cur table: 1498
epoch: 1000
next table: 1512
cur table: 1524
epoch: 1000
next table: 1510
cur table: 1509
epoch: 1000
next table: 1515
cur table: 1512
epoch: 1000
next table: 1491
cur table: 1510
epoch: 1000
next table: 1487
cur table: 1515
epoch: 1000
next table: 1479
cur table: 1491
epoch: 1000
next table: 1538
cur table: 1487
epoch: 1000
next table: 1496
cur table: 1479
epoch: 1000
next table: 1486
cur table: 1538
epoch: 1000
next table: 1482
cur table: 1496
epoch: 1000
next table: 1500
cur table: 1486
epoch: 1000
next table: 1499
cur table: 1482
epoch: 1000
next table: 1535
cur table: 1500
Heartbeat CPU 0 instructions: 100000000 cycles: 153626243 heartbeat IPC: 0.401446 cumulative IPC: 0.362888 (Simulation time: 1 hr 39 min 27 sec) 
Finished CPU 0 instructions: 50000000 cycles: 137783435 cumulative IPC: 0.362888 (Simulation time: 1 hr 39 min 27 sec) 

ChampSim completed all CPUs

Region of Interest Statistics

CPU 0 cumulative IPC: 0.362888 instructions: 50000000 cycles: 137783435
ITLB TOTAL     ACCESS:    8295801  HIT:    8295801  MISS:          0  HIT %:        100  MISS %:          0   MPKI: 0
ITLB LOAD TRANSLATION ACCESS:    8295801  HIT:    8295801  MISS:          0  HIT %:        100  MISS %:          0   MPKI: 0
ITLB PREFETCH  REQUESTED:          0  ISSUED:          0  USEFUL:          0  USELESS:          0
ITLB USEFUL LOAD PREFETCHES:          0 PREFETCH ISSUED TO LOWER LEVEL:          0  ACCURACY: -nan
ITLB TIMELY PREFETCHES:          0 LATE PREFETCHES: 0 DROPPED PREFETCHES: 0
ITLB PREFETCHES SAME FILL-ORIGIN LEVEL: 0 DIFFERENT FILL-ORIGIN LEVEL: 0
ITLB AVERAGE MISS LATENCY: -nan cycles
ITLB RQ	ACCESS:   10791509	FORWARD:          0	MERGED:    2495708	TO_CACHE:    8295801

Revised Interactions: positive negative neutral
ITLB_interactions 0 0 0 -nan -nan -nan
DTLB TOTAL     ACCESS:   13407289  HIT:   13284274  MISS:     123015  HIT %:    99.0825  MISS %:   0.917523   MPKI: 2.4603
DTLB LOAD TRANSLATION ACCESS:   13407289  HIT:   13284274  MISS:     123015  HIT %:    99.0825  MISS %:   0.917523   MPKI: 2.4603
DTLB PREFETCH  REQUESTED:          0  ISSUED:          0  USEFUL:          0  USELESS:          0
DTLB USEFUL LOAD PREFETCHES:          0 PREFETCH ISSUED TO LOWER LEVEL:          0  ACCURACY: -nan
DTLB TIMELY PREFETCHES:          0 LATE PREFETCHES: 0 DROPPED PREFETCHES: 0
DTLB PREFETCHES SAME FILL-ORIGIN LEVEL: 0 DIFFERENT FILL-ORIGIN LEVEL: 0
DTLB AVERAGE MISS LATENCY: 38.2868 cycles
DTLB RQ	ACCESS:   23394573	FORWARD:          0	MERGED:    9968908	TO_CACHE:   13425665

Revised Interactions: positive negative neutral
DTLB_interactions 0 0 0 -nan -nan -nan
STLB TOTAL     ACCESS:    4002590  HIT:    3959340  MISS:      43250  HIT %:    98.9194  MISS %:    1.08055   MPKI: 0.865
STLB LOAD TRANSLATION ACCESS:     123015  HIT:      79776  MISS:      43239  HIT %:    64.8506  MISS %:    35.1494   MPKI: 0.86478
STLB TRANSLATION FROM L1D PREFETCHER ACCESS:    3879575  HIT:    3879564  MISS:         11  HIT %:    99.9997  MISS %: 0.000283536   MPKI: 0.00022
STLB PREFETCH  REQUESTED:          0  ISSUED:          0  USEFUL:          7  USELESS:          4
STLB USEFUL LOAD PREFETCHES:          7 PREFETCH ISSUED TO LOWER LEVEL:          0  ACCURACY: inf
STLB TIMELY PREFETCHES:          7 LATE PREFETCHES: 0 DROPPED PREFETCHES: 0
STLB PREFETCHES SAME FILL-ORIGIN LEVEL: 0 DIFFERENT FILL-ORIGIN LEVEL: 0
STLB AVERAGE MISS LATENCY: 83.2967 cycles
STLB RQ	ACCESS:    6237279	FORWARD:          0	MERGED:    2234689	TO_CACHE:    4002590

Revised Interactions: positive negative neutral
STLB_interactions 0 0 0 -nan -nan -nan
STLB Hit, L1D data hit: 0
STLB Hit, L2C data hit: 0
STLB Hit, LLC data hit: 0
STLB Hit, LLC data miss: 0
STLB STLB hints to L2: 0
L1D TOTAL     ACCESS:   28595960  HIT:   26237197  MISS:    2358763  HIT %:    91.7514  MISS %:    8.24859   MPKI: 47.1753
L1D LOAD      ACCESS:    9018654  HIT:    8246988  MISS:     771666  HIT %:    91.4437  MISS %:    8.55633   MPKI: 15.4333
L1D RFO       ACCESS:   13572920  HIT:   13434588  MISS:     138332  HIT %:    98.9808  MISS %:    1.01918   MPKI: 2.76664
L1D PREFETCH  ACCESS:    6004386  HIT:    4555621  MISS:    1448765  HIT %:    75.8716  MISS %:    24.1284   MPKI: 28.9753
L1D PREFETCH  REQUESTED:   12228741  ISSUED:   12228529  USEFUL:     457871  USELESS:     990894
L1D USEFUL LOAD PREFETCHES:     457871 PREFETCH ISSUED TO LOWER LEVEL:    1457741  ACCURACY: 31.4096
L1D TIMELY PREFETCHES:     457871 LATE PREFETCHES: 269264 DROPPED PREFETCHES: 0
L1D PREFETCHES SAME FILL-ORIGIN LEVEL: 1457741 DIFFERENT FILL-ORIGIN LEVEL: 0
L1D AVERAGE MISS LATENCY: 315938 cycles
L1D RQ	ACCESS:   15839502	FORWARD:          0	MERGED:    6465615	TO_CACHE:    9367611
L1D WQ	ACCESS:   14166007	FORWARD:       6277	MERGED:     139045	TO_CACHE:   14026962
L1D PQ	ACCESS:    6114265	FORWARD:          0	MERGED:          0	TO_CACHE:    6114264

Revised Interactions: positive negative neutral
L1D_interactions 0 0 0 -nan -nan -nan
L1D UNIQUE REGIONS ACCESSED: 0
L1D REGIONS CONFLICTS: 0
L1D Cross Page Prefetch Requests: 0
L1D Same Page Prefetch Requests: 12400387
L1D ROI Sum of L1D PQ occupancy: 88382317
L1D PREFETCHES PUSHED FROM L2C: 0
L1I TOTAL     ACCESS:   10791507  HIT:   10791507  MISS:          0  HIT %:        100  MISS %:          0   MPKI: 0
L1I LOAD      ACCESS:   10791507  HIT:   10791507  MISS:          0  HIT %:        100  MISS %:          0   MPKI: 0
L1I PREFETCH  REQUESTED:          0  ISSUED:          0  USEFUL:          0  USELESS:          0
L1I USEFUL LOAD PREFETCHES:          0 PREFETCH ISSUED TO LOWER LEVEL:          0  ACCURACY: -nan
L1I TIMELY PREFETCHES:          0 LATE PREFETCHES: 0 DROPPED PREFETCHES: 0
L1I PREFETCHES SAME FILL-ORIGIN LEVEL: 0 DIFFERENT FILL-ORIGIN LEVEL: 0
L1I AVERAGE MISS LATENCY: -nan cycles
L1I RQ	ACCESS:   14624684	FORWARD:          0	MERGED:    3833175	TO_CACHE:   10791509

Revised Interactions: positive negative neutral
L1I_interactions 0 0 0 -nan -nan -nan
BTB TOTAL     ACCESS:    4939330  HIT:    4939296  MISS:         34  HIT %:    99.9993  MISS %: 0.000688352   MPKI: 0.00068
BTB BRANCH_DIRECT_JUMP	ACCESS:     263981  HIT:     263975  MISS:          6
BTB BRANCH_INDIRECT	ACCESS:          0  HIT:          0  MISS:          0
BTB BRANCH_CONDITIONAL	ACCESS:    4675297  HIT:    4675273  MISS:         24
BTB BRANCH_DIRECT_CALL	ACCESS:         26  HIT:         24  MISS:          2
BTB BRANCH_INDIRECT_CALL	ACCESS:          0  HIT:          0  MISS:          0
BTB BRANCH_RETURN	ACCESS:         26  HIT:         24  MISS:          2
BTB BRANCH_OTHER ACCESS:          0  HIT:          0  MISS:          0

L2C TOTAL     ACCESS:    3119044  HIT:    1002824  MISS:    2116220  HIT %:    32.1516  MISS %:    67.8484   MPKI: 42.3244
L2C LOAD      ACCESS:     771660  HIT:      45726  MISS:     725934  HIT %:    5.92567  MISS %:    94.0743   MPKI: 14.5187
L2C DATA LOAD MPKI: 14.5187
L2C INSTRUCTION LOAD MPKI: 0
L2C RFO       ACCESS:     129356  HIT:       2191  MISS:     127165  HIT %:    1.69378  MISS %:    98.3062   MPKI: 2.5433
L2C PREFETCH  ACCESS:    1807283  HIT:     555362  MISS:    1251921  HIT %:    30.7291  MISS %:    69.2709   MPKI: 25.0384
L2C DATA PREFETCH MPKI: 25.0384
L2C INSTRUCTION PREFETCH MPKI: 0
L2C WRITEBACK ACCESS:     367405  HIT:     362490  MISS:       4915  HIT %:    98.6622  MISS %:    1.33776   MPKI: 0.0983
L2C LOAD TRANSLATION ACCESS:      43329  HIT:      37055  MISS:       6274  HIT %:    85.5201  MISS %:    14.4799   MPKI: 0.12548
L2C TRANSLATION FROM L1D PREFETCHER ACCESS:         11  HIT:          0  MISS:         11  HIT %:          0  MISS %:        100   MPKI: 0.00022
L2C PREFETCH  REQUESTED:     462148  ISSUED:     462148  USEFUL:      19275  USELESS:    1232554
L2C USEFUL LOAD PREFETCHES:      19275 PREFETCH ISSUED TO LOWER LEVEL:    1252135  ACCURACY: 1.53937
L2C TIMELY PREFETCHES:      19275 LATE PREFETCHES: 214 DROPPED PREFETCHES: 0
L2C PREFETCHES SAME FILL-ORIGIN LEVEL: 165899 DIFFERENT FILL-ORIGIN LEVEL: 0
L2C AVERAGE MISS LATENCY: 175.446 cycles
L2C RQ	ACCESS:     944363	FORWARD:          0	MERGED:          0	TO_CACHE:     944357
L2C WQ	ACCESS:     367405	FORWARD:         15	MERGED:          0	TO_CACHE:     367405
L2C PQ	ACCESS:    1919889	FORWARD:          0	MERGED:      18635	TO_CACHE:    1901245

Revised Interactions: positive negative neutral
L2C_interactions 16202 1240232 484596 0.930599 71.2355 27.8339
L2C Instructions Evicting Data 0
L2C Translations Evicting Data 6267
L2C Data Evicting Data 2098771
L2C Instructions Evicting Instructions 0
L2C Translations Evicting Instructions 0
L2C Data Evicting Instructions 0
L2C Instructions Evicting Translations 0
L2C Translations Evicting Translations 18
L2C Data Evicting Translations 6249
L2C Dense regions hint from L2: 0
PSCL5 TOTAL     ACCESS:      43250  HIT:      43250  MISS:          0  HIT %:        100  MISS %:          0   MPKI: 0
PSCL5 LOAD TRANSLATION ACCESS:      43239  HIT:      43239  MISS:          0  HIT %:        100  MISS %:          0   MPKI: 0
PSCL5 TRANSLATION FROM L1D PREFETCHER ACCESS:         11  HIT:         11  MISS:          0  HIT %:        100  MISS %:          0   MPKI: 0
PSCL5 PREFETCH  REQUESTED:          0  ISSUED:          0  USEFUL:          0  USELESS:          0
PSCL5 USEFUL LOAD PREFETCHES:          0 PREFETCH ISSUED TO LOWER LEVEL:          0  ACCURACY: -nan
PSCL5 TIMELY PREFETCHES:          0 LATE PREFETCHES: 0 DROPPED PREFETCHES: 0
PSCL5 PREFETCHES SAME FILL-ORIGIN LEVEL: 0 DIFFERENT FILL-ORIGIN LEVEL: 0

Revised Interactions: positive negative neutral
PSCL5_interactions 0 0 0 -nan -nan -nan
PSCL4 TOTAL     ACCESS:      43250  HIT:      43250  MISS:          0  HIT %:        100  MISS %:          0   MPKI: 0
PSCL4 LOAD TRANSLATION ACCESS:      43239  HIT:      43239  MISS:          0  HIT %:        100  MISS %:          0   MPKI: 0
PSCL4 TRANSLATION FROM L1D PREFETCHER ACCESS:         11  HIT:         11  MISS:          0  HIT %:        100  MISS %:          0   MPKI: 0
PSCL4 PREFETCH  REQUESTED:          0  ISSUED:          0  USEFUL:          0  USELESS:          0
PSCL4 USEFUL LOAD PREFETCHES:          0 PREFETCH ISSUED TO LOWER LEVEL:          0  ACCURACY: -nan
PSCL4 TIMELY PREFETCHES:          0 LATE PREFETCHES: 0 DROPPED PREFETCHES: 0
PSCL4 PREFETCHES SAME FILL-ORIGIN LEVEL: 0 DIFFERENT FILL-ORIGIN LEVEL: 0

Revised Interactions: positive negative neutral
PSCL4_interactions 0 0 0 -nan -nan -nan
PSCL3 TOTAL     ACCESS:      43250  HIT:      43250  MISS:          0  HIT %:        100  MISS %:          0   MPKI: 0
PSCL3 LOAD TRANSLATION ACCESS:      43239  HIT:      43239  MISS:          0  HIT %:        100  MISS %:          0   MPKI: 0
PSCL3 TRANSLATION FROM L1D PREFETCHER ACCESS:         11  HIT:         11  MISS:          0  HIT %:        100  MISS %:          0   MPKI: 0
PSCL3 PREFETCH  REQUESTED:          0  ISSUED:          0  USEFUL:          0  USELESS:          0
PSCL3 USEFUL LOAD PREFETCHES:          0 PREFETCH ISSUED TO LOWER LEVEL:          0  ACCURACY: -nan
PSCL3 TIMELY PREFETCHES:          0 LATE PREFETCHES: 0 DROPPED PREFETCHES: 0
PSCL3 PREFETCHES SAME FILL-ORIGIN LEVEL: 0 DIFFERENT FILL-ORIGIN LEVEL: 0

Revised Interactions: positive negative neutral
PSCL3_interactions 0 0 0 -nan -nan -nan
PSCL2 TOTAL     ACCESS:      43250  HIT:      43125  MISS:        125  HIT %:     99.711  MISS %:   0.289017   MPKI: 0.0025
PSCL2 LOAD TRANSLATION ACCESS:      43239  HIT:      43114  MISS:        125  HIT %:    99.7109  MISS %:   0.289091   MPKI: 0.0025
PSCL2 TRANSLATION FROM L1D PREFETCHER ACCESS:         11  HIT:         11  MISS:          0  HIT %:        100  MISS %:          0   MPKI: 0
PSCL2 PREFETCH  REQUESTED:          0  ISSUED:          0  USEFUL:          0  USELESS:          0
PSCL2 USEFUL LOAD PREFETCHES:          0 PREFETCH ISSUED TO LOWER LEVEL:          0  ACCURACY: -nan
PSCL2 TIMELY PREFETCHES:          0 LATE PREFETCHES: 0 DROPPED PREFETCHES: 0
PSCL2 PREFETCHES SAME FILL-ORIGIN LEVEL: 0 DIFFERENT FILL-ORIGIN LEVEL: 0

Revised Interactions: positive negative neutral
PSCL2_interactions 0 0 0 -nan -nan -nan
LLC TOTAL     ACCESS:    2445042  HIT:     197601  MISS:    2247441  HIT %:     8.0817  MISS %:    91.9183   MPKI: 44.9488
LLC LOAD      ACCESS:     725720  HIT:     102321  MISS:     623399  HIT %:    14.0992  MISS %:    85.9008   MPKI: 12.468
LLC RFO       ACCESS:     127165  HIT:         69  MISS:     127096  HIT %:  0.0542602  MISS %:    99.9457   MPKI: 2.54192
LLC PREFETCH  ACCESS:    1252135  HIT:      71426  MISS:    1180709  HIT %:    5.70434  MISS %:    94.2957   MPKI: 23.6142
LLC WRITEBACK ACCESS:     333737  HIT:      23067  MISS:     310670  HIT %:    6.91173  MISS %:    93.0883   MPKI: 6.2134
LLC LOAD TRANSLATION ACCESS:       6274  HIT:        712  MISS:       5562  HIT %:    11.3484  MISS %:    88.6516   MPKI: 0.11124
LLC TRANSLATION FROM L1D PREFETCHER ACCESS:         11  HIT:          6  MISS:          5  HIT %:    54.5455  MISS %:    45.4545   MPKI: 0.0001
LLC PREFETCH  REQUESTED:          0  ISSUED:          0  USEFUL:       7093  USELESS:    1178546
LLC USEFUL LOAD PREFETCHES:       7093 PREFETCH ISSUED TO LOWER LEVEL:    1180709  ACCURACY: 0.600741
LLC TIMELY PREFETCHES:       7093 LATE PREFETCHES: 0 DROPPED PREFETCHES: 0
LLC PREFETCHES SAME FILL-ORIGIN LEVEL: 0 DIFFERENT FILL-ORIGIN LEVEL: 0
LLC AVERAGE MISS LATENCY: 136.862 cycles
LLC RQ	ACCESS:     859171	FORWARD:          0	MERGED:          0	TO_CACHE:     859171
LLC WQ	ACCESS:     333737	FORWARD:          0	MERGED:          0	TO_CACHE:     333737
LLC PQ	ACCESS:    1252135	FORWARD:          0	MERGED:          0	TO_CACHE:    1252135

Revised Interactions: positive negative neutral
LLC_interactions 131 1179793 388411 0.00835281 75.2258 24.7658
LLC Dense regions hint to LLC: 0

RAW hits: 376011
Loads Generated: 16215513
Loads sent to L1D: 15839502
Stores Generated: 14166002
Stores sent to L1D: 14166007
Major fault: 0 Minor fault: 31203
Allocated PAGES: 31203

stream: 
stream:times selected: 11954312
stream:pref_filled: 1246464
stream:pref_useful: 274135
stream:pref_late: 120685
stream:misses: 199282
stream:misses_by_poll: 0

CS: 
CS:times selected: 390355
CS:pref_filled: 270713
CS:pref_useful: 268665
CS:pref_late: 1083
CS:misses: 3030
CS:misses_by_poll: 223

CPLX: 
CPLX:times selected: 11475828
CPLX:pref_filled: 1245311
CPLX:pref_useful: 398230
CPLX:pref_late: 286357
CPLX:misses: 1434958
CPLX:misses_by_poll: 4018

NL_L1: 
NL:times selected: 115204
NL:pref_filled: 15823
NL:pref_useful: 6224
NL:pref_late: 2483
NL:misses: 29633
NL:misses_by_poll: 3

total selections: 23935699
total_filled: 1448765
total_useful: 457871
total_late: 410609
total_polluted: 4244
total_misses_after_warmup: 1120622
conflicts: 21359
Degree Incremented Times: 72707
Degree Decremented Times: 257424

L1 IP Table Write Accesses: 9279413
L1 IP Table Read Accesses: 9258054
L1 RST Write Accesses: 5913169
L1 RST Read Accesses: 11826338
L1 CSPT Write Accesses: 5913169
L1 CSPT Read Accesses: 11550077
L1 RR Filter Tag Write Accesses: 6114477
L1 RR Filter Tag Read Accesses: 279683749
L1 IP Table Tag Write Accesses: 9367610
L1 IP Table Tag Read Accesses: 9367610
L1 RST Tag Write Accesses: 0
L1 RST Tag Read Accesses: 56665912
L1 RR Filter Write Accesses: 0
L1 RR Filter Read Accesses: 9236709
test: 6576583
L2 IP Table Read Accesses: 4341295
L2 IP Table Write Accesses: 3625260
L2 IP Table Tag Read Accesses: 2198387
L2 IP Table Tag Write Accesses: 2198387

DRAM Statistics
 CHANNEL 0
 RQ ROW_BUFFER_HIT:     930111  ROW_BUFFER_MISS:    1006642
 DBUS_CONGESTED:       1628
 WQ ROW_BUFFER_HIT:      85512  ROW_BUFFER_MISS:     244900  FULL:          0

 AVG_CONGESTED_CYCLE: 5
 All warmup complete: 2
Channel 0 Bank busy for read cycles: 0
Channel 0 Bank busy for write cycles: 0
Channel 0
Rank 0
0banks busy for read cycles: 33326214
0banks busy for write cycles: 61916
1banks busy for read cycles: 29880199
1banks busy for write cycles: 8876673
2banks busy for read cycles: 18059946
2banks busy for write cycles: 5878142
3banks busy for read cycles: 10616457
3banks busy for write cycles: 4043072
4banks busy for read cycles: 5583341
4banks busy for write cycles: 2713240
5banks busy for read cycles: 3879583
5banks busy for write cycles: 1742616
6banks busy for read cycles: 3461522
6banks busy for write cycles: 1050376
7banks busy for read cycles: 2946637
7banks busy for write cycles: 822385
8banks busy for read cycles: 2143475
8banks busy for write cycles: 2697642

CPU 0 Branch Prediction Accuracy: 98.167% MPKI: 1.85038 Average ROB Occupancy at Mispredict: 205.957
Branch types
NOT_BRANCH: 44952507 89.905%
BRANCH_DIRECT_JUMP: 263981 0.527962%
BRANCH_INDIRECT: 0 0%
BRANCH_CONDITIONAL: 4783422 9.56684%
BRANCH_DIRECT_CALL: 26 5.2e-05%
BRANCH_INDIRECT_CALL: 0 0%
BRANCH_RETURN: 26 5.2e-05%
BRANCH_OTHER: 0 0%

@sumon_overall_L1D    457871    269264    269264    990894   1448765  12228529  12228741
@Sumon_Early_by_class_L1D    132512    157719    164737      1826
@Sumon_Late_by_class_L1D     79931       969    133597      1826

@Sumon_Early_by_cycle_L1D    118680     73569     69347     30073     14920     41370     18781     21360     32878     23172     10796      2925
@Sumon_Late_by_cycle_L1D      8009     19709     33333     35926    118058      1288
@Sumon_Early_stream_L1D     63848     28925      8425       799        70      8701      7445      4916      4305      3308      1061       709
@Sumon_Early_CS_L1D      9448     14363     44120     25646     13775     19683      4695      8790     16812       379         4         4
@Sumon_Early_CPLX_L1D     43632     29772     16717      3619      1074     12925      6567      7522     11629     19392      9699      2189
@Sumon_Late_stream_L1D      3465     11085     12136     16984     35938       323
@Sumon_Late_CS_L1D       159       217       176       241       175         1
@Sumon_Late_CPLX_L1D      4279      8243     20720     18249     81158       948
@sumon_overall_L2C     19275       214         0   1232554   1251932    462148    462148
@Sumon_Early_by_class_L2C      2456      1300     13098         0
@Sumon_Late_by_class_L2C         0       194         0         0

@Sumon_Early_by_cycle_L2C       169       206       348       237       123       181       120       177       500      1646      3700     11868
@Sumon_Late_by_cycle_L2C        13        28        28        62        83         0
@Sumon_Early_stream_L2C         0         0         0         0         0         0         1         3       101       392       597      1362
@Sumon_Early_CS_L2C       169       205       345       235       123       116        48        10        34        14         0         1
@Sumon_Early_CPLX_L2C         0         0         0         0         0         0         0         1        46       652      2746      9653
@Sumon_Late_stream_L2C         0         0         0         0         0         0
@Sumon_Late_CS_L2C         0        28        28        60        78         0
@Sumon_Late_CPLX_L2C         0         0         0         0         0         0
DRAM PAGES: 1048576
Allocated PAGES: 31203
