
*** ChampSim Multicore Out-of-Order Simulator ***

Warmup Instructions: 50000000
Simulation Instructions: 50000000
Number of CPUs: 1
LLC sets: 2048
LLC ways: 16
Off-chip DRAM Size: 4096 MB Channels: 1 Width: 64-bit Data Rate: 6400 MT/s
CPU 0 runs ../../biswa/SPEC2017Traces/619.lbm_s-2677B.champsimtrace.xz
.xz
CPU 0 Bimodal branch predictor
BTB has LRU replacement policy
ITLB has LRU replacement policy
DTLB has LRU replacement policy
STLB has LRU replacement policy
L1I has LRU replacement policy
IP Table Entries: 256
L1D has LRU replacement policy
IP_Table L2 entries: 256
Initialize DRRIP state for L2C
Initialize Hawkeye state
epoch: 1000
next table: 2633
cur table: 11611
epoch: 1000
next table: 2449
cur table: 2633
epoch: 1000
next table: 2422
cur table: 2449
epoch: 1000
next table: 2391
cur table: 2422
epoch: 1000
next table: 2408
cur table: 2391
epoch: 1000
next table: 2418
cur table: 2408
epoch: 1000
next table: 2406
cur table: 2418
epoch: 1000
next table: 2429
cur table: 2406
epoch: 1000
next table: 2391
cur table: 2429
epoch: 1000
next table: 2438
cur table: 2391
epoch: 1000
next table: 2388
cur table: 2438
epoch: 1000
next table: 2394
cur table: 2388
epoch: 1000
next table: 2349
cur table: 2394
epoch: 1000
next table: 2333
cur table: 2349
epoch: 1000
next table: 2291
cur table: 2333
epoch: 1000
next table: 2344
cur table: 2291
epoch: 1000
next table: 2340
cur table: 2344
epoch: 1000
next table: 2346
cur table: 2340
epoch: 1000
next table: 2383
cur table: 2346
epoch: 1000
next table: 2361
cur table: 2383
epoch: 1000
next table: 2375
cur table: 2361
epoch: 1000
next table: 2364
cur table: 2375
epoch: 1000
next table: 2415
cur table: 2364
epoch: 1000
next table: 2408
cur table: 2415
epoch: 1000
next table: 2401
cur table: 2408
epoch: 1000
next table: 2295
cur table: 26850
epoch: 1000
next table: 2405
cur table: 2401
epoch: 1000
next table: 2375
cur table: 2405
epoch: 1000
next table: 1885
cur table: 2295
epoch: 1000
next table: 2354
cur table: 2375
epoch: 1000
next table: 1831
cur table: 1885
epoch: 1000
next table: 2411
cur table: 2354
epoch: 1000
next table: 1818
cur table: 1831
epoch: 1000
next table: 2418
cur table: 2411
epoch: 1000
next table: 1801
cur table: 1818
epoch: 1000
next table: 2386
cur table: 2418
epoch: 1000
next table: 1784
cur table: 1801
epoch: 1000
next table: 2390
cur table: 2386
epoch: 1000
next table: 1793
cur table: 1784
epoch: 1000
next table: 2341
cur table: 2390
epoch: 1000
next table: 1812
cur table: 1793
epoch: 1000
next table: 2361
cur table: 2341
epoch: 1000
next table: 1800
cur table: 1812
epoch: 1000
next table: 2383
cur table: 2361
epoch: 1000
next table: 1797
cur table: 1800
epoch: 1000
next table: 2377
cur table: 2383
epoch: 1000
next table: 1796
cur table: 1797
epoch: 1000
next table: 2374
cur table: 2377
epoch: 1000
next table: 1771
cur table: 1796
epoch: 1000
next table: 2406
cur table: 2374
epoch: 1000
next table: 1755
cur table: 1771
epoch: 1000
next table: 2420
cur table: 2406
epoch: 1000
next table: 1755
cur table: 1755
epoch: 1000
next table: 2408
cur table: 2420
epoch: 1000
next table: 1761
cur table: 1755
epoch: 1000
next table: 2425
cur table: 2408
epoch: 1000
next table: 1769
cur table: 1761
epoch: 1000
next table: 2406
cur table: 2425
epoch: 1000
next table: 1764
cur table: 1769
epoch: 1000
next table: 2420
cur table: 2406
epoch: 1000
next table: 1766
cur table: 1764
epoch: 1000
next table: 2402
cur table: 2420
epoch: 1000
next table: 1766
cur table: 1766
epoch: 1000
next table: 2382
cur table: 2402
epoch: 1000
next table: 1771
cur table: 1766
epoch: 1000
next table: 2404
cur table: 2382
epoch: 1000
next table: 1781
cur table: 1771
epoch: 1000
next table: 2401
cur table: 2404
epoch: 1000
next table: 1787
cur table: 1781
epoch: 1000
next table: 2382
cur table: 2401
epoch: 1000
next table: 1783
cur table: 1787
epoch: 1000
next table: 2395
cur table: 2382
epoch: 1000
next table: 1788
cur table: 1783
epoch: 1000
next table: 2353
cur table: 2395
epoch: 1000
next table: 1771
cur table: 1788
epoch: 1000
next table: 2395
cur table: 2353
epoch: 1000
next table: 1768
cur table: 1771
epoch: 1000
next table: 2408
cur table: 2395
epoch: 1000
next table: 1760
cur table: 1768
epoch: 1000
next table: 2413
cur table: 2408
epoch: 1000
next table: 1765
cur table: 1760
epoch: 1000
next table: 2417
cur table: 2413
epoch: 1000
next table: 1771
cur table: 1765
epoch: 1000
next table: 2407
cur table: 2417
epoch: 1000
next table: 1787
cur table: 1771
epoch: 1000
next table: 2358
cur table: 2407
epoch: 1000
next table: 1788
cur table: 1787
epoch: 1000
next table: 2386
cur table: 2358
epoch: 1000
next table: 1764
cur table: 1788
epoch: 1000
next table: 2382
cur table: 2386
epoch: 1000
next table: 1779
cur table: 1764
epoch: 1000
next table: 2400
cur table: 2382
epoch: 1000
next table: 1769
cur table: 1779
epoch: 1000
next table: 2403
cur table: 2400
epoch: 1000
next table: 1779
cur table: 1769
epoch: 1000
next table: 2385
cur table: 2403
epoch: 1000
next table: 1784
cur table: 1779
epoch: 1000
next table: 2367
cur table: 2385
epoch: 1000
next table: 1790
cur table: 1784
epoch: 1000
next table: 2374
cur table: 2367
epoch: 1000
next table: 1767
cur table: 1790
epoch: 1000
next table: 2408
cur table: 2374
epoch: 1000
next table: 1764
cur table: 1767
epoch: 1000
next table: 2415
cur table: 2408
epoch: 1000
next table: 1759
cur table: 1764
epoch: 1000
next table: 2421
cur table: 2415
epoch: 1000
next table: 1757
cur table: 1759
epoch: 1000
next table: 2410
cur table: 2421
epoch: 1000
next table: 1765
cur table: 1757
epoch: 1000
next table: 2387
cur table: 2410
epoch: 1000
next table: 1765
cur table: 1765
epoch: 1000
next table: 2415
cur table: 2387
epoch: 1000
next table: 1775
cur table: 1765
epoch: 1000
next table: 2406
cur table: 2415
epoch: 1000
next table: 2372
cur table: 2406
epoch: 1000
next table: 1786
cur table: 1775
epoch: 1000
next table: 2407
cur table: 2372
epoch: 1000
next table: 1777
cur table: 1786
epoch: 1000
next table: 2384
cur table: 2407
epoch: 1000
next table: 1788
cur table: 1777
epoch: 1000
next table: 2387
cur table: 2384
epoch: 1000
next table: 1779
cur table: 1788
epoch: 1000
next table: 2413
cur table: 2387
epoch: 1000
next table: 1761
cur table: 1779
epoch: 1000
next table: 2414
cur table: 2413
epoch: 1000
next table: 1755
cur table: 1761
epoch: 1000
next table: 2410
cur table: 2414
epoch: 1000
next table: 1760
cur table: 1755
epoch: 1000
next table: 2409
cur table: 2410
epoch: 1000
next table: 1762
cur table: 1760
epoch: 1000
next table: 2408
cur table: 2409
epoch: 1000
next table: 1764
cur table: 1762
epoch: 1000
next table: 2429
cur table: 2408
epoch: 1000
next table: 1759
cur table: 1764
epoch: 1000
next table: 2404
cur table: 2429
epoch: 1000
next table: 1757
cur table: 1759
epoch: 1000
next table: 2414
cur table: 2404
epoch: 1000
next table: 1759
cur table: 1757
epoch: 1000
next table: 2413
cur table: 2414
epoch: 1000
next table: 1769
cur table: 1759
epoch: 1000
next table: 2412
cur table: 2413
epoch: 1000
next table: 1759
cur table: 1769
epoch: 1000
next table: 2426
cur table: 2412
epoch: 1000
next table: 1757
cur table: 1759
epoch: 1000
next table: 2422
cur table: 2426
epoch: 1000
next table: 1753
cur table: 1757
epoch: 1000
next table: 2425
cur table: 2422
epoch: 1000
next table: 1755
cur table: 1753
epoch: 1000
next table: 2419
cur table: 2425
epoch: 1000
next table: 1755
cur table: 1755
epoch: 1000
next table: 2436
cur table: 2419
epoch: 1000
next table: 1757
cur table: 1755
epoch: 1000
next table: 2421
cur table: 2436
epoch: 1000
next table: 1760
cur table: 1757
epoch: 1000
next table: 2408
cur table: 2421
epoch: 1000
next table: 1759
cur table: 1760
epoch: 1000
next table: 2415
cur table: 2408
epoch: 1000
next table: 1762
cur table: 1759
epoch: 1000
next table: 2420
cur table: 2415
epoch: 1000
next table: 1761
cur table: 1762
epoch: 1000
next table: 2418
cur table: 2420
epoch: 1000
next table: 1763
cur table: 1761
epoch: 1000
next table: 2427
cur table: 2418
epoch: 1000
next table: 1754
cur table: 1763
epoch: 1000
next table: 2415
cur table: 2427
epoch: 1000
next table: 1756
cur table: 1754
epoch: 1000
next table: 2425
cur table: 2415
epoch: 1000
next table: 1757
cur table: 1756
epoch: 1000
next table: 2423
cur table: 2425
epoch: 1000
next table: 1749
cur table: 1757
epoch: 1000
next table: 2429
cur table: 2423
epoch: 1000
next table: 1771
cur table: 1749
epoch: 1000
next table: 2421
cur table: 2429
epoch: 1000
next table: 1749
cur table: 1771
epoch: 1000
next table: 2415
cur table: 2421
epoch: 1000
next table: 1760
cur table: 1749
epoch: 1000
next table: 2409
cur table: 2415
epoch: 1000
next table: 1763
cur table: 1760
epoch: 1000
next table: 2421
cur table: 2409
epoch: 1000
next table: 1765
cur table: 1763
epoch: 1000
next table: 2418
cur table: 2421
epoch: 1000
next table: 1757
cur table: 1765
epoch: 1000
next table: 2423
cur table: 2418
epoch: 1000
next table: 1752
cur table: 1757
epoch: 1000
next table: 2423
cur table: 2423
epoch: 1000
next table: 1751
cur table: 1752
epoch: 1000
next table: 2440
cur table: 2423
epoch: 1000
next table: 1760
cur table: 1751
epoch: 1000
next table: 2413
cur table: 2440
epoch: 1000
next table: 1762
cur table: 1760
epoch: 1000
next table: 2428
cur table: 2413
epoch: 1000
next table: 1756
cur table: 1762
epoch: 1000
next table: 2425
cur table: 2428
epoch: 1000
next table: 1759
cur table: 1756
epoch: 1000
next table: 2391
cur table: 2425
epoch: 1000
next table: 1768
cur table: 1759
epoch: 1000
next table: 2390
cur table: 2391
epoch: 1000
next table: 1774
cur table: 1768
epoch: 1000
next table: 2417
cur table: 2390
epoch: 1000
next table: 1766
cur table: 1774
epoch: 1000
next table: 2412
cur table: 2417
epoch: 1000
next table: 1766
cur table: 1766
epoch: 1000
next table: 2400
cur table: 2412
epoch: 1000
next table: 1758
cur table: 1766
epoch: 1000
next table: 2441
cur table: 2400
epoch: 1000
next table: 1762
cur table: 1758
epoch: 1000
next table: 2425
cur table: 2441
epoch: 1000
next table: 1766
cur table: 1762
epoch: 1000
next table: 2408
cur table: 2425
epoch: 1000
next table: 1751
cur table: 1766
epoch: 1000
next table: 2406
cur table: 2408
epoch: 1000
next table: 1770
cur table: 1751
epoch: 1000
next table: 2408
cur table: 2406
epoch: 1000
next table: 1765
cur table: 1770
epoch: 1000
next table: 2391
cur table: 2408
epoch: 1000
next table: 1773
cur table: 1765
epoch: 1000
next table: 2385
cur table: 2391
epoch: 1000
next table: 1775
cur table: 1773
epoch: 1000
next table: 2396
cur table: 2385
epoch: 1000
next table: 1796
cur table: 1775
epoch: 1000
next table: 2358
cur table: 2396
epoch: 1000
next table: 1774
cur table: 1796
epoch: 1000
next table: 2367
cur table: 2358
epoch: 1000
next table: 1769
cur table: 1774
epoch: 1000
next table: 2401
cur table: 2367
epoch: 1000
next table: 1768
cur table: 1769
epoch: 1000
next table: 2414
cur table: 2401
epoch: 1000
next table: 1766
cur table: 1768
epoch: 1000
next table: 2411
cur table: 2414
epoch: 1000
next table: 1761
cur table: 1766
epoch: 1000
next table: 2436
cur table: 2411
epoch: 1000
next table: 1757
cur table: 1761
epoch: 1000
next table: 2430
cur table: 2436
epoch: 1000
next table: 1773
cur table: 1757
epoch: 1000
next table: 2396
cur table: 2430
epoch: 1000
next table: 1775
cur table: 1773
epoch: 1000
next table: 2396
cur table: 2396
epoch: 1000
next table: 1767
cur table: 1775
epoch: 1000
next table: 2399
cur table: 2396
epoch: 1000
next table: 1761
cur table: 1767
epoch: 1000
next table: 2418
cur table: 2399
epoch: 1000
next table: 1761
cur table: 1761
epoch: 1000
next table: 2419
cur table: 2418
epoch: 1000
next table: 1757
cur table: 1761
epoch: 1000
next table: 2413
cur table: 2419
epoch: 1000
next table: 1763
cur table: 1757
epoch: 1000
next table: 2421
cur table: 2413
epoch: 1000
next table: 1763
cur table: 1763
epoch: 1000
next table: 2433
cur table: 2421
epoch: 1000
next table: 1769
cur table: 1763
epoch: 1000
next table: 2404
cur table: 2433
epoch: 1000
next table: 1762
cur table: 1769
epoch: 1000
next table: 2411
cur table: 2404
epoch: 1000
next table: 1763
cur table: 1762
epoch: 1000
next table: 2421
cur table: 2411
epoch: 1000
next table: 1764
cur table: 1763
epoch: 1000
next table: 2409
cur table: 2421
epoch: 1000
next table: 1754
cur table: 1764
epoch: 1000
next table: 2421
cur table: 2409
epoch: 1000
next table: 1770
cur table: 1754
epoch: 1000
next table: 2381
cur table: 2421
epoch: 1000
next table: 1774
cur table: 1770
epoch: 1000
next table: 2412
cur table: 2381
epoch: 1000
next table: 1786
cur table: 1774
epoch: 1000
next table: 2330
cur table: 2412
epoch: 1000
next table: 1795
cur table: 1786
epoch: 1000
next table: 2374
cur table: 2330
epoch: 1000
next table: 1781
cur table: 1795
epoch: 1000
next table: 2413
cur table: 2374
epoch: 1000
next table: 1789
cur table: 1781
epoch: 1000
next table: 2384
cur table: 2413
epoch: 1000
next table: 1769
cur table: 1789
epoch: 1000
next table: 2423
cur table: 2384
epoch: 1000
next table: 1765
cur table: 1769
epoch: 1000
next table: 2403
cur table: 2423
epoch: 1000
next table: 1762
cur table: 1765
epoch: 1000
next table: 2406
cur table: 2403
epoch: 1000
next table: 1757
cur table: 1762
epoch: 1000
next table: 2402
cur table: 2406
epoch: 1000
next table: 1754
cur table: 1757
epoch: 1000
next table: 2412
cur table: 2402
epoch: 1000
next table: 1758
cur table: 1754
epoch: 1000
next table: 2420
cur table: 2412
epoch: 1000
next table: 1791
cur table: 1758
epoch: 1000
next table: 2371
cur table: 2420
epoch: 1000
next table: 1784
cur table: 1791
epoch: 1000
next table: 2386
cur table: 2371
epoch: 1000
next table: 1794
cur table: 1784
epoch: 1000
next table: 2351
cur table: 2386
epoch: 1000
next table: 1783
cur table: 1794
epoch: 1000
next table: 2406
cur table: 2351
epoch: 1000
next table: 1787
cur table: 1783
epoch: 1000
next table: 2373
cur table: 2406
epoch: 1000
next table: 1783
cur table: 1787
epoch: 1000
next table: 2383
cur table: 2373
epoch: 1000
next table: 1775
cur table: 1783
epoch: 1000
next table: 2400
cur table: 2383
epoch: 1000
next table: 1761
cur table: 1775
epoch: 1000
next table: 2404
cur table: 2400
epoch: 1000
next table: 1776
cur table: 1761
epoch: 1000
next table: 2341
cur table: 2404
epoch: 1000
next table: 1816
cur table: 1776
epoch: 1000
next table: 2354
cur table: 2341
epoch: 1000
next table: 1784
cur table: 1816
epoch: 1000
next table: 2385
cur table: 2354
epoch: 1000
next table: 1784
cur table: 1784
epoch: 1000
next table: 2379
cur table: 2385
epoch: 1000
next table: 1755
cur table: 1784
epoch: 1000
next table: 2421
cur table: 2379
epoch: 1000
next table: 1754
cur table: 1755
epoch: 1000
next table: 2403
cur table: 2421
epoch: 1000
next table: 1757
cur table: 1754
epoch: 1000
next table: 2435
cur table: 2403
epoch: 1000
next table: 1765
cur table: 1757
epoch: 1000
next table: 2407
cur table: 2435
epoch: 1000
next table: 1753
cur table: 1765
epoch: 1000
next table: 2431
cur table: 2407
epoch: 1000
next table: 1767
cur table: 1753
epoch: 1000
next table: 2416
cur table: 2431
epoch: 1000
next table: 1799
cur table: 1767
epoch: 1000
next table: 2346
cur table: 2416
epoch: 1000
next table: 1789
cur table: 1799
epoch: 1000
next table: 2371
cur table: 2346
epoch: 1000
next table: 1774
cur table: 1789
epoch: 1000
next table: 2399
cur table: 2371
epoch: 1000
next table: 1763
cur table: 1774
epoch: 1000
next table: 2420
cur table: 2399
epoch: 1000
next table: 1768
cur table: 1763
epoch: 1000
next table: 2408
cur table: 2420
epoch: 1000
next table: 1758
cur table: 1768
epoch: 1000
next table: 2427
cur table: 2408
epoch: 1000
next table: 1769
cur table: 1758
epoch: 1000
next table: 2407
cur table: 2427
epoch: 1000
next table: 1775
cur table: 1769
epoch: 1000
next table: 2367
cur table: 2407
epoch: 1000
next table: 1794
cur table: 1775
epoch: 1000
next table: 2356
cur table: 2367
epoch: 1000
next table: 1776
cur table: 1794
epoch: 1000
next table: 2393
cur table: 2356
epoch: 1000
next table: 1770
cur table: 1776
epoch: 1000
next table: 2403
cur table: 2393
epoch: 1000
next table: 1770
cur table: 1770
epoch: 1000
next table: 2420
cur table: 2403
epoch: 1000
next table: 2344
cur table: 2420
epoch: 1000
next table: 1774
cur table: 1770
epoch: 1000
next table: 2372
cur table: 2344
epoch: 1000
next table: 1787
cur table: 1774
epoch: 1000
next table: 2376
cur table: 2372
epoch: 1000
next table: 1782
cur table: 1787
epoch: 1000
next table: 2398
cur table: 2376
epoch: 1000
next table: 1787
cur table: 1782
epoch: 1000
next table: 2392
cur table: 2398
epoch: 1000
next table: 1767
cur table: 1787
epoch: 1000
next table: 2404
cur table: 2392
epoch: 1000
next table: 1766
cur table: 1767
epoch: 1000
next table: 2401
cur table: 2404
epoch: 1000
next table: 1778
cur table: 1766
epoch: 1000
next table: 2383
cur table: 2401
epoch: 1000
next table: 1773
cur table: 1778
epoch: 1000
next table: 2390
cur table: 2383
epoch: 1000
next table: 1780
cur table: 1773
epoch: 1000
next table: 2364
cur table: 2390
epoch: 1000
next table: 1794
cur table: 1780
epoch: 1000
next table: 2342
cur table: 2364
epoch: 1000
next table: 1782
cur table: 1794
epoch: 1000
next table: 2411
cur table: 2342
epoch: 1000
next table: 1772
cur table: 1782
epoch: 1000
next table: 2384
cur table: 2411
epoch: 1000
next table: 1778
cur table: 1772
epoch: 1000
next table: 2398
cur table: 2384
epoch: 1000
next table: 1795
cur table: 1778
epoch: 1000
next table: 2386
cur table: 2398
epoch: 1000
next table: 1783
cur table: 1795
epoch: 1000
next table: 2362
cur table: 2386
epoch: 1000
next table: 1797
cur table: 1783
epoch: 1000
next table: 2353
cur table: 2362
epoch: 1000
next table: 1793
cur table: 1797
epoch: 1000
next table: 2379
cur table: 2353
epoch: 1000
next table: 1794
cur table: 1793
epoch: 1000
next table: 2373
cur table: 2379
epoch: 1000
next table: 1784
cur table: 1794
epoch: 1000
next table: 2364
cur table: 2373
epoch: 1000
next table: 1781
cur table: 1784
epoch: 1000
next table: 2394
cur table: 2364
epoch: 1000
next table: 1768
cur table: 1781
epoch: 1000
next table: 2409
cur table: 2394
epoch: 1000
next table: 1777
cur table: 1768
epoch: 1000
next table: 2399
cur table: 2409
epoch: 1000
next table: 1766
cur table: 1777
epoch: 1000
next table: 2420
cur table: 2399
epoch: 1000
next table: 1781
cur table: 1766
epoch: 1000
next table: 2388
cur table: 2420
epoch: 1000
next table: 1778
cur table: 1781
epoch: 1000
next table: 2396
cur table: 2388
epoch: 1000
next table: 1763
cur table: 1778
epoch: 1000
next table: 2408
cur table: 2396
epoch: 1000
next table: 1758
cur table: 1763
epoch: 1000
next table: 2406
cur table: 2408
epoch: 1000
next table: 1765
cur table: 1758
epoch: 1000
next table: 2421
cur table: 2406
epoch: 1000
next table: 1761
cur table: 1765
epoch: 1000
next table: 2403
cur table: 2421
epoch: 1000
next table: 1762
cur table: 1761
epoch: 1000
next table: 2417
cur table: 2403
epoch: 1000
next table: 1774
cur table: 1762
epoch: 1000
next table: 2430
cur table: 2417
epoch: 1000
next table: 1762
cur table: 1774
epoch: 1000
next table: 2417
cur table: 2430
epoch: 1000
next table: 1756
cur table: 1762
epoch: 1000
next table: 2413
cur table: 2417
epoch: 1000
next table: 1764
cur table: 1756
epoch: 1000
next table: 2412
cur table: 2413
epoch: 1000
next table: 1757
cur table: 1764
epoch: 1000
next table: 2417
cur table: 2412
epoch: 1000
next table: 1751
cur table: 1757
epoch: 1000
next table: 2419
cur table: 2417
epoch: 1000
next table: 1753
cur table: 1751
epoch: 1000
next table: 2427
cur table: 2419
epoch: 1000
next table: 1759
cur table: 1753
epoch: 1000
next table: 2424
cur table: 2427
epoch: 1000
next table: 1757
cur table: 1759
epoch: 1000
next table: 2420
cur table: 2424
epoch: 1000
next table: 1759
cur table: 1757
epoch: 1000
next table: 2426
cur table: 2420
epoch: 1000
next table: 1757
cur table: 1759
epoch: 1000
next table: 2426
cur table: 2426
epoch: 1000
next table: 1760
cur table: 1757
epoch: 1000
next table: 2422
cur table: 2426
epoch: 1000
next table: 1763
cur table: 1760
epoch: 1000
next table: 2413
cur table: 2422
epoch: 1000
next table: 1761
cur table: 1763
epoch: 1000
next table: 2414
cur table: 2413
epoch: 1000
next table: 1759
cur table: 1761
epoch: 1000
next table: 2409
cur table: 2414
epoch: 1000
next table: 1753
cur table: 1759
epoch: 1000
next table: 2428
cur table: 2409
epoch: 1000
next table: 1759
cur table: 1753
epoch: 1000
next table: 2424
cur table: 2428
epoch: 1000
next table: 1756
cur table: 1759
epoch: 1000
next table: 2423
cur table: 2424
epoch: 1000
next table: 1753
cur table: 1756
epoch: 1000
next table: 2419
cur table: 2423
epoch: 1000
next table: 1765
cur table: 1753
epoch: 1000
next table: 2441
cur table: 2419
epoch: 1000
next table: 1773
cur table: 1765
epoch: 1000
next table: 2391
cur table: 2441
epoch: 1000
next table: 1779
cur table: 1773
epoch: 1000
next table: 2361
cur table: 2391
epoch: 1000
next table: 1800
cur table: 1779
epoch: 1000
next table: 2367
cur table: 2361
epoch: 1000
next table: 1786
cur table: 1800
epoch: 1000
next table: 2380
cur table: 2367
epoch: 1000
next table: 1780
cur table: 1786
epoch: 1000
next table: 2418
cur table: 2380
epoch: 1000
next table: 1758
cur table: 1780
epoch: 1000
next table: 2411
cur table: 2418
epoch: 1000
next table: 1766
cur table: 1758
epoch: 1000
next table: 2398
cur table: 2411
epoch: 1000
next table: 1763
cur table: 1766
epoch: 1000
next table: 2399
cur table: 2398
epoch: 1000
next table: 1773
cur table: 1763
epoch: 1000
next table: 2395
cur table: 2399
epoch: 1000
next table: 1767
cur table: 1773
epoch: 1000
next table: 2420
cur table: 2395
epoch: 1000
next table: 1766
cur table: 1767
epoch: 1000
next table: 2414
cur table: 2420
epoch: 1000
next table: 1777
cur table: 1766
epoch: 1000
next table: 2415
cur table: 2414
epoch: 1000
next table: 1766
cur table: 1777
epoch: 1000
next table: 2437
cur table: 2415
epoch: 1000
next table: 1753
cur table: 1766
epoch: 1000
next table: 2405
cur table: 2437
epoch: 1000
next table: 1777
cur table: 1753
epoch: 1000
next table: 2395
cur table: 2405
epoch: 1000
next table: 1752
cur table: 1777
epoch: 1000
next table: 2413
cur table: 2395
epoch: 1000
next table: 1757
cur table: 1752
epoch: 1000
next table: 2427
cur table: 2413
epoch: 1000
next table: 1765
cur table: 1757
epoch: 1000
next table: 2393
cur table: 2427
epoch: 1000
next table: 1769
cur table: 1765
epoch: 1000
next table: 2398
cur table: 2393
epoch: 1000
next table: 1782
cur table: 1769
epoch: 1000
next table: 2416
cur table: 2398
epoch: 1000
next table: 1781
cur table: 1782
epoch: 1000
next table: 2395
cur table: 2416
epoch: 1000
next table: 1786
cur table: 1781
epoch: 1000
next table: 2344
cur table: 2395
epoch: 1000
next table: 1764
cur table: 1786
epoch: 1000
next table: 2397
cur table: 2344
epoch: 1000
next table: 1755
cur table: 1764
epoch: 1000
next table: 2425
cur table: 2397
epoch: 1000
next table: 1762
cur table: 1755
epoch: 1000
next table: 2418
cur table: 2425
epoch: 1000
next table: 1761
cur table: 1762
epoch: 1000
next table: 2422
cur table: 2418
epoch: 1000
next table: 1762
cur table: 1761
epoch: 1000
next table: 2434
cur table: 2422
epoch: 1000
next table: 1751
cur table: 1762
epoch: 1000
next table: 2408
cur table: 2434
epoch: 1000
next table: 1761
cur table: 1751
epoch: 1000
next table: 2405
cur table: 2408
epoch: 1000
next table: 1771
cur table: 1761
epoch: 1000
next table: 2409
cur table: 2405
epoch: 1000
next table: 1764
cur table: 1771
epoch: 1000
next table: 2418
cur table: 2409
epoch: 1000
next table: 1766
cur table: 1764
epoch: 1000
next table: 2413
cur table: 2418
epoch: 1000
next table: 1754
cur table: 1766
epoch: 1000
next table: 2422
cur table: 2413
epoch: 1000
next table: 1771
cur table: 1754
epoch: 1000
next table: 2408
cur table: 2422
epoch: 1000
next table: 1760
cur table: 1771
epoch: 1000
next table: 2428
cur table: 2408
epoch: 1000
next table: 1769
cur table: 1760
epoch: 1000
next table: 2395
cur table: 2428
epoch: 1000
next table: 1758
cur table: 1769
epoch: 1000
next table: 2408
cur table: 2395
epoch: 1000
next table: 1776
cur table: 1758
epoch: 1000
next table: 2368
cur table: 2408
epoch: 1000
next table: 1778
cur table: 1776
epoch: 1000
next table: 2406
cur table: 2368
epoch: 1000
next table: 1786
cur table: 1778
epoch: 1000
next table: 2386
cur table: 2406
epoch: 1000
next table: 1782
cur table: 1786
epoch: 1000
next table: 2417
cur table: 2386
epoch: 1000
next table: 1763
cur table: 1782
epoch: 1000
next table: 2393
cur table: 2417
epoch: 1000
next table: 2376
cur table: 2393
epoch: 1000
next table: 1771
cur table: 1763
epoch: 1000
next table: 2369
cur table: 2376
epoch: 1000
next table: 1791
cur table: 1771
epoch: 1000
next table: 2415
cur table: 2369
epoch: 1000
next table: 1757
cur table: 1791
epoch: 1000
next table: 2417
cur table: 2415
epoch: 1000
next table: 1763
cur table: 1757
epoch: 1000
next table: 2419
cur table: 2417
epoch: 1000
next table: 1760
cur table: 1763
epoch: 1000
next table: 2432
cur table: 2419
epoch: 1000
next table: 1765
cur table: 1760
epoch: 1000
next table: 2409
cur table: 2432
epoch: 1000
next table: 1764
cur table: 1765
epoch: 1000
next table: 2409
cur table: 2409
epoch: 1000
next table: 1766
cur table: 1764
epoch: 1000
next table: 2408
cur table: 2409
epoch: 1000
next table: 1764
cur table: 1766
epoch: 1000
next table: 2387
cur table: 2408
epoch: 1000
next table: 1774
cur table: 1764
epoch: 1000
next table: 2386
cur table: 2387
epoch: 1000
next table: 1790
cur table: 1774
epoch: 1000
next table: 2393
cur table: 2386
epoch: 1000
next table: 1781
cur table: 1790
epoch: 1000
next table: 2356
cur table: 2393
epoch: 1000
next table: 1785
cur table: 1781
epoch: 1000
next table: 2387
cur table: 2356
epoch: 1000
next table: 1769
cur table: 1785
epoch: 1000
next table: 2415
cur table: 2387
epoch: 1000
next table: 1768
cur table: 1769
epoch: 1000
next table: 2415
cur table: 2415
epoch: 1000
next table: 1761
cur table: 1768
epoch: 1000
next table: 2403
cur table: 2415
epoch: 1000
next table: 1767
cur table: 1761
epoch: 1000
next table: 2431
cur table: 2403
epoch: 1000
next table: 1768
cur table: 1767
epoch: 1000
next table: 2423
cur table: 2431
epoch: 1000
next table: 1760
cur table: 1768
epoch: 1000
next table: 2407
cur table: 2423
epoch: 1000
next table: 1759
cur table: 1760
epoch: 1000
next table: 2403
cur table: 2407
epoch: 1000
next table: 1762
cur table: 1759
epoch: 1000
next table: 2406
cur table: 2403
epoch: 1000
next table: 1760
cur table: 1762
epoch: 1000
next table: 2406
cur table: 2406
epoch: 1000
next table: 1774
cur table: 1760
epoch: 1000
next table: 2407
cur table: 2406
epoch: 1000
next table: 1764
cur table: 1774
epoch: 1000
next table: 2404
cur table: 2407
epoch: 1000
next table: 1776
cur table: 1764
epoch: 1000
next table: 2402
cur table: 2404
epoch: 1000
next table: 1770
cur table: 1776
epoch: 1000
next table: 2418
cur table: 2402
epoch: 1000
next table: 1764
cur table: 1770
epoch: 1000
next table: 2398
cur table: 2418
epoch: 1000
next table: 1773
cur table: 1764
epoch: 1000
next table: 2405
cur table: 2398
epoch: 1000
next table: 1761
cur table: 1773
epoch: 1000
next table: 2412
cur table: 2405
epoch: 1000
next table: 1764
cur table: 1761
epoch: 1000
next table: 2396
cur table: 2412
epoch: 1000
next table: 1771
cur table: 1764
epoch: 1000
next table: 2416
cur table: 2396
epoch: 1000
next table: 1763
cur table: 1771
epoch: 1000
next table: 2410
cur table: 2416
epoch: 1000
next table: 1766
cur table: 1763
epoch: 1000
next table: 2402
cur table: 2410
epoch: 1000
next table: 1783
cur table: 1766
epoch: 1000
next table: 2365
cur table: 2402
epoch: 1000
next table: 1781
cur table: 1783
epoch: 1000
next table: 2406
cur table: 2365
epoch: 1000
next table: 1764
cur table: 1781
epoch: 1000
next table: 2426
cur table: 2406
epoch: 1000
next table: 1765
cur table: 1764
epoch: 1000
next table: 2419
cur table: 2426
epoch: 1000
next table: 1755
cur table: 1765
epoch: 1000
next table: 2406
cur table: 2419
epoch: 1000
next table: 1766
cur table: 1755
epoch: 1000
next table: 2419
cur table: 2406
epoch: 1000
next table: 1760
cur table: 1766
epoch: 1000
next table: 2418
cur table: 2419
epoch: 1000
next table: 1763
cur table: 1760
epoch: 1000
next table: 2402
cur table: 2418
epoch: 1000
next table: 1764
cur table: 1763
epoch: 1000
next table: 2410
cur table: 2402
epoch: 1000
next table: 1766
cur table: 1764
epoch: 1000
next table: 2407
cur table: 2410
epoch: 1000
next table: 1774
cur table: 1766
epoch: 1000
next table: 2419
cur table: 2407
epoch: 1000
next table: 1761
cur table: 1774
epoch: 1000
next table: 2399
cur table: 2419
epoch: 1000
next table: 1775
cur table: 1761
epoch: 1000
next table: 2394
cur table: 2399
epoch: 1000
next table: 1788
cur table: 1775
epoch: 1000
next table: 2409
cur table: 2394
epoch: 1000
next table: 1792
cur table: 1788
epoch: 1000
next table: 2355
cur table: 2409
epoch: 1000
next table: 1777
cur table: 1792
epoch: 1000
next table: 2376
cur table: 2355
epoch: 1000
next table: 1771
cur table: 1777
epoch: 1000
next table: 2389
cur table: 2376
epoch: 1000
next table: 1790
cur table: 1771
epoch: 1000
next table: 2384
cur table: 2389
epoch: 1000
next table: 1797
cur table: 1790
epoch: 1000
next table: 2346
cur table: 2384
epoch: 1000
next table: 1790
cur table: 1797
epoch: 1000
next table: 2389
cur table: 2346
epoch: 1000
next table: 1767
cur table: 1790
epoch: 1000
next table: 2402
cur table: 2389
epoch: 1000
next table: 1770
cur table: 1767
epoch: 1000
next table: 2425
cur table: 2402
epoch: 1000
next table: 1757
cur table: 1770
epoch: 1000
next table: 2404
cur table: 2425
epoch: 1000
next table: 1761
cur table: 1757
epoch: 1000
next table: 2425
cur table: 2404
epoch: 1000
next table: 1762
cur table: 1761
epoch: 1000
next table: 2422
cur table: 2425
epoch: 1000
next table: 1765
cur table: 1762
epoch: 1000
next table: 2399
cur table: 2422
epoch: 1000
next table: 1763
cur table: 1765
epoch: 1000
next table: 2401
cur table: 2399
epoch: 1000
next table: 1759
cur table: 1763
epoch: 1000
next table: 2415
cur table: 2401
epoch: 1000
next table: 1770
cur table: 1759
epoch: 1000
next table: 2421
cur table: 2415
epoch: 1000
next table: 1765
cur table: 1770
epoch: 1000
next table: 2424
cur table: 2421
epoch: 1000
next table: 1762
cur table: 1765
epoch: 1000
next table: 2407
cur table: 2424
epoch: 1000
next table: 1767
cur table: 1762
epoch: 1000
next table: 2421
cur table: 2407
epoch: 1000
next table: 1761
cur table: 1767
epoch: 1000
next table: 2419
cur table: 2421
epoch: 1000
next table: 1766
cur table: 1761
epoch: 1000
next table: 2395
cur table: 2419
epoch: 1000
next table: 1760
cur table: 1766
epoch: 1000
next table: 2408
cur table: 2395
epoch: 1000
next table: 1765
cur table: 1760
epoch: 1000
next table: 2406
cur table: 2408
epoch: 1000
next table: 1769
cur table: 1765
epoch: 1000
next table: 2403
cur table: 2406
epoch: 1000
next table: 1770
cur table: 1769
epoch: 1000
next table: 2393
cur table: 2403
epoch: 1000
next table: 1778
cur table: 1770
epoch: 1000
next table: 2417
cur table: 2393
epoch: 1000
next table: 1809
cur table: 1778
epoch: 1000
next table: 2333
cur table: 2417
epoch: 1000
next table: 1821
cur table: 1809
epoch: 1000
next table: 2343
cur table: 2333
epoch: 1000
next table: 1778
cur table: 1821
epoch: 1000
next table: 2388
cur table: 2343
epoch: 1000
next table: 1767
cur table: 1778
epoch: 1000
next table: 2390
cur table: 2388
epoch: 1000
next table: 1782
cur table: 1767
epoch: 1000
next table: 2383
cur table: 2390
epoch: 1000
next table: 1777
cur table: 1782
epoch: 1000
next table: 2373
cur table: 2383
epoch: 1000
next table: 1772
cur table: 1777
epoch: 1000
next table: 2399
cur table: 2373
epoch: 1000
next table: 1768
cur table: 1772
epoch: 1000
next table: 2405
cur table: 2399
epoch: 1000
next table: 1764
cur table: 1768
epoch: 1000
next table: 2422
cur table: 2405
epoch: 1000
next table: 1770
cur table: 1764
epoch: 1000
next table: 2415
cur table: 2422
epoch: 1000
next table: 1753
cur table: 1770
epoch: 1000
next table: 2431
cur table: 2415
epoch: 1000
next table: 1755
cur table: 1753
epoch: 1000
next table: 2400
cur table: 2431
epoch: 1000
next table: 1762
cur table: 1755
epoch: 1000
next table: 2402
cur table: 2400
epoch: 1000
next table: 1763
cur table: 1762
epoch: 1000
next table: 2417
cur table: 2402
epoch: 1000
next table: 1756
cur table: 1763
epoch: 1000
next table: 2414
cur table: 2417
epoch: 1000
next table: 1768
cur table: 1756
epoch: 1000
next table: 2419
cur table: 2414
epoch: 1000
next table: 2399
cur table: 2419
epoch: 1000
next table: 1776
cur table: 1768
epoch: 1000
next table: 2400
cur table: 2399
epoch: 1000
next table: 1772
cur table: 1776
epoch: 1000
next table: 2400
cur table: 2400
epoch: 1000
next table: 1780
cur table: 1772
epoch: 1000
next table: 2386
cur table: 2400
epoch: 1000
next table: 1772
cur table: 1780
epoch: 1000
next table: 2364
cur table: 2386
epoch: 1000
next table: 1782
cur table: 1772
epoch: 1000
next table: 2373
cur table: 2364
epoch: 1000
next table: 1788
cur table: 1782
epoch: 1000
next table: 2413
cur table: 2373
epoch: 1000
next table: 1772
cur table: 1788
epoch: 1000
next table: 2430
cur table: 2413
epoch: 1000
next table: 1750
cur table: 1772
epoch: 1000
next table: 2399
cur table: 2430
epoch: 1000
next table: 1774
cur table: 1750
epoch: 1000
next table: 2408
cur table: 2399
epoch: 1000
next table: 1754
cur table: 1774
epoch: 1000
next table: 2409
cur table: 2408
epoch: 1000
next table: 1770
cur table: 1754
epoch: 1000
next table: 2409
cur table: 2409
epoch: 1000
next table: 1756
cur table: 1770
epoch: 1000
next table: 2423
cur table: 2409
epoch: 1000
next table: 1776
cur table: 1756
epoch: 1000
next table: 2403
cur table: 2423
epoch: 1000
next table: 1759
cur table: 1776
epoch: 1000
next table: 2405
cur table: 2403
epoch: 1000
next table: 1772
cur table: 1759
epoch: 1000
next table: 2407
cur table: 2405
epoch: 1000
next table: 1775
cur table: 1772
epoch: 1000
next table: 2389
cur table: 2407
epoch: 1000
next table: 1767
cur table: 1775
epoch: 1000
next table: 2404
cur table: 2389
epoch: 1000
next table: 1760
cur table: 1767
epoch: 1000
next table: 2410
cur table: 2404
epoch: 1000
next table: 1762
cur table: 1760
epoch: 1000
next table: 2438
cur table: 2410
epoch: 1000
next table: 1758
cur table: 1762
epoch: 1000
next table: 2413
cur table: 2438
epoch: 1000
next table: 1769
cur table: 1758
epoch: 1000
next table: 2404
cur table: 2413
epoch: 1000
next table: 1775
cur table: 1769
epoch: 1000
next table: 2419
cur table: 2404
epoch: 1000
next table: 1766
cur table: 1775
epoch: 1000
next table: 2372
cur table: 2419
epoch: 1000
next table: 1785
cur table: 1766
epoch: 1000
next table: 2361
cur table: 2372
epoch: 1000
next table: 1790
cur table: 1785
epoch: 1000
next table: 2387
cur table: 2361
epoch: 1000
next table: 1781
cur table: 1790
epoch: 1000
next table: 2380
cur table: 2387
epoch: 1000
next table: 1774
cur table: 1781
epoch: 1000
next table: 2416
cur table: 2380
epoch: 1000
next table: 1778
cur table: 1774
epoch: 1000
next table: 2347
cur table: 2416
epoch: 1000
next table: 1820
cur table: 1778
epoch: 1000
next table: 2340
cur table: 2347
epoch: 1000
next table: 1802
cur table: 1820
epoch: 1000
next table: 2365
cur table: 2340
epoch: 1000
next table: 1804
cur table: 1802
epoch: 1000
next table: 2364
cur table: 2365
epoch: 1000
next table: 1803
cur table: 1804
epoch: 1000
next table: 2360
cur table: 2364
epoch: 1000
next table: 1790
cur table: 1803
epoch: 1000
next table: 2359
cur table: 2360
epoch: 1000
next table: 1784
cur table: 1790
epoch: 1000
next table: 2382
cur table: 2359
epoch: 1000
next table: 1768
cur table: 1784
epoch: 1000
next table: 2408
cur table: 2382
epoch: 1000
next table: 1778
cur table: 1768
epoch: 1000
next table: 2405
cur table: 2408
epoch: 1000
next table: 1806
cur table: 1778
epoch: 1000
next table: 2311
cur table: 2405
epoch: 1000
next table: 1806
cur table: 1806
epoch: 1000
next table: 2385
cur table: 2311
epoch: 1000
next table: 1791
cur table: 1806
epoch: 1000
next table: 2390
cur table: 2385
epoch: 1000
next table: 1791
cur table: 1791
epoch: 1000
next table: 2401
cur table: 2390
epoch: 1000
next table: 1833
cur table: 1791
epoch: 1000
next table: 2358
cur table: 2401
epoch: 1000
next table: 2327
cur table: 2358
epoch: 1000
next table: 1872
cur table: 1833
epoch: 1000
next table: 2410
cur table: 2327
epoch: 1000
next table: 1911
cur table: 1872
epoch: 1000
next table: 2399
cur table: 2410
epoch: 1000
next table: 1933
cur table: 1911
epoch: 1000
next table: 2348
cur table: 2399
epoch: 1000
next table: 1968
cur table: 1933
epoch: 1000
next table: 2366
cur table: 2348
epoch: 1000
next table: 1963
cur table: 1968
epoch: 1000
next table: 2392
cur table: 2366
epoch: 1000
next table: 2336
cur table: 2392
epoch: 1000
next table: 1990
cur table: 1963
epoch: 1000
next table: 2302
cur table: 2336
epoch: 1000
next table: 1954
cur table: 1990
epoch: 1000
next table: 2380
cur table: 2302
epoch: 1000
next table: 1888
cur table: 1954
epoch: 1000
next table: 2369
cur table: 2380
epoch: 1000
next table: 1950
cur table: 1888
epoch: 1000
next table: 2305
cur table: 2369
epoch: 1000
next table: 1865
cur table: 1950
epoch: 1000
next table: 2360
cur table: 2305
epoch: 1000
next table: 2336
cur table: 2360
epoch: 1000
next table: 1856
cur table: 1865
epoch: 1000
next table: 2386
cur table: 2336
epoch: 1000
next table: 1823
cur table: 1856
epoch: 1000
next table: 2384
cur table: 2386
epoch: 1000
next table: 1793
cur table: 1823
epoch: 1000
next table: 2351
cur table: 2384
epoch: 1000
next table: 1841
cur table: 1793
epoch: 1000
next table: 2384
cur table: 2351
epoch: 1000
next table: 1816
cur table: 1841
epoch: 1000
next table: 2357
cur table: 2384
epoch: 1000
next table: 1831
cur table: 1816
epoch: 1000
next table: 2383
cur table: 2357
epoch: 1000
next table: 1818
cur table: 1831
epoch: 1000
next table: 2381
cur table: 2383
epoch: 1000
next table: 1835
cur table: 1818
epoch: 1000
next table: 2373
cur table: 2381
epoch: 1000
next table: 1827
cur table: 1835
epoch: 1000
next table: 2413
cur table: 2373
epoch: 1000
next table: 1835
cur table: 1827
epoch: 1000
next table: 2405
cur table: 2413
epoch: 1000
next table: 1858
cur table: 1835
epoch: 1000
next table: 2365
cur table: 2405
epoch: 1000
next table: 2390
cur table: 2365
epoch: 1000
next table: 1929
cur table: 1858
epoch: 1000
next table: 2387
cur table: 2390
epoch: 1000
next table: 1899
cur table: 1929
epoch: 1000
next table: 2410
cur table: 2387
epoch: 1000
next table: 1852
cur table: 1899
epoch: 1000
next table: 2410
cur table: 2410
epoch: 1000
next table: 1890
cur table: 1852
epoch: 1000
next table: 2376
cur table: 2410
epoch: 1000
next table: 1890
cur table: 1890
epoch: 1000
next table: 2365
cur table: 2376
epoch: 1000
next table: 1916
cur table: 1890
epoch: 1000
next table: 2394
cur table: 2365
epoch: 1000
next table: 2389
cur table: 2394
epoch: 1000
next table: 1890
cur table: 1916
epoch: 1000
next table: 2401
cur table: 2389
epoch: 1000
next table: 1863
cur table: 1890
epoch: 1000
next table: 2399
cur table: 2401
epoch: 1000
next table: 1852
cur table: 1863
epoch: 1000
next table: 2357
cur table: 2399
epoch: 1000
next table: 1831
cur table: 1852
epoch: 1000
next table: 2395
cur table: 2357
epoch: 1000
next table: 1875
cur table: 1831
epoch: 1000
next table: 2382
cur table: 2395
epoch: 1000
next table: 1871
cur table: 1875
epoch: 1000
next table: 2395
cur table: 2382
epoch: 1000
next table: 1855
cur table: 1871
epoch: 1000
next table: 2389
cur table: 2395
epoch: 1000
next table: 1845
cur table: 1855
epoch: 1000
next table: 2384
cur table: 2389
epoch: 1000
next table: 2412
cur table: 2384
epoch: 1000
next table: 1870
cur table: 1845
epoch: 1000
next table: 2367
cur table: 2412
epoch: 1000
next table: 1832
cur table: 1870
epoch: 1000
next table: 2338
cur table: 2367
epoch: 1000
next table: 1874
cur table: 1832
epoch: 1000
next table: 2281
cur table: 2338
epoch: 1000
next table: 1861
cur table: 1874
epoch: 1000
next table: 2352
cur table: 2281
epoch: 1000
next table: 1831
cur table: 1861
epoch: 1000
next table: 2388
cur table: 2352
epoch: 1000
next table: 1830
cur table: 1831
epoch: 1000
next table: 2333
cur table: 2388
epoch: 1000
next table: 1818
cur table: 1830
epoch: 1000
next table: 2342
cur table: 2333
epoch: 1000
next table: 1796
cur table: 1818
epoch: 1000
next table: 2399
cur table: 2342
epoch: 1000
next table: 1786
cur table: 1796
epoch: 1000
next table: 2388
cur table: 2399
epoch: 1000
next table: 1807
cur table: 1786
epoch: 1000
next table: 2354
cur table: 2388
epoch: 1000
next table: 1790
cur table: 1807
epoch: 1000
next table: 2373
cur table: 2354
epoch: 1000
next table: 1805
cur table: 1790
epoch: 1000
next table: 2353
cur table: 2373
epoch: 1000
next table: 1799
cur table: 1805
epoch: 1000
next table: 2386
cur table: 2353
epoch: 1000
next table: 1806
cur table: 1799
epoch: 1000
next table: 2345
cur table: 2386
epoch: 1000
next table: 1776
cur table: 1806
epoch: 1000
next table: 2401
cur table: 2345
epoch: 1000
next table: 1789
cur table: 1776
epoch: 1000
next table: 2374
cur table: 2401
epoch: 1000
next table: 2383
cur table: 2374
epoch: 1000
next table: 1801
cur table: 1789
epoch: 1000
next table: 2334
cur table: 2383
epoch: 1000
next table: 1816
cur table: 1801
epoch: 1000
next table: 2328
cur table: 2334
epoch: 1000
next table: 1823
cur table: 1816
epoch: 1000
next table: 2361
cur table: 2328
epoch: 1000
next table: 1815
cur table: 1823
epoch: 1000
next table: 2343
cur table: 2361
epoch: 1000
next table: 1835
cur table: 1815
epoch: 1000
next table: 2351
cur table: 2343
epoch: 1000
next table: 1807
cur table: 1835
epoch: 1000
next table: 2358
cur table: 2351
epoch: 1000
next table: 1802
cur table: 1807
epoch: 1000
next table: 2366
cur table: 2358
epoch: 1000
next table: 1835
cur table: 1802
epoch: 1000
next table: 2251
cur table: 2366
epoch: 1000
next table: 1852
cur table: 1835
epoch: 1000
next table: 2356
cur table: 2251
epoch: 1000
next table: 1799
cur table: 1852
epoch: 1000
next table: 2377
cur table: 2356
Heartbeat CPU 0 instructions: 10000001 cycles: 2910495 heartbeat IPC: 3.43584 cumulative IPC: 3.43584 (Simulation time: 0 hr 7 min 30 sec) 
epoch: 1000
next table: 1814
cur table: 1799
epoch: 1000
next table: 2350
cur table: 2377
epoch: 1000
next table: 1807
cur table: 1814
epoch: 1000
next table: 2357
cur table: 2350
epoch: 1000
next table: 1801
cur table: 1807
epoch: 1000
next table: 2413
cur table: 2357
epoch: 1000
next table: 1791
cur table: 1801
epoch: 1000
next table: 2393
cur table: 2413
epoch: 1000
next table: 1809
cur table: 1791
epoch: 1000
next table: 2339
cur table: 2393
epoch: 1000
next table: 1780
cur table: 1809
epoch: 1000
next table: 2378
cur table: 2339
epoch: 1000
next table: 1817
cur table: 1780
epoch: 1000
next table: 2358
cur table: 2378
epoch: 1000
next table: 1806
cur table: 1817
epoch: 1000
next table: 2356
cur table: 2358
epoch: 1000
next table: 2281
cur table: 2356
epoch: 1000
next table: 1834
cur table: 1806
epoch: 1000
next table: 2341
cur table: 2281
epoch: 1000
next table: 1829
cur table: 1834
epoch: 1000
next table: 2351
cur table: 2341
epoch: 1000
next table: 1830
cur table: 1829
epoch: 1000
next table: 2349
cur table: 2351
epoch: 1000
next table: 1795
cur table: 1830
epoch: 1000
next table: 2369
cur table: 2349
epoch: 1000
next table: 1798
cur table: 1795
epoch: 1000
next table: 2395
cur table: 2369
epoch: 1000
next table: 1782
cur table: 1798
epoch: 1000
next table: 2398
cur table: 2395
epoch: 1000
next table: 1783
cur table: 1782
epoch: 1000
next table: 2345
cur table: 2398
epoch: 1000
next table: 1804
cur table: 1783
epoch: 1000
next table: 2372
cur table: 2345
epoch: 1000
next table: 1787
cur table: 1804
epoch: 1000
next table: 2377
cur table: 2372
epoch: 1000
next table: 1792
cur table: 1787
epoch: 1000
next table: 2356
cur table: 2377
epoch: 1000
next table: 1794
cur table: 1792
epoch: 1000
next table: 2376
cur table: 2356
epoch: 1000
next table: 1778
cur table: 1794
epoch: 1000
next table: 2365
cur table: 2376
epoch: 1000
next table: 1805
cur table: 1778
epoch: 1000
next table: 2379
cur table: 2365
epoch: 1000
next table: 1785
cur table: 1805
epoch: 1000
next table: 2403
cur table: 2379
epoch: 1000
next table: 1773
cur table: 1785
epoch: 1000
next table: 2406
cur table: 2403
epoch: 1000
next table: 1784
cur table: 1773
epoch: 1000
next table: 2384
cur table: 2406
epoch: 1000
next table: 1774
cur table: 1784
epoch: 1000
next table: 2397
cur table: 2384
epoch: 1000
next table: 1778
cur table: 1774
epoch: 1000
next table: 2375
cur table: 2397
epoch: 1000
next table: 1783
cur table: 1778
epoch: 1000
next table: 2408
cur table: 2375
epoch: 1000
next table: 1787
cur table: 1783
epoch: 1000
next table: 2397
cur table: 2408
epoch: 1000
next table: 1784
cur table: 1787
epoch: 1000
next table: 2371
cur table: 2397
epoch: 1000
next table: 1784
cur table: 1784
epoch: 1000
next table: 2364
cur table: 2371
epoch: 1000
next table: 1785
cur table: 1784
epoch: 1000
next table: 2388
cur table: 2364
epoch: 1000
next table: 1785
cur table: 1785
epoch: 1000
next table: 2394
cur table: 2388
epoch: 1000
next table: 1802
cur table: 1785
epoch: 1000
next table: 2357
cur table: 2394
epoch: 1000
next table: 1799
cur table: 1802
epoch: 1000
next table: 2370
cur table: 2357
epoch: 1000
next table: 1798
cur table: 1799
epoch: 1000
next table: 2362
cur table: 2370
epoch: 1000
next table: 1783
cur table: 1798
epoch: 1000
next table: 2408
cur table: 2362
epoch: 1000
next table: 1804
cur table: 1783
epoch: 1000
next table: 2356
cur table: 2408
epoch: 1000
next table: 1786
cur table: 1804
epoch: 1000
next table: 2372
cur table: 2356
epoch: 1000
next table: 2376
cur table: 2372
epoch: 1000
next table: 1781
cur table: 1786
epoch: 1000
next table: 2382
cur table: 2376
epoch: 1000
next table: 1773
cur table: 1781
epoch: 1000
next table: 2391
cur table: 2382
epoch: 1000
next table: 1806
cur table: 1773
epoch: 1000
next table: 2323
cur table: 2391
epoch: 1000
next table: 1821
cur table: 1806
epoch: 1000
next table: 2344
cur table: 2323
epoch: 1000
next table: 1806
cur table: 1821
epoch: 1000
next table: 2340
cur table: 2344
epoch: 1000
next table: 1823
cur table: 1806
epoch: 1000
next table: 2329
cur table: 2340
epoch: 1000
next table: 1807
cur table: 1823
epoch: 1000
next table: 2402
cur table: 2329
epoch: 1000
next table: 1763
cur table: 1807
epoch: 1000
next table: 2381
cur table: 2402
epoch: 1000
next table: 1775
cur table: 1763
epoch: 1000
next table: 2412
cur table: 2381
epoch: 1000
next table: 1778
cur table: 1775
epoch: 1000
next table: 2397
cur table: 2412
epoch: 1000
next table: 1766
cur table: 1778
epoch: 1000
next table: 2414
cur table: 2397
epoch: 1000
next table: 1770
cur table: 1766
epoch: 1000
next table: 2353
cur table: 2414
epoch: 1000
next table: 1808
cur table: 1770
epoch: 1000
next table: 2358
cur table: 2353
epoch: 1000
next table: 1795
cur table: 1808
epoch: 1000
next table: 2379
cur table: 2358
epoch: 1000
next table: 1815
cur table: 1795
epoch: 1000
next table: 2343
cur table: 2379
epoch: 1000
next table: 1821
cur table: 1815
epoch: 1000
next table: 2324
cur table: 2343
epoch: 1000
next table: 1808
cur table: 1821
epoch: 1000
next table: 2353
cur table: 2324
epoch: 1000
next table: 1813
cur table: 1808
epoch: 1000
next table: 2382
cur table: 2353
epoch: 1000
next table: 1834
cur table: 1813
epoch: 1000
next table: 2320
cur table: 2382
epoch: 1000
next table: 1829
cur table: 1834
epoch: 1000
next table: 2345
cur table: 2320
epoch: 1000
next table: 1822
cur table: 1829
epoch: 1000
next table: 2364
cur table: 2345
epoch: 1000
next table: 1812
cur table: 1822
epoch: 1000
next table: 2338
cur table: 2364
epoch: 1000
next table: 1780
cur table: 1812
epoch: 1000
next table: 2388
cur table: 2338
epoch: 1000
next table: 2385
cur table: 2388
epoch: 1000
next table: 1798
cur table: 1780
epoch: 1000
next table: 2419
cur table: 2385
epoch: 1000
next table: 1795
cur table: 1798
epoch: 1000
next table: 2384
cur table: 2419
epoch: 1000
next table: 1844
cur table: 1795
epoch: 1000
next table: 2392
cur table: 2384
epoch: 1000
next table: 1794
cur table: 1844
epoch: 1000
next table: 2368
cur table: 2392
epoch: 1000
next table: 1822
cur table: 1794
epoch: 1000
next table: 2357
cur table: 2368
epoch: 1000
next table: 1842
cur table: 1822
epoch: 1000
next table: 2336
cur table: 2357
epoch: 1000
next table: 1858
cur table: 1842
epoch: 1000
next table: 2265
cur table: 2336
epoch: 1000
next table: 1876
cur table: 1858
epoch: 1000
next table: 2324
cur table: 2265
epoch: 1000
next table: 1806
cur table: 1876
epoch: 1000
next table: 2386
cur table: 2324
epoch: 1000
next table: 1827
cur table: 1806
epoch: 1000
next table: 2338
cur table: 2386
epoch: 1000
next table: 1795
cur table: 1827
epoch: 1000
next table: 2376
cur table: 2338
epoch: 1000
next table: 1790
cur table: 1795
epoch: 1000
next table: 2414
cur table: 2376
epoch: 1000
next table: 1787
cur table: 1790
epoch: 1000
next table: 2382
cur table: 2414
epoch: 1000
next table: 1789
cur table: 1787
epoch: 1000
next table: 2406
cur table: 2382
epoch: 1000
next table: 1792
cur table: 1789
epoch: 1000
next table: 2377
cur table: 2406
epoch: 1000
next table: 1810
cur table: 1792
epoch: 1000
next table: 2370
cur table: 2377
epoch: 1000
next table: 2377
cur table: 2370
epoch: 1000
next table: 1807
cur table: 1810
epoch: 1000
next table: 2388
cur table: 2377
epoch: 1000
next table: 1820
cur table: 1807
epoch: 1000
next table: 2335
cur table: 2388
epoch: 1000
next table: 1823
cur table: 1820
epoch: 1000
next table: 2342
cur table: 2335
epoch: 1000
next table: 1851
cur table: 1823
epoch: 1000
next table: 2318
cur table: 2342
epoch: 1000
next table: 1828
cur table: 1851
epoch: 1000
next table: 2326
cur table: 2318
epoch: 1000
next table: 1827
cur table: 1828
epoch: 1000
next table: 2367
cur table: 2326
epoch: 1000
next table: 1807
cur table: 1827
epoch: 1000
next table: 2368
cur table: 2367
epoch: 1000
next table: 1817
cur table: 1807
epoch: 1000
next table: 2360
cur table: 2368
epoch: 1000
next table: 1824
cur table: 1817
epoch: 1000
next table: 2317
cur table: 2360
epoch: 1000
next table: 1796
cur table: 1824
epoch: 1000
next table: 2376
cur table: 2317
epoch: 1000
next table: 1786
cur table: 1796
epoch: 1000
next table: 2379
cur table: 2376
epoch: 1000
next table: 1783
cur table: 1786
epoch: 1000
next table: 2379
cur table: 2379
epoch: 1000
next table: 1781
cur table: 1783
epoch: 1000
next table: 2376
cur table: 2379
epoch: 1000
next table: 1789
cur table: 1781
epoch: 1000
next table: 2381
cur table: 2376
epoch: 1000
next table: 1776
cur table: 1789
epoch: 1000
next table: 2401
cur table: 2381
epoch: 1000
next table: 1767
cur table: 1776
epoch: 1000
next table: 2405
cur table: 2401
epoch: 1000
next table: 1772
cur table: 1767
epoch: 1000
next table: 2420
cur table: 2405
epoch: 1000
next table: 1773
cur table: 1772
epoch: 1000
next table: 2385
cur table: 2420
epoch: 1000
next table: 1801
cur table: 1773
epoch: 1000
next table: 2354
cur table: 2385
epoch: 1000
next table: 1788
cur table: 1801
epoch: 1000
next table: 2363
cur table: 2354
epoch: 1000
next table: 1766
cur table: 1788
epoch: 1000
next table: 2420
cur table: 2363
epoch: 1000
next table: 1774
cur table: 1766
epoch: 1000
next table: 2408
cur table: 2420
epoch: 1000
next table: 1784
cur table: 1774
epoch: 1000
next table: 2346
cur table: 2408
epoch: 1000
next table: 1792
cur table: 1784
epoch: 1000
next table: 2379
cur table: 2346
epoch: 1000
next table: 1785
cur table: 1792
epoch: 1000
next table: 2366
cur table: 2379
epoch: 1000
next table: 2390
cur table: 2366
epoch: 1000
next table: 1787
cur table: 1785
epoch: 1000
next table: 2404
cur table: 2390
epoch: 1000
next table: 1787
cur table: 1787
epoch: 1000
next table: 2354
cur table: 2404
epoch: 1000
next table: 1784
cur table: 1787
epoch: 1000
next table: 2359
cur table: 2354
epoch: 1000
next table: 1784
cur table: 1784
epoch: 1000
next table: 2322
cur table: 2359
epoch: 1000
next table: 1825
cur table: 1784
epoch: 1000
next table: 2268
cur table: 2322
epoch: 1000
next table: 1857
cur table: 1825
epoch: 1000
next table: 2311
cur table: 2268
epoch: 1000
next table: 1826
cur table: 1857
epoch: 1000
next table: 2318
cur table: 2311
epoch: 1000
next table: 1831
cur table: 1826
epoch: 1000
next table: 2329
cur table: 2318
epoch: 1000
next table: 1796
cur table: 1831
epoch: 1000
next table: 2383
cur table: 2329
epoch: 1000
next table: 1787
cur table: 1796
epoch: 1000
next table: 2357
cur table: 2383
epoch: 1000
next table: 1791
cur table: 1787
epoch: 1000
next table: 2380
cur table: 2357
epoch: 1000
next table: 1783
cur table: 1791
epoch: 1000
next table: 2388
cur table: 2380
epoch: 1000
next table: 1798
cur table: 1783
epoch: 1000
next table: 2388
cur table: 2388
epoch: 1000
next table: 1794
cur table: 1798
epoch: 1000
next table: 2317
cur table: 2388
epoch: 1000
next table: 1865
cur table: 1794
epoch: 1000
next table: 2281
cur table: 2317
epoch: 1000
next table: 1834
cur table: 1865
epoch: 1000
next table: 2334
cur table: 2281
epoch: 1000
next table: 1800
cur table: 1834
epoch: 1000
next table: 2360
cur table: 2334
epoch: 1000
next table: 1833
cur table: 1800
epoch: 1000
next table: 2356
cur table: 2360
epoch: 1000
next table: 1841
cur table: 1833
epoch: 1000
next table: 2341
cur table: 2356
epoch: 1000
next table: 2327
cur table: 2341
epoch: 1000
next table: 1860
cur table: 1841
epoch: 1000
next table: 2321
cur table: 2327
epoch: 1000
next table: 1834
cur table: 1860
epoch: 1000
next table: 2365
cur table: 2321
epoch: 1000
next table: 1812
cur table: 1834
epoch: 1000
next table: 2352
cur table: 2365
epoch: 1000
next table: 1840
cur table: 1812
epoch: 1000
next table: 2382
cur table: 2352
epoch: 1000
next table: 1801
cur table: 1840
epoch: 1000
next table: 2401
cur table: 2382
epoch: 1000
next table: 1821
cur table: 1801
epoch: 1000
next table: 2360
cur table: 2401
epoch: 1000
next table: 1860
cur table: 1821
epoch: 1000
next table: 2384
cur table: 2360
epoch: 1000
next table: 1837
cur table: 1860
epoch: 1000
next table: 2396
cur table: 2384
epoch: 1000
next table: 1844
cur table: 1837
epoch: 1000
next table: 2349
cur table: 2396
epoch: 1000
next table: 1896
cur table: 1844
epoch: 1000
next table: 2346
cur table: 2349
epoch: 1000
next table: 2331
cur table: 2346
epoch: 1000
next table: 1873
cur table: 1896
epoch: 1000
next table: 2356
cur table: 2331
epoch: 1000
next table: 1813
cur table: 1873
epoch: 1000
next table: 2343
cur table: 2356
epoch: 1000
next table: 1810
cur table: 1813
epoch: 1000
next table: 2417
cur table: 2343
epoch: 1000
next table: 1787
cur table: 1810
epoch: 1000
next table: 2404
cur table: 2417
epoch: 1000
next table: 1773
cur table: 1787
epoch: 1000
next table: 2398
cur table: 2404
epoch: 1000
next table: 1763
cur table: 1773
epoch: 1000
next table: 2392
cur table: 2398
epoch: 1000
next table: 1771
cur table: 1763
epoch: 1000
next table: 2406
cur table: 2392
epoch: 1000
next table: 1781
cur table: 1771
epoch: 1000
next table: 2397
cur table: 2406
epoch: 1000
next table: 1776
cur table: 1781
epoch: 1000
next table: 2405
cur table: 2397
epoch: 1000
next table: 1790
cur table: 1776
epoch: 1000
next table: 2373
cur table: 2405
epoch: 1000
next table: 1790
cur table: 1790
epoch: 1000
next table: 2363
cur table: 2373
epoch: 1000
next table: 1811
cur table: 1790
epoch: 1000
next table: 2355
cur table: 2363
epoch: 1000
next table: 1785
cur table: 1811
epoch: 1000
next table: 2364
cur table: 2355
epoch: 1000
next table: 1823
cur table: 1785
epoch: 1000
next table: 2373
cur table: 2364
epoch: 1000
next table: 1797
cur table: 1823
epoch: 1000
next table: 2349
cur table: 2373
epoch: 1000
next table: 1798
cur table: 1797
epoch: 1000
next table: 2376
cur table: 2349
epoch: 1000
next table: 1790
cur table: 1798
epoch: 1000
next table: 2347
cur table: 2376
epoch: 1000
next table: 1798
cur table: 1790
epoch: 1000
next table: 2380
cur table: 2347
epoch: 1000
next table: 1811
cur table: 1798
epoch: 1000
next table: 2299
cur table: 2380
epoch: 1000
next table: 1834
cur table: 1811
epoch: 1000
next table: 2355
cur table: 2299
epoch: 1000
next table: 1796
cur table: 1834
epoch: 1000
next table: 2373
cur table: 2355
epoch: 1000
next table: 1808
cur table: 1796
epoch: 1000
next table: 2355
cur table: 2373
epoch: 1000
next table: 1792
cur table: 1808
epoch: 1000
next table: 2359
cur table: 2355
epoch: 1000
next table: 1796
cur table: 1792
epoch: 1000
next table: 2366
cur table: 2359
epoch: 1000
next table: 1809
cur table: 1796
epoch: 1000
next table: 2384
cur table: 2366
epoch: 1000
next table: 2363
cur table: 2384
epoch: 1000
next table: 1782
cur table: 1809
epoch: 1000
next table: 2359
cur table: 2363
epoch: 1000
next table: 1791
cur table: 1782
epoch: 1000
next table: 2377
cur table: 2359
epoch: 1000
next table: 1796
cur table: 1791
epoch: 1000
next table: 2381
cur table: 2377
epoch: 1000
next table: 1811
cur table: 1796
epoch: 1000
next table: 2349
cur table: 2381
epoch: 1000
next table: 1813
cur table: 1811
epoch: 1000
next table: 2363
cur table: 2349
epoch: 1000
next table: 1791
cur table: 1813
epoch: 1000
next table: 2355
cur table: 2363
epoch: 1000
next table: 1815
cur table: 1791
epoch: 1000
next table: 2379
cur table: 2355
epoch: 1000
next table: 1795
cur table: 1815
epoch: 1000
next table: 2344
cur table: 2379
epoch: 1000
next table: 1829
cur table: 1795
epoch: 1000
next table: 2282
cur table: 2344
epoch: 1000
next table: 1838
cur table: 1829
epoch: 1000
next table: 2388
cur table: 2282
epoch: 1000
next table: 1790
cur table: 1838
epoch: 1000
next table: 2363
cur table: 2388
epoch: 1000
next table: 1804
cur table: 1790
epoch: 1000
next table: 2342
cur table: 2363
epoch: 1000
next table: 1796
cur table: 1804
epoch: 1000
next table: 2373
cur table: 2342
epoch: 1000
next table: 1780
cur table: 1796
epoch: 1000
next table: 2387
cur table: 2373
epoch: 1000
next table: 1819
cur table: 1780
epoch: 1000
next table: 2335
cur table: 2387
epoch: 1000
next table: 1794
cur table: 1819
epoch: 1000
next table: 2361
cur table: 2335
epoch: 1000
next table: 1801
cur table: 1794
epoch: 1000
next table: 2361
cur table: 2361
epoch: 1000
next table: 1800
cur table: 1801
epoch: 1000
next table: 2370
cur table: 2361
epoch: 1000
next table: 1803
cur table: 1800
epoch: 1000
next table: 2351
cur table: 2370
epoch: 1000
next table: 1792
cur table: 1803
epoch: 1000
next table: 2354
cur table: 2351
epoch: 1000
next table: 1795
cur table: 1792
epoch: 1000
next table: 2372
cur table: 2354
epoch: 1000
next table: 1785
cur table: 1795
epoch: 1000
next table: 2380
cur table: 2372
epoch: 1000
next table: 1769
cur table: 1785
epoch: 1000
next table: 2384
cur table: 2380
epoch: 1000
next table: 1790
cur table: 1769
epoch: 1000
next table: 2385
cur table: 2384
epoch: 1000
next table: 1784
cur table: 1790
epoch: 1000
next table: 2398
cur table: 2385
epoch: 1000
next table: 2392
cur table: 2398
epoch: 1000
next table: 1786
cur table: 1784
epoch: 1000
next table: 2381
cur table: 2392
epoch: 1000
next table: 1793
cur table: 1786
epoch: 1000
next table: 2316
cur table: 2381
epoch: 1000
next table: 1816
cur table: 1793
epoch: 1000
next table: 2342
cur table: 2316
epoch: 1000
next table: 1824
cur table: 1816
epoch: 1000
next table: 2417
cur table: 2342
epoch: 1000
next table: 1781
cur table: 1824
epoch: 1000
next table: 2386
cur table: 2417
epoch: 1000
next table: 1816
cur table: 1781
epoch: 1000
next table: 2349
cur table: 2386
epoch: 1000
next table: 1810
cur table: 1816
epoch: 1000
next table: 2374
cur table: 2349
epoch: 1000
next table: 1778
cur table: 1810
epoch: 1000
next table: 2394
cur table: 2374
epoch: 1000
next table: 1794
cur table: 1778
epoch: 1000
next table: 2376
cur table: 2394
epoch: 1000
next table: 1794
cur table: 1794
epoch: 1000
next table: 2412
cur table: 2376
epoch: 1000
next table: 1796
cur table: 1794
epoch: 1000
next table: 2382
cur table: 2412
epoch: 1000
next table: 1781
cur table: 1796
epoch: 1000
next table: 2396
cur table: 2382
epoch: 1000
next table: 1780
cur table: 1781
epoch: 1000
next table: 2410
cur table: 2396
epoch: 1000
next table: 1776
cur table: 1780
epoch: 1000
next table: 2402
cur table: 2410
epoch: 1000
next table: 1784
cur table: 1776
epoch: 1000
next table: 2393
cur table: 2402
epoch: 1000
next table: 1799
cur table: 1784
epoch: 1000
next table: 2406
cur table: 2393
epoch: 1000
next table: 1804
cur table: 1799
epoch: 1000
next table: 2346
cur table: 2406
epoch: 1000
next table: 1823
cur table: 1804
epoch: 1000
next table: 2344
cur table: 2346
epoch: 1000
next table: 1795
cur table: 1823
epoch: 1000
next table: 2371
cur table: 2344
epoch: 1000
next table: 1793
cur table: 1795
epoch: 1000
next table: 2364
cur table: 2371
epoch: 1000
next table: 1820
cur table: 1793
epoch: 1000
next table: 2319
cur table: 2364
epoch: 1000
next table: 1802
cur table: 1820
epoch: 1000
next table: 2388
cur table: 2319
epoch: 1000
next table: 1810
cur table: 1802
epoch: 1000
next table: 2385
cur table: 2388
epoch: 1000
next table: 2363
cur table: 2385
epoch: 1000
next table: 1793
cur table: 1810
epoch: 1000
next table: 2371
cur table: 2363
epoch: 1000
next table: 1802
cur table: 1793
epoch: 1000
next table: 2386
cur table: 2371
epoch: 1000
next table: 1792
cur table: 1802
epoch: 1000
next table: 2366
cur table: 2386
epoch: 1000
next table: 1798
cur table: 1792
epoch: 1000
next table: 2408
cur table: 2366
epoch: 1000
next table: 1775
cur table: 1798
epoch: 1000
next table: 2338
cur table: 2408
epoch: 1000
next table: 1803
cur table: 1775
epoch: 1000
next table: 2374
cur table: 2338
epoch: 1000
next table: 1790
cur table: 1803
epoch: 1000
next table: 2415
cur table: 2374
epoch: 1000
next table: 1776
cur table: 1790
epoch: 1000
next table: 2368
cur table: 2415
epoch: 1000
next table: 1810
cur table: 1776
epoch: 1000
next table: 2345
cur table: 2368
epoch: 1000
next table: 1810
cur table: 1810
epoch: 1000
next table: 2332
cur table: 2345
epoch: 1000
next table: 1787
cur table: 1810
epoch: 1000
next table: 2366
cur table: 2332
epoch: 1000
next table: 1795
cur table: 1787
epoch: 1000
next table: 2369
cur table: 2366
epoch: 1000
next table: 1814
cur table: 1795
epoch: 1000
next table: 2291
cur table: 2369
epoch: 1000
next table: 1791
cur table: 1814
epoch: 1000
next table: 2380
cur table: 2291
epoch: 1000
next table: 1815
cur table: 1791
epoch: 1000
next table: 2384
cur table: 2380
epoch: 1000
next table: 1808
cur table: 1815
epoch: 1000
next table: 2362
cur table: 2384
epoch: 1000
next table: 1808
cur table: 1808
epoch: 1000
next table: 2362
cur table: 2362
epoch: 1000
next table: 1811
cur table: 1808
epoch: 1000
next table: 2363
cur table: 2362
epoch: 1000
next table: 1827
cur table: 1811
epoch: 1000
next table: 2363
cur table: 2363
epoch: 1000
next table: 1816
cur table: 1827
epoch: 1000
next table: 2333
cur table: 2363
epoch: 1000
next table: 1827
cur table: 1816
epoch: 1000
next table: 2342
cur table: 2333
epoch: 1000
next table: 1820
cur table: 1827
epoch: 1000
next table: 2355
cur table: 2342
epoch: 1000
next table: 2388
cur table: 2355
epoch: 1000
next table: 1780
cur table: 1820
epoch: 1000
next table: 2308
cur table: 2388
epoch: 1000
next table: 1833
cur table: 1780
epoch: 1000
next table: 2377
cur table: 2308
epoch: 1000
next table: 1792
cur table: 1833
epoch: 1000
next table: 2354
cur table: 2377
epoch: 1000
next table: 1801
cur table: 1792
epoch: 1000
next table: 2372
cur table: 2354
epoch: 1000
next table: 1779
cur table: 1801
epoch: 1000
next table: 2363
cur table: 2372
epoch: 1000
next table: 1812
cur table: 1779
epoch: 1000
next table: 2345
cur table: 2363
epoch: 1000
next table: 1808
cur table: 1812
epoch: 1000
next table: 2322
cur table: 2345
epoch: 1000
next table: 1832
cur table: 1808
epoch: 1000
next table: 2288
cur table: 2322
epoch: 1000
next table: 1834
cur table: 1832
epoch: 1000
next table: 2367
cur table: 2288
epoch: 1000
next table: 1796
cur table: 1834
epoch: 1000
next table: 2372
cur table: 2367
epoch: 1000
next table: 1790
cur table: 1796
epoch: 1000
next table: 2370
cur table: 2372
epoch: 1000
next table: 1774
cur table: 1790
epoch: 1000
next table: 2379
cur table: 2370
epoch: 1000
next table: 1811
cur table: 1774
epoch: 1000
next table: 2368
cur table: 2379
epoch: 1000
next table: 1789
cur table: 1811
epoch: 1000
next table: 2355
cur table: 2368
epoch: 1000
next table: 1802
cur table: 1789
epoch: 1000
next table: 2373
cur table: 2355
epoch: 1000
next table: 1784
cur table: 1802
epoch: 1000
next table: 2380
cur table: 2373
epoch: 1000
next table: 1786
cur table: 1784
epoch: 1000
next table: 2385
cur table: 2380
epoch: 1000
next table: 1777
cur table: 1786
epoch: 1000
next table: 2395
cur table: 2385
epoch: 1000
next table: 1785
cur table: 1777
epoch: 1000
next table: 2368
cur table: 2395
epoch: 1000
next table: 1808
cur table: 1785
epoch: 1000
next table: 2357
cur table: 2368
epoch: 1000
next table: 1787
cur table: 1808
epoch: 1000
next table: 2367
cur table: 2357
epoch: 1000
next table: 1799
cur table: 1787
epoch: 1000
next table: 2393
cur table: 2367
epoch: 1000
next table: 1783
cur table: 1799
epoch: 1000
next table: 2388
cur table: 2393
epoch: 1000
next table: 1766
cur table: 1783
epoch: 1000
next table: 2388
cur table: 2388
epoch: 1000
next table: 1776
cur table: 1766
epoch: 1000
next table: 2393
cur table: 2388
epoch: 1000
next table: 1791
cur table: 1776
epoch: 1000
next table: 2393
cur table: 2393
epoch: 1000
next table: 1771
cur table: 1791
epoch: 1000
next table: 2406
cur table: 2393
epoch: 1000
next table: 1768
cur table: 1771
epoch: 1000
next table: 2418
cur table: 2406
epoch: 1000
next table: 1780
cur table: 1768
epoch: 1000
next table: 2362
cur table: 2418
epoch: 1000
next table: 2380
cur table: 2362
epoch: 1000
next table: 1782
cur table: 1780
epoch: 1000
next table: 2394
cur table: 2380
epoch: 1000
next table: 1777
cur table: 1782
epoch: 1000
next table: 2411
cur table: 2394
epoch: 1000
next table: 1781
cur table: 1777
epoch: 1000
next table: 2368
cur table: 2411
epoch: 1000
next table: 1796
cur table: 1781
epoch: 1000
next table: 2380
cur table: 2368
epoch: 1000
next table: 1780
cur table: 1796
epoch: 1000
next table: 2398
cur table: 2380
epoch: 1000
next table: 1778
cur table: 1780
epoch: 1000
next table: 2377
cur table: 2398
epoch: 1000
next table: 1795
cur table: 1778
epoch: 1000
next table: 2384
cur table: 2377
epoch: 1000
next table: 1776
cur table: 1795
epoch: 1000
next table: 2401
cur table: 2384
epoch: 1000
next table: 1776
cur table: 1776
epoch: 1000
next table: 2366
cur table: 2401
epoch: 1000
next table: 1788
cur table: 1776
epoch: 1000
next table: 2358
cur table: 2366
epoch: 1000
next table: 1799
cur table: 1788
epoch: 1000
next table: 2377
cur table: 2358
epoch: 1000
next table: 1777
cur table: 1799
epoch: 1000
next table: 2361
cur table: 2377
epoch: 1000
next table: 1813
cur table: 1777
epoch: 1000
next table: 2382
cur table: 2361
epoch: 1000
next table: 1786
cur table: 1813
epoch: 1000
next table: 2318
cur table: 2382
epoch: 1000
next table: 1807
cur table: 1786
epoch: 1000
next table: 2365
cur table: 2318
epoch: 1000
next table: 1794
cur table: 1807
epoch: 1000
next table: 2390
cur table: 2365
epoch: 1000
next table: 1779
cur table: 1794
epoch: 1000
next table: 2368
cur table: 2390
epoch: 1000
next table: 1780
cur table: 1779
epoch: 1000
next table: 2366
cur table: 2368
epoch: 1000
next table: 1789
cur table: 1780
epoch: 1000
next table: 2360
cur table: 2366
epoch: 1000
next table: 1795
cur table: 1789
epoch: 1000
next table: 2382
cur table: 2360
epoch: 1000
next table: 1803
cur table: 1795
epoch: 1000
next table: 2358
cur table: 2382
epoch: 1000
next table: 1792
cur table: 1803
epoch: 1000
next table: 2365
cur table: 2358
epoch: 1000
next table: 1795
cur table: 1792
epoch: 1000
next table: 2372
cur table: 2365
epoch: 1000
next table: 1798
cur table: 1795
epoch: 1000
next table: 2394
cur table: 2372
epoch: 1000
next table: 1761
cur table: 1798
epoch: 1000
next table: 2419
cur table: 2394
epoch: 1000
next table: 1772
cur table: 1761
epoch: 1000
next table: 2378
cur table: 2419
epoch: 1000
next table: 1760
cur table: 1772
epoch: 1000
next table: 2400
cur table: 2378
epoch: 1000
next table: 1765
cur table: 1760
epoch: 1000
next table: 2383
cur table: 2400
epoch: 1000
next table: 1772
cur table: 1765
epoch: 1000
next table: 2409
cur table: 2383
epoch: 1000
next table: 1779
cur table: 1772
epoch: 1000
next table: 2378
cur table: 2409
epoch: 1000
next table: 1782
cur table: 1779
epoch: 1000
next table: 2408
cur table: 2378
epoch: 1000
next table: 1804
cur table: 1782
epoch: 1000
next table: 2343
cur table: 2408
epoch: 1000
next table: 1800
cur table: 1804
epoch: 1000
next table: 2351
cur table: 2343
epoch: 1000
next table: 1801
cur table: 1800
epoch: 1000
next table: 2346
cur table: 2351
epoch: 1000
next table: 1796
cur table: 1801
epoch: 1000
next table: 2363
cur table: 2346
epoch: 1000
next table: 1789
cur table: 1796
epoch: 1000
next table: 2334
cur table: 2363
epoch: 1000
next table: 2404
cur table: 2334
epoch: 1000
next table: 1795
cur table: 1789
epoch: 1000
next table: 2397
cur table: 2404
epoch: 1000
next table: 1767
cur table: 1795
epoch: 1000
next table: 2418
cur table: 2397
epoch: 1000
next table: 1775
cur table: 1767
epoch: 1000
next table: 2376
cur table: 2418
epoch: 1000
next table: 1782
cur table: 1775
epoch: 1000
next table: 2347
cur table: 2376
epoch: 1000
next table: 1813
cur table: 1782
epoch: 1000
next table: 2343
cur table: 2347
epoch: 1000
next table: 1812
cur table: 1813
epoch: 1000
next table: 2388
cur table: 2343
epoch: 1000
next table: 1788
cur table: 1812
epoch: 1000
next table: 2314
cur table: 2388
epoch: 1000
next table: 1819
cur table: 1788
epoch: 1000
next table: 2349
cur table: 2314
epoch: 1000
next table: 1811
cur table: 1819
epoch: 1000
next table: 2379
cur table: 2349
epoch: 1000
next table: 1813
cur table: 1811
epoch: 1000
next table: 2368
cur table: 2379
epoch: 1000
next table: 1767
cur table: 1813
epoch: 1000
next table: 2377
cur table: 2368
epoch: 1000
next table: 1796
cur table: 1767
epoch: 1000
next table: 2357
cur table: 2377
epoch: 1000
next table: 1790
cur table: 1796
epoch: 1000
next table: 2393
cur table: 2357
epoch: 1000
next table: 1761
cur table: 1790
epoch: 1000
next table: 2404
cur table: 2393
epoch: 1000
next table: 1774
cur table: 1761
epoch: 1000
next table: 2379
cur table: 2404
epoch: 1000
next table: 1767
cur table: 1774
epoch: 1000
next table: 2414
cur table: 2379
epoch: 1000
next table: 1767
cur table: 1767
epoch: 1000
next table: 2398
cur table: 2414
epoch: 1000
next table: 1780
cur table: 1767
epoch: 1000
next table: 2397
cur table: 2398
epoch: 1000
next table: 1770
cur table: 1780
epoch: 1000
next table: 2385
cur table: 2397
epoch: 1000
next table: 1787
cur table: 1770
epoch: 1000
next table: 2415
cur table: 2385
epoch: 1000
next table: 1774
cur table: 1787
epoch: 1000
next table: 2357
cur table: 2415
epoch: 1000
next table: 1783
cur table: 1774
epoch: 1000
next table: 2345
cur table: 2357
epoch: 1000
next table: 1803
cur table: 1783
epoch: 1000
next table: 2357
cur table: 2345
epoch: 1000
next table: 1778
cur table: 1803
epoch: 1000
next table: 2404
cur table: 2357
epoch: 1000
next table: 1795
cur table: 1778
epoch: 1000
next table: 2336
cur table: 2404
epoch: 1000
next table: 1813
cur table: 1795
epoch: 1000
next table: 2308
cur table: 2336
epoch: 1000
next table: 1792
cur table: 1813
epoch: 1000
next table: 2387
cur table: 2308
epoch: 1000
next table: 1780
cur table: 1792
epoch: 1000
next table: 2400
cur table: 2387
epoch: 1000
next table: 1786
cur table: 1780
epoch: 1000
next table: 2338
cur table: 2400
epoch: 1000
next table: 1765
cur table: 1786
epoch: 1000
next table: 2403
cur table: 2338
epoch: 1000
next table: 1795
cur table: 1765
epoch: 1000
next table: 2362
cur table: 2403
epoch: 1000
next table: 1820
cur table: 1795
epoch: 1000
next table: 2358
cur table: 2362
epoch: 1000
next table: 1798
cur table: 1820
epoch: 1000
next table: 2340
cur table: 2358
epoch: 1000
next table: 1806
cur table: 1798
epoch: 1000
next table: 2356
cur table: 2340
epoch: 1000
next table: 1769
cur table: 1806
epoch: 1000
next table: 2422
cur table: 2356
epoch: 1000
next table: 1786
cur table: 1769
epoch: 1000
next table: 2406
cur table: 2422
epoch: 1000
next table: 2370
cur table: 2406
epoch: 1000
next table: 1776
cur table: 1786
epoch: 1000
next table: 2312
cur table: 2370
epoch: 1000
next table: 1797
cur table: 1776
epoch: 1000
next table: 2330
cur table: 2312
epoch: 1000
next table: 1820
cur table: 1797
epoch: 1000
next table: 2328
cur table: 2330
epoch: 1000
next table: 1806
cur table: 1820
epoch: 1000
next table: 2313
cur table: 2328
epoch: 1000
next table: 1816
cur table: 1806
epoch: 1000
next table: 2381
cur table: 2313
epoch: 1000
next table: 1770
cur table: 1816
epoch: 1000
next table: 2387
cur table: 2381
epoch: 1000
next table: 1783
cur table: 1770
epoch: 1000
next table: 2358
cur table: 2387
epoch: 1000
next table: 1788
cur table: 1783
epoch: 1000
next table: 2360
cur table: 2358
epoch: 1000
next table: 1793
cur table: 1788
epoch: 1000
next table: 2406
cur table: 2360
epoch: 1000
next table: 1778
cur table: 1793
epoch: 1000
next table: 2375
cur table: 2406
epoch: 1000
next table: 1803
cur table: 1778
epoch: 1000
next table: 2354
cur table: 2375
epoch: 1000
next table: 1772
cur table: 1803
epoch: 1000
next table: 2368
cur table: 2354
epoch: 1000
next table: 1811
cur table: 1772
epoch: 1000
next table: 2354
cur table: 2368
epoch: 1000
next table: 1795
cur table: 1811
epoch: 1000
next table: 2404
cur table: 2354
epoch: 1000
next table: 1780
cur table: 1795
epoch: 1000
next table: 2305
cur table: 2404
epoch: 1000
next table: 1793
cur table: 1780
epoch: 1000
next table: 2353
cur table: 2305
epoch: 1000
next table: 1823
cur table: 1793
epoch: 1000
next table: 2345
cur table: 2353
epoch: 1000
next table: 1819
cur table: 1823
epoch: 1000
next table: 2319
cur table: 2345
epoch: 1000
next table: 1791
cur table: 1819
epoch: 1000
next table: 2371
cur table: 2319
epoch: 1000
next table: 1780
cur table: 1791
epoch: 1000
next table: 2395
cur table: 2371
epoch: 1000
next table: 1780
cur table: 1780
epoch: 1000
next table: 2388
cur table: 2395
epoch: 1000
next table: 1781
cur table: 1780
epoch: 1000
next table: 2379
cur table: 2388
epoch: 1000
next table: 1782
cur table: 1781
epoch: 1000
next table: 2360
cur table: 2379
epoch: 1000
next table: 1787
cur table: 1782
epoch: 1000
next table: 2349
cur table: 2360
epoch: 1000
next table: 1828
cur table: 1787
epoch: 1000
next table: 2357
cur table: 2349
epoch: 1000
next table: 1792
cur table: 1828
epoch: 1000
next table: 2353
cur table: 2357
epoch: 1000
next table: 1778
cur table: 1792
epoch: 1000
next table: 2369
cur table: 2353
epoch: 1000
next table: 1788
cur table: 1778
epoch: 1000
next table: 2348
cur table: 2369
epoch: 1000
next table: 1801
cur table: 1788
epoch: 1000
next table: 2367
cur table: 2348
epoch: 1000
next table: 1784
cur table: 1801
epoch: 1000
next table: 2354
cur table: 2367
epoch: 1000
next table: 1813
cur table: 1784
epoch: 1000
next table: 2317
cur table: 2354
epoch: 1000
next table: 2330
cur table: 2317
epoch: 1000
next table: 1821
cur table: 1813
epoch: 1000
next table: 2301
cur table: 2330
epoch: 1000
next table: 1794
cur table: 1821
epoch: 1000
next table: 2363
cur table: 2301
epoch: 1000
next table: 1799
cur table: 1794
epoch: 1000
next table: 2388
cur table: 2363
epoch: 1000
next table: 1788
cur table: 1799
epoch: 1000
next table: 2386
cur table: 2388
epoch: 1000
next table: 1792
cur table: 1788
epoch: 1000
next table: 2361
cur table: 2386
epoch: 1000
next table: 1790
cur table: 1792
epoch: 1000
next table: 2389
cur table: 2361
epoch: 1000
next table: 1786
cur table: 1790
epoch: 1000
next table: 2391
cur table: 2389
epoch: 1000
next table: 1804
cur table: 1786
epoch: 1000
next table: 2401
cur table: 2391
epoch: 1000
next table: 1800
cur table: 1804
epoch: 1000
next table: 2365
cur table: 2401
epoch: 1000
next table: 1777
cur table: 1800
epoch: 1000
next table: 2342
cur table: 2365
epoch: 1000
next table: 1831
cur table: 1777
epoch: 1000
next table: 2369
cur table: 2342
epoch: 1000
next table: 1784
cur table: 1831
epoch: 1000
next table: 2388
cur table: 2369
epoch: 1000
next table: 1794
cur table: 1784
epoch: 1000
next table: 2356
cur table: 2388
epoch: 1000
next table: 1792
cur table: 1794
epoch: 1000
next table: 2377
cur table: 2356
epoch: 1000
next table: 1791
cur table: 1792
epoch: 1000
next table: 2398
cur table: 2377
epoch: 1000
next table: 1788
cur table: 1791
epoch: 1000
next table: 2399
cur table: 2398
epoch: 1000
next table: 1780
cur table: 1788
epoch: 1000
next table: 2384
cur table: 2399
epoch: 1000
next table: 1790
cur table: 1780
epoch: 1000
next table: 2363
cur table: 2384
epoch: 1000
next table: 1810
cur table: 1790
epoch: 1000
next table: 2355
cur table: 2363
epoch: 1000
next table: 1795
cur table: 1810
epoch: 1000
next table: 2384
cur table: 2355
epoch: 1000
next table: 1795
cur table: 1795
epoch: 1000
next table: 2387
cur table: 2384
epoch: 1000
next table: 1804
cur table: 1795
epoch: 1000
next table: 2328
cur table: 2387
epoch: 1000
next table: 1785
cur table: 1804
epoch: 1000
next table: 2404
cur table: 2328
epoch: 1000
next table: 1818
cur table: 1785
epoch: 1000
next table: 2340
cur table: 2404
epoch: 1000
next table: 1795
cur table: 1818
epoch: 1000
next table: 2328
cur table: 2340
epoch: 1000
next table: 2297
cur table: 2328
epoch: 1000
next table: 1825
cur table: 1795
epoch: 1000
next table: 2335
cur table: 2297
epoch: 1000
next table: 1828
cur table: 1825
epoch: 1000
next table: 2308
cur table: 2335
epoch: 1000
next table: 1811
cur table: 1828
epoch: 1000
next table: 2346
cur table: 2308
epoch: 1000
next table: 1814
cur table: 1811
epoch: 1000
next table: 2361
cur table: 2346
epoch: 1000
next table: 1796
cur table: 1814
epoch: 1000
next table: 2334
cur table: 2361
epoch: 1000
next table: 1804
cur table: 1796
epoch: 1000
next table: 2279
cur table: 2334
epoch: 1000
next table: 1837
cur table: 1804
epoch: 1000
next table: 2320
cur table: 2279
epoch: 1000
next table: 1812
cur table: 1837
epoch: 1000
next table: 2300
cur table: 2320
epoch: 1000
next table: 1819
cur table: 1812
epoch: 1000
next table: 2343
cur table: 2300
epoch: 1000
next table: 1796
cur table: 1819
epoch: 1000
next table: 2364
cur table: 2343
epoch: 1000
next table: 1788
cur table: 1796
epoch: 1000
next table: 2344
cur table: 2364
epoch: 1000
next table: 1791
cur table: 1788
epoch: 1000
next table: 2375
cur table: 2344
epoch: 1000
next table: 1789
cur table: 1791
epoch: 1000
next table: 2371
cur table: 2375
epoch: 1000
next table: 1800
cur table: 1789
epoch: 1000
next table: 2381
cur table: 2371
epoch: 1000
next table: 1789
cur table: 1800
epoch: 1000
next table: 2372
cur table: 2381
epoch: 1000
next table: 1789
cur table: 1789
epoch: 1000
next table: 2406
cur table: 2372
epoch: 1000
next table: 1791
cur table: 1789
epoch: 1000
next table: 2373
cur table: 2406
epoch: 1000
next table: 1786
cur table: 1791
epoch: 1000
next table: 2390
cur table: 2373
epoch: 1000
next table: 1809
cur table: 1786
epoch: 1000
next table: 2341
cur table: 2390
epoch: 1000
next table: 1799
cur table: 1809
epoch: 1000
next table: 2322
cur table: 2341
epoch: 1000
next table: 1797
cur table: 1799
epoch: 1000
next table: 2386
cur table: 2322
epoch: 1000
next table: 1793
cur table: 1797
epoch: 1000
next table: 2359
cur table: 2386
epoch: 1000
next table: 1785
cur table: 1793
epoch: 1000
next table: 2365
cur table: 2359
epoch: 1000
next table: 1817
cur table: 1785
epoch: 1000
next table: 2358
cur table: 2365
epoch: 1000
next table: 1801
cur table: 1817
epoch: 1000
next table: 2362
cur table: 2358
epoch: 1000
next table: 2373
cur table: 2362
epoch: 1000
next table: 1811
cur table: 1801
epoch: 1000
next table: 2350
cur table: 2373
epoch: 1000
next table: 1818
cur table: 1811
epoch: 1000
next table: 2366
cur table: 2350
epoch: 1000
next table: 1804
cur table: 1818
epoch: 1000
next table: 2345
cur table: 2366
epoch: 1000
next table: 1827
cur table: 1804
epoch: 1000
next table: 2331
cur table: 2345
epoch: 1000
next table: 1796
cur table: 1827
epoch: 1000
next table: 2350
cur table: 2331
epoch: 1000
[...]
epoch: 1000
next table: 2313
cur table: 2334
epoch: 1000
next table: 1869
cur table: 1826
epoch: 1000
next table: 2273
cur table: 2313
epoch: 1000
next table: 1850
cur table: 1869
epoch: 1000
next table: 2350
cur table: 2273
epoch: 1000
next table: 1795
cur table: 1850
epoch: 1000
next table: 2376
cur table: 2350
epoch: 1000
next table: 1796
cur table: 1795
epoch: 1000
next table: 2381
cur table: 2376
epoch: 1000
next table: 1796
cur table: 1796
epoch: 1000
next table: 2445
cur table: 2381
epoch: 1000
next table: 1810
cur table: 1796
epoch: 1000
next table: 2409
cur table: 2445
epoch: 1000
next table: 1810
cur table: 1810
epoch: 1000
next table: 2476
cur table: 2409
epoch: 1000
next table: 1764
cur table: 1810
epoch: 1000
next table: 2468
cur table: 2476
epoch: 1000
next table: 1797
cur table: 1764
epoch: 1000
next table: 2493
cur table: 2468
epoch: 1000
next table: 1780
cur table: 1797
epoch: 1000
next table: 2470
cur table: 2493
epoch: 1000
next table: 1778
cur table: 1780
epoch: 1000
next table: 2461
cur table: 2470
epoch: 1000
next table: 1811
cur table: 1778
epoch: 1000
next table: 2494
cur table: 2461
epoch: 1000
next table: 1776
cur table: 1811
epoch: 1000
next table: 2500
cur table: 2494
epoch: 1000
next table: 1792
cur table: 1776
epoch: 1000
next table: 2465
cur table: 2500
epoch: 1000
next table: 1783
cur table: 1792
epoch: 1000
next table: 2484
cur table: 2465
epoch: 1000
next table: 1765
cur table: 1783
epoch: 1000
next table: 2490
cur table: 2484
epoch: 1000
next table: 1809
cur table: 1765
epoch: 1000
next table: 2482
cur table: 2490
epoch: 1000
next table: 1779
cur table: 1809
epoch: 1000
next table: 2473
cur table: 2482
epoch: 1000
next table: 1790
cur table: 1779
epoch: 1000
next table: 2495
cur table: 2473
epoch: 1000
next table: 1788
cur table: 1790
epoch: 1000
next table: 2475
cur table: 2495
epoch: 1000
next table: 1811
cur table: 1788
epoch: 1000
next table: 2351
cur table: 2475
epoch: 1000
next table: 1826
cur table: 1811
epoch: 1000
next table: 2409
cur table: 2351
epoch: 1000
next table: 1800
cur table: 1826
epoch: 1000
next table: 2420
cur table: 2409
epoch: 1000
next table: 1790
cur table: 1800
epoch: 1000
next table: 2482
cur table: 2420
epoch: 1000
next table: 1796
cur table: 1790
epoch: 1000
next table: 2398
cur table: 2482
epoch: 1000
next table: 1815
cur table: 1796
epoch: 1000
next table: 2483
cur table: 2398
epoch: 1000
next table: 2428
cur table: 2483
epoch: 1000
next table: 1800
cur table: 1815
Heartbeat CPU 0 instructions: 100000002 cycles: 117604270 heartbeat IPC: 0.48234 cumulative IPC: 0.485118 (Simulation time: 1 hr 59 min 8 sec) 
Finished CPU 0 instructions: 50000001 cycles: 103067792 cumulative IPC: 0.485118 (Simulation time: 1 hr 59 min 8 sec) 

ChampSim completed all CPUs

Region of Interest Statistics

CPU 0 cumulative IPC: 0.485118 instructions: 50000001 cycles: 103067792
ITLB TOTAL     ACCESS:    6767804  HIT:    6767804  MISS:          0  HIT %:        100  MISS %:          0   MPKI: 0
ITLB LOAD TRANSLATION ACCESS:    6767804  HIT:    6767804  MISS:          0  HIT %:        100  MISS %:          0   MPKI: 0
ITLB PREFETCH  REQUESTED:          0  ISSUED:          0  USEFUL:          0  USELESS:          0
ITLB USEFUL LOAD PREFETCHES:          0 PREFETCH ISSUED TO LOWER LEVEL:          0  ACCURACY: -nan
ITLB TIMELY PREFETCHES:          0 LATE PREFETCHES: 0 DROPPED PREFETCHES: 0
ITLB PREFETCHES SAME FILL-ORIGIN LEVEL: 0 DIFFERENT FILL-ORIGIN LEVEL: 0
ITLB AVERAGE MISS LATENCY: -nan cycles
ITLB RQ	ACCESS:    8712208	FORWARD:          0	MERGED:    1944404	TO_CACHE:    6767804

Revised Interactions: positive negative neutral
ITLB_interactions 0 0 0 -nan -nan -nan
DTLB TOTAL     ACCESS:    8804432  HIT:    8735775  MISS:      68657  HIT %:    99.2202  MISS %:     0.7798   MPKI: 1.37314
DTLB LOAD TRANSLATION ACCESS:    8804432  HIT:    8735775  MISS:      68657  HIT %:    99.2202  MISS %:     0.7798   MPKI: 1.37314
DTLB PREFETCH  REQUESTED:          0  ISSUED:          0  USEFUL:          0  USELESS:          0
DTLB USEFUL LOAD PREFETCHES:          0 PREFETCH ISSUED TO LOWER LEVEL:          0  ACCURACY: -nan
DTLB TIMELY PREFETCHES:          0 LATE PREFETCHES: 0 DROPPED PREFETCHES: 0
DTLB PREFETCHES SAME FILL-ORIGIN LEVEL: 0 DIFFERENT FILL-ORIGIN LEVEL: 0
DTLB AVERAGE MISS LATENCY: 119.381 cycles
DTLB RQ	ACCESS:   12020443	FORWARD:          0	MERGED:    3190932	TO_CACHE:    8829511

Revised Interactions: positive negative neutral
DTLB_interactions 0 0 0 -nan -nan -nan
STLB TOTAL     ACCESS:     427746  HIT:     390490  MISS:      37256  HIT %:    91.2902  MISS %:    8.70984   MPKI: 0.74512
STLB LOAD TRANSLATION ACCESS:      68657  HIT:      31401  MISS:      37256  HIT %:    45.7361  MISS %:    54.2639   MPKI: 0.74512
STLB TRANSLATION FROM L1D PREFETCHER ACCESS:     359089  HIT:     359089  MISS:          0  HIT %:        100  MISS %:          0   MPKI: 0
STLB PREFETCH  REQUESTED:          0  ISSUED:          0  USEFUL:          0  USELESS:          0
STLB USEFUL LOAD PREFETCHES:          0 PREFETCH ISSUED TO LOWER LEVEL:          0  ACCURACY: -nan
STLB TIMELY PREFETCHES:          0 LATE PREFETCHES: 0 DROPPED PREFETCHES: 0
STLB PREFETCHES SAME FILL-ORIGIN LEVEL: 0 DIFFERENT FILL-ORIGIN LEVEL: 0
STLB AVERAGE MISS LATENCY: 201.315 cycles
STLB RQ	ACCESS:     675524	FORWARD:          0	MERGED:     247778	TO_CACHE:     427746

Revised Interactions: positive negative neutral
STLB_interactions 0 0 0 -nan -nan -nan
STLB Hit, L1D data hit: 0
STLB Hit, L2C data hit: 0
STLB Hit, LLC data hit: 0
STLB Hit, LLC data miss: 0
STLB STLB hints to L2: 0
L1D TOTAL     ACCESS:   12373727  HIT:    8440673  MISS:    3933054  HIT %:    68.2145  MISS %:    31.7855   MPKI: 78.6611
L1D LOAD      ACCESS:    4006088  HIT:    3824650  MISS:     181438  HIT %:    95.4709  MISS %:    4.52906   MPKI: 3.62876
L1D RFO       ACCESS:    7837019  HIT:    4499920  MISS:    3337099  HIT %:    57.4188  MISS %:    42.5812   MPKI: 66.742
L1D PREFETCH  ACCESS:     530620  HIT:     116103  MISS:     414517  HIT %:    21.8806  MISS %:    78.1194   MPKI: 8.29034
L1D PREFETCH  REQUESTED:    1243934  ISSUED:    1213764  USEFUL:     390520  USELESS:      23993
L1D USEFUL LOAD PREFETCHES:     390520 PREFETCH ISSUED TO LOWER LEVEL:     414693  ACCURACY: 94.1709
L1D TIMELY PREFETCHES:     390520 LATE PREFETCHES: 75478 DROPPED PREFETCHES: 0
L1D PREFETCHES SAME FILL-ORIGIN LEVEL: 414693 DIFFERENT FILL-ORIGIN LEVEL: 0
L1D AVERAGE MISS LATENCY: 394.632 cycles
L1D RQ	ACCESS:   12489477	FORWARD:          0	MERGED:    5678819	TO_CACHE:    4114274
L1D WQ	ACCESS:    9219579	FORWARD:    2696384	MERGED:    1313410	TO_CACHE:    7906169
L1D PQ	ACCESS:     606897	FORWARD:          0	MERGED:         30	TO_CACHE:     606867

Revised Interactions: positive negative neutral
L1D_interactions 0 0 0 -nan -nan -nan
L1D UNIQUE REGIONS ACCESSED: 0
L1D REGIONS CONFLICTS: 0
L1D Cross Page Prefetch Requests: 0
L1D Same Page Prefetch Requests: 1241652
L1D ROI Sum of L1D PQ occupancy: 624377570
L1D PREFETCHES PUSHED FROM L2C: 0
L1I TOTAL     ACCESS:    8712208  HIT:    8712208  MISS:          0  HIT %:        100  MISS %:          0   MPKI: 0
L1I LOAD      ACCESS:    8712208  HIT:    8712208  MISS:          0  HIT %:        100  MISS %:          0   MPKI: 0
L1I PREFETCH  REQUESTED:          0  ISSUED:          0  USEFUL:          0  USELESS:          0
L1I USEFUL LOAD PREFETCHES:          0 PREFETCH ISSUED TO LOWER LEVEL:          0  ACCURACY: -nan
L1I TIMELY PREFETCHES:          0 LATE PREFETCHES: 0 DROPPED PREFETCHES: 0
L1I PREFETCHES SAME FILL-ORIGIN LEVEL: 0 DIFFERENT FILL-ORIGIN LEVEL: 0
L1I AVERAGE MISS LATENCY: -nan cycles
L1I RQ	ACCESS:   12569792	FORWARD:          0	MERGED:    3857584	TO_CACHE:    8712208

Revised Interactions: positive negative neutral
L1I_interactions 0 0 0 -nan -nan -nan
BTB TOTAL     ACCESS:     899011  HIT:     899005  MISS:          6  HIT %:    99.9993  MISS %:  0.0006674   MPKI: 0.00012
BTB BRANCH_DIRECT_JUMP	ACCESS:     146381  HIT:     146380  MISS:          1
BTB BRANCH_INDIRECT	ACCESS:          0  HIT:          0  MISS:          0
BTB BRANCH_CONDITIONAL	ACCESS:     752630  HIT:     752625  MISS:          5
BTB BRANCH_DIRECT_CALL	ACCESS:          0  HIT:          0  MISS:          0
BTB BRANCH_INDIRECT_CALL	ACCESS:          0  HIT:          0  MISS:          0
BTB BRANCH_RETURN	ACCESS:          0  HIT:          0  MISS:          0
BTB BRANCH_OTHER ACCESS:          0  HIT:          0  MISS:          0

L2C TOTAL     ACCESS:    7949415  HIT:    5260317  MISS:    2689098  HIT %:    66.1724  MISS %:    33.8276   MPKI: 53.782
L2C LOAD      ACCESS:     181438  HIT:      98134  MISS:      83304  HIT %:    54.0868  MISS %:    45.9132   MPKI: 1.66608
L2C DATA LOAD MPKI: 1.66608
L2C INSTRUCTION LOAD MPKI: 0
L2C RFO       ACCESS:    3337097  HIT:    1448346  MISS:    1888751  HIT %:    43.4014  MISS %:    56.5986   MPKI: 37.775
L2C PREFETCH  ACCESS:    1056523  HIT:     542154  MISS:     514369  HIT %:    51.3149  MISS %:    48.6851   MPKI: 10.2874
L2C DATA PREFETCH MPKI: 10.2874
L2C INSTRUCTION PREFETCH MPKI: 0
L2C WRITEBACK ACCESS:    3337099  HIT:    3139489  MISS:     197610  HIT %:    94.0784  MISS %:    5.92161   MPKI: 3.9522
L2C LOAD TRANSLATION ACCESS:      37258  HIT:      32194  MISS:       5064  HIT %:    86.4083  MISS %:    13.5917   MPKI: 0.10128
L2C PREFETCH  REQUESTED:     975928  ISSUED:     975878  USEFUL:      98133  USELESS:     416914
L2C USEFUL LOAD PREFETCHES:      98133 PREFETCH ISSUED TO LOWER LEVEL:     529047  ACCURACY: 18.549
L2C TIMELY PREFETCHES:      98133 LATE PREFETCHES: 14673 DROPPED PREFETCHES: 0
L2C PREFETCHES SAME FILL-ORIGIN LEVEL: 353037 DIFFERENT FILL-ORIGIN LEVEL: 0
L2C AVERAGE MISS LATENCY: 629.546 cycles
L2C RQ	ACCESS:    3555804	FORWARD:          0	MERGED:          0	TO_CACHE:    3555803
L2C WQ	ACCESS:    3337100	FORWARD:          1	MERGED:          0	TO_CACHE:    3337100
L2C PQ	ACCESS:    1390401	FORWARD:          0	MERGED:     170583	TO_CACHE:    1219818

Revised Interactions: positive negative neutral
L2C_interactions 95714 415889 279951 12.0919 52.5408 35.3673
L2C Instructions Evicting Data 0
L2C Translations Evicting Data 5060
L2C Data Evicting Data 2481773
L2C Instructions Evicting Instructions 0
L2C Translations Evicting Instructions 0
L2C Data Evicting Instructions 0
L2C Instructions Evicting Translations 0
L2C Translations Evicting Translations 4
L2C Data Evicting Translations 4651
L2C Dense regions hint from L2: 0
PSCL5 TOTAL     ACCESS:      37256  HIT:      37256  MISS:          0  HIT %:        100  MISS %:          0   MPKI: 0
PSCL5 LOAD TRANSLATION ACCESS:      37256  HIT:      37256  MISS:          0  HIT %:        100  MISS %:          0   MPKI: 0
PSCL5 PREFETCH  REQUESTED:          0  ISSUED:          0  USEFUL:          0  USELESS:          0
PSCL5 USEFUL LOAD PREFETCHES:          0 PREFETCH ISSUED TO LOWER LEVEL:          0  ACCURACY: -nan
PSCL5 TIMELY PREFETCHES:          0 LATE PREFETCHES: 0 DROPPED PREFETCHES: 0
PSCL5 PREFETCHES SAME FILL-ORIGIN LEVEL: 0 DIFFERENT FILL-ORIGIN LEVEL: 0

Revised Interactions: positive negative neutral
PSCL5_interactions 0 0 0 -nan -nan -nan
PSCL4 TOTAL     ACCESS:      37256  HIT:      37256  MISS:          0  HIT %:        100  MISS %:          0   MPKI: 0
PSCL4 LOAD TRANSLATION ACCESS:      37256  HIT:      37256  MISS:          0  HIT %:        100  MISS %:          0   MPKI: 0
PSCL4 PREFETCH  REQUESTED:          0  ISSUED:          0  USEFUL:          0  USELESS:          0
PSCL4 USEFUL LOAD PREFETCHES:          0 PREFETCH ISSUED TO LOWER LEVEL:          0  ACCURACY: -nan
PSCL4 TIMELY PREFETCHES:          0 LATE PREFETCHES: 0 DROPPED PREFETCHES: 0
PSCL4 PREFETCHES SAME FILL-ORIGIN LEVEL: 0 DIFFERENT FILL-ORIGIN LEVEL: 0

Revised Interactions: positive negative neutral
PSCL4_interactions 0 0 0 -nan -nan -nan
PSCL3 TOTAL     ACCESS:      37256  HIT:      37256  MISS:          0  HIT %:        100  MISS %:          0   MPKI: 0
PSCL3 LOAD TRANSLATION ACCESS:      37256  HIT:      37256  MISS:          0  HIT %:        100  MISS %:          0   MPKI: 0
PSCL3 PREFETCH  REQUESTED:          0  ISSUED:          0  USEFUL:          0  USELESS:          0
PSCL3 USEFUL LOAD PREFETCHES:          0 PREFETCH ISSUED TO LOWER LEVEL:          0  ACCURACY: -nan
PSCL3 TIMELY PREFETCHES:          0 LATE PREFETCHES: 0 DROPPED PREFETCHES: 0
PSCL3 PREFETCHES SAME FILL-ORIGIN LEVEL: 0 DIFFERENT FILL-ORIGIN LEVEL: 0

Revised Interactions: positive negative neutral
PSCL3_interactions 0 0 0 -nan -nan -nan
PSCL2 TOTAL     ACCESS:      37256  HIT:      37217  MISS:         39  HIT %:    99.8953  MISS %:   0.104681   MPKI: 0.00078
PSCL2 LOAD TRANSLATION ACCESS:      37256  HIT:      37217  MISS:         39  HIT %:    99.8953  MISS %:   0.104681   MPKI: 0.00078
PSCL2 PREFETCH  REQUESTED:          0  ISSUED:          0  USEFUL:          0  USELESS:          0
PSCL2 USEFUL LOAD PREFETCHES:          0 PREFETCH ISSUED TO LOWER LEVEL:          0  ACCURACY: -nan
PSCL2 TIMELY PREFETCHES:          0 LATE PREFETCHES: 0 DROPPED PREFETCHES: 0
PSCL2 PREFETCHES SAME FILL-ORIGIN LEVEL: 0 DIFFERENT FILL-ORIGIN LEVEL: 0

Revised Interactions: positive negative neutral
PSCL2_interactions 0 0 0 -nan -nan -nan
LLC TOTAL     ACCESS:    4380311  HIT:     423823  MISS:    3956488  HIT %:    9.67564  MISS %:    90.3244   MPKI: 79.1298
LLC LOAD      ACCESS:      68631  HIT:        173  MISS:      68458  HIT %:   0.252073  MISS %:    99.7479   MPKI: 1.36916
LLC RFO       ACCESS:    1888664  HIT:      91564  MISS:    1797100  HIT %:    4.84808  MISS %:    95.1519   MPKI: 35.942
LLC PREFETCH  ACCESS:     529042  HIT:        895  MISS:     528147  HIT %:   0.169174  MISS %:    99.8308   MPKI: 10.5629
LLC WRITEBACK ACCESS:    1888910  HIT:     330877  MISS:    1558033  HIT %:    17.5168  MISS %:    82.4832   MPKI: 31.1607
LLC LOAD TRANSLATION ACCESS:       5064  HIT:        314  MISS:       4750  HIT %:    6.20063  MISS %:    93.7994   MPKI: 0.095
LLC PREFETCH  REQUESTED:          0  ISSUED:          0  USEFUL:        119  USELESS:     528151
LLC USEFUL LOAD PREFETCHES:        119 PREFETCH ISSUED TO LOWER LEVEL:     528152  ACCURACY: 0.0225314
LLC TIMELY PREFETCHES:        119 LATE PREFETCHES: 0 DROPPED PREFETCHES: 0
LLC PREFETCHES SAME FILL-ORIGIN LEVEL: 0 DIFFERENT FILL-ORIGIN LEVEL: 0
LLC AVERAGE MISS LATENCY: 410.568 cycles
LLC RQ	ACCESS:    1962455	FORWARD:          0	MERGED:          0	TO_CACHE:    1962368
LLC WQ	ACCESS:    1888912	FORWARD:         87	MERGED:          0	TO_CACHE:    1888912
LLC PQ	ACCESS:     529047	FORWARD:          0	MERGED:          0	TO_CACHE:     529047

Revised Interactions: positive negative neutral
LLC_interactions 225 527666 222781 0.0299731 70.2925 29.6775
LLC Dense regions hint to LLC: 0

RAW hits: 555530
Loads Generated: 13045007
Loads sent to L1D: 12489477
Stores Generated: 9219573
Stores sent to L1D: 9219579
Major fault: 0 Minor fault: 40295
Allocated PAGES: 40295

stream: 
stream:times selected: 3804813
stream:pref_filled: 191881
stream:pref_useful: 177809
stream:pref_late: 23141
stream:misses: 48105
stream:misses_by_poll: 0

CS: 
CS:times selected: 587594
CS:pref_filled: 361901
CS:pref_useful: 354806
CS:pref_late: 9885
CS:misses: 76478
CS:misses_by_poll: 1438

CPLX: 
CPLX:times selected: 3212577
CPLX:pref_filled: 431890
CPLX:pref_useful: 422078
CPLX:pref_late: 18623
CPLX:misses: 188594
CPLX:misses_by_poll: 1247

NL_L1: 
NL:times selected: 2625
NL:pref_filled: 194
NL:pref_useful: 165
NL:pref_late: 51
NL:misses: 321
NL:misses_by_poll: 0

total selections: 7607609
total_filled: 414517
total_useful: 390520
total_late: 51705
total_polluted: 2685
total_misses_after_warmup: 289626
conflicts: 73923
Degree Incremented Times: 118782
Degree Decremented Times: 0

L1 IP Table Write Accesses: 3725459
L1 IP Table Read Accesses: 3651536
L1 RST Write Accesses: 1845531
L1 RST Read Accesses: 3691062
L1 CSPT Write Accesses: 1845531
L1 CSPT Read Accesses: 5889240
L1 RR Filter Tag Write Accesses: 637067
L1 RR Filter Tag Read Accesses: 301697114
L1 IP Table Tag Write Accesses: 4114276
L1 IP Table Tag Read Accesses: 4114276
L1 RST Tag Write Accesses: 0
L1 RST Tag Read Accesses: 16729346
L1 RR Filter Write Accesses: 0
L1 RR Filter Read Accesses: 13526816
test: 615997
L2 IP Table Read Accesses: 1049240
L2 IP Table Write Accesses: 867908
L2 IP Table Tag Read Accesses: 524759
L2 IP Table Tag Write Accesses: 524759

DRAM Statistics
 CHANNEL 0
 RQ ROW_BUFFER_HIT:     242378  ROW_BUFFER_MISS:    2155260
 DBUS_CONGESTED:          0
 WQ ROW_BUFFER_HIT:     319001  ROW_BUFFER_MISS:    1549863  FULL:       6900

 AVG_CONGESTED_CYCLE: -
 All warmup complete: 2
Channel 0 Bank busy for read cycles: 0
Channel 0 Bank busy for write cycles: 0
Channel 0
Rank 0
0banks busy for read cycles: 5066
0banks busy for write cycles: 0
1banks busy for read cycles: 449093
1banks busy for write cycles: 178181
2banks busy for read cycles: 637641
2banks busy for write cycles: 178180
3banks busy for read cycles: 1076729
3banks busy for write cycles: 178180
4banks busy for read cycles: 2264046
4banks busy for write cycles: 178180
5banks busy for read cycles: 6925112
5banks busy for write cycles: 178296
6banks busy for read cycles: 11612820
6banks busy for write cycles: 200940
7banks busy for read cycles: 17034168
7banks busy for write cycles: 2582719
8banks busy for read cycles: 19718290
8banks busy for write cycles: 39670152

CPU 0 Branch Prediction Accuracy: 94.9437% MPKI: 0.90914 Average ROB Occupancy at Mispredict: 164.637
Branch types
NOT_BRANCH: 49100749 98.2015%
BRANCH_DIRECT_JUMP: 146381 0.292762%
BRANCH_INDIRECT: 0 0%
BRANCH_CONDITIONAL: 752642 1.50528%
BRANCH_DIRECT_CALL: 0 0%
BRANCH_INDIRECT_CALL: 0 0%
BRANCH_RETURN: 0 0%
BRANCH_OTHER: 0 0%

@sumon_overall_L1D    390520     75478     75478     23993    414517   1213764   1243934
@Sumon_Early_by_class_L1D     62576    174443    153452        23
@Sumon_Late_by_class_L1D     12469      9469     17186        23

@Sumon_Early_by_cycle_L1D     36080     30082     29149     56448     33105    155373     43356      6914        13         0         0         0
@Sumon_Late_by_cycle_L1D      3058      2567      2185      2863     19660      8815
@Sumon_Early_stream_L1D     10455      9741      7608     14364      6881     13468        59         0         0         0         0         0
@Sumon_Early_CS_L1D     12221     10224     10300     23696     13209     87626     17141        26         0         0         0         0
@Sumon_Early_CPLX_L1D     13395     10108     11232     18383     13013     54267     26153      6888        13         0         0         0
@Sumon_Late_stream_L1D       922       848       575       876      6156      3092
@Sumon_Late_CS_L1D       958       686       531       648      3945      2701
@Sumon_Late_CPLX_L1D      1176      1032      1079      1334      9548      3017
@sumon_overall_L2C     98133     14673         0    416914    514369    975878    975928
@Sumon_Early_by_class_L2C     34669     63446         0         0
@Sumon_Late_by_class_L2C     11055      3547         0         0

@Sumon_Early_by_cycle_L2C      8147      4480      6880     14413      4822     42576     16753        62         0         0         0         0
@Sumon_Late_by_cycle_L2C        70       337      1224       434      7337      5271
@Sumon_Early_stream_L2C      6633      3643      4945      9672      2626      7101        49         0         0         0         0         0
@Sumon_Early_CS_L2C      1513       837      1934      4739      2195     35469     16699        60         0         0         0         0
@Sumon_Early_CPLX_L2C         0         0         0         0         0         0         0         0         0         0         0         0
@Sumon_Late_stream_L2C         0       245       918       364      5860      3668
@Sumon_Late_CS_L2C         0        92       306        70      1477      1602
@Sumon_Late_CPLX_L2C         0         0         0         0         0         0
DRAM PAGES: 1048576
Allocated PAGES: 40295
