
*** ChampSim Multicore Out-of-Order Simulator ***

Warmup Instructions: 50000000
Simulation Instructions: 50000000
Number of CPUs: 1
LLC sets: 2048
LLC ways: 16
Off-chip DRAM Size: 4096 MB Channels: 1 Width: 64-bit Data Rate: 6400 MT/s
CPU 0 runs ../../biswa/SPEC2017Traces/621.wrf_s-6673B.champsimtrace.xz
.xz
CPU 0 Bimodal branch predictor
BTB has LRU replacement policy
ITLB has LRU replacement policy
DTLB has LRU replacement policy
STLB has LRU replacement policy
L1I has LRU replacement policy
IP Table Entries: 256
L1D has LRU replacement policy
IP_Table L2 entries: 256
Initialize DRRIP state for L2C
Initialize Hawkeye state
epoch: 1000
next table: 1123
cur table: 2534
epoch: 1000
next table: 1076
cur table: 1123
epoch: 1000
next table: 1194
cur table: 1076
epoch: 1000
next table: 1144
cur table: 1194
epoch: 1000
next table: 1158
cur table: 1144
epoch: 1000
next table: 1176
cur table: 1158
epoch: 1000
next table: 1090
cur table: 1176
epoch: 1000
next table: 1154
cur table: 1090
epoch: 1000
next table: 1156
cur table: 1154
epoch: 1000
next table: 1156
cur table: 1156
epoch: 1000
next table: 1187
cur table: 1156
epoch: 1000
next table: 1134
cur table: 1187
epoch: 1000
next table: 1052
cur table: 1134
epoch: 1000
next table: 1158
cur table: 1052
epoch: 1000
next table: 1197
cur table: 1158
epoch: 1000
next table: 1195
cur table: 1197
epoch: 1000
next table: 1158
cur table: 1195
epoch: 1000
next table: 1171
cur table: 1158
epoch: 1000
next table: 1068
cur table: 1171
epoch: 1000
next table: 1171
cur table: 1068
epoch: 1000
next table: 1043
cur table: 1171
epoch: 1000
next table: 1058
cur table: 1043
epoch: 1000
next table: 1085
cur table: 1058
epoch: 1000
next table: 1079
cur table: 1085
epoch: 1000
next table: 1067
cur table: 1079
epoch: 1000
next table: 1045
cur table: 2112
epoch: 1000
next table: 1066
cur table: 1067
epoch: 1000
next table: 1034
cur table: 1045
epoch: 1000
next table: 1054
cur table: 1066
epoch: 1000
next table: 1027
cur table: 1034
epoch: 1000
next table: 1058
cur table: 1054
epoch: 1000
next table: 1025
cur table: 1027
epoch: 1000
next table: 1070
cur table: 1058
epoch: 1000
next table: 1039
cur table: 1025
epoch: 1000
next table: 1058
cur table: 1070
epoch: 1000
next table: 1029
cur table: 1039
epoch: 1000
next table: 1063
cur table: 1058
epoch: 1000
next table: 1022
cur table: 1029
epoch: 1000
next table: 1060
cur table: 1063
epoch: 1000
next table: 1025
cur table: 1022
epoch: 1000
next table: 1049
cur table: 1060
epoch: 1000
next table: 1023
cur table: 1025
epoch: 1000
next table: 1070
cur table: 1049
epoch: 1000
next table: 1029
cur table: 1023
epoch: 1000
next table: 1055
cur table: 1070
epoch: 1000
next table: 1027
cur table: 1029
epoch: 1000
next table: 1050
cur table: 1055
epoch: 1000
next table: 1026
cur table: 1027
epoch: 1000
next table: 1051
cur table: 1050
epoch: 1000
next table: 1025
cur table: 1026
epoch: 1000
next table: 1044
cur table: 1051
epoch: 1000
next table: 1024
cur table: 1025
epoch: 1000
next table: 1043
cur table: 1044
epoch: 1000
next table: 1022
cur table: 1024
epoch: 1000
next table: 1063
cur table: 1043
epoch: 1000
next table: 1041
cur table: 1022
epoch: 1000
next table: 1067
cur table: 1063
epoch: 1000
next table: 1059
cur table: 1067
epoch: 1000
next table: 1041
cur table: 1041
epoch: 1000
next table: 1061
cur table: 1059
epoch: 1000
next table: 1040
cur table: 1041
epoch: 1000
next table: 1065
cur table: 1061
epoch: 1000
next table: 1064
cur table: 1065
epoch: 1000
next table: 1036
cur table: 1040
epoch: 1000
next table: 1049
cur table: 1064
epoch: 1000
next table: 1039
cur table: 1036
epoch: 1000
next table: 1119
cur table: 1049
epoch: 1000
next table: 1091
cur table: 1039
epoch: 1000
next table: 1044
cur table: 1119
epoch: 1000
next table: 1025
cur table: 1091
epoch: 1000
next table: 1045
cur table: 1044
epoch: 1000
next table: 1018
cur table: 1025
epoch: 1000
next table: 1034
cur table: 1045
epoch: 1000
next table: 1015
cur table: 1018
epoch: 1000
next table: 1037
cur table: 1034
epoch: 1000
next table: 1020
cur table: 1015
epoch: 1000
next table: 1047
cur table: 1037
epoch: 1000
next table: 1018
cur table: 1020
epoch: 1000
next table: 1042
cur table: 1047
epoch: 1000
next table: 1020
cur table: 1018
epoch: 1000
next table: 1039
cur table: 1042
epoch: 1000
next table: 1020
cur table: 1020
epoch: 1000
next table: 1040
cur table: 1039
epoch: 1000
next table: 1015
cur table: 1020
epoch: 1000
next table: 1043
cur table: 1040
epoch: 1000
next table: 1022
cur table: 1015
epoch: 1000
next table: 1042
cur table: 1043
epoch: 1000
next table: 1020
cur table: 1022
epoch: 1000
next table: 1041
cur table: 1042
epoch: 1000
next table: 1017
cur table: 1020
epoch: 1000
next table: 1039
cur table: 1041
epoch: 1000
next table: 1019
cur table: 1017
epoch: 1000
next table: 1040
cur table: 1039
epoch: 1000
next table: 1019
cur table: 1019
epoch: 1000
next table: 1040
cur table: 1040
epoch: 1000
next table: 1017
cur table: 1019
epoch: 1000
next table: 1037
cur table: 1040
epoch: 1000
next table: 1021
cur table: 1017
epoch: 1000
next table: 1040
cur table: 1037
epoch: 1000
next table: 1016
cur table: 1021
epoch: 1000
next table: 1043
cur table: 1040
epoch: 1000
next table: 1019
cur table: 1016
epoch: 1000
next table: 1039
cur table: 1043
epoch: 1000
next table: 1019
cur table: 1019
epoch: 1000
next table: 1043
cur table: 1039
epoch: 1000
next table: 1015
cur table: 1019
epoch: 1000
next table: 1035
cur table: 1043
epoch: 1000
next table: 1018
cur table: 1015
epoch: 1000
next table: 1048
cur table: 1035
epoch: 1000
next table: 1019
cur table: 1018
epoch: 1000
next table: 1035
cur table: 1048
epoch: 1000
next table: 1021
cur table: 1019
epoch: 1000
next table: 1040
cur table: 1035
epoch: 1000
next table: 1018
cur table: 1021
epoch: 1000
next table: 1036
cur table: 1040
epoch: 1000
next table: 1017
cur table: 1018
epoch: 1000
next table: 1038
cur table: 1036
epoch: 1000
next table: 1017
cur table: 1017
epoch: 1000
next table: 1040
cur table: 1038
epoch: 1000
next table: 1021
cur table: 1017
epoch: 1000
next table: 1042
cur table: 1040
epoch: 1000
next table: 1096
cur table: 1021
epoch: 1000
next table: 1140
cur table: 1042
epoch: 1000
next table: 1022
cur table: 1096
epoch: 1000
next table: 1074
cur table: 1140
epoch: 1000
next table: 1019
cur table: 1022
epoch: 1000
next table: 1066
cur table: 1074
epoch: 1000
next table: 1016
cur table: 1019
epoch: 1000
next table: 1078
cur table: 1066
Heartbeat CPU 0 instructions: 10000002 cycles: 3558463 heartbeat IPC: 2.8102 cumulative IPC: 2.8102 (Simulation time: 0 hr 9 min 8 sec) 
epoch: 1000
next table: 1021
cur table: 1016
epoch: 1000
next table: 1071
cur table: 1078
epoch: 1000
next table: 1016
cur table: 1021
epoch: 1000
next table: 1066
cur table: 1071
epoch: 1000
next table: 1019
cur table: 1016
epoch: 1000
next table: 1078
cur table: 1066
epoch: 1000
next table: 1021
cur table: 1019
epoch: 1000
next table: 1089
cur table: 1078
epoch: 1000
next table: 1017
cur table: 1021
epoch: 1000
next table: 1063
cur table: 1089
epoch: 1000
next table: 1019
cur table: 1017
epoch: 1000
next table: 1053
cur table: 1063
epoch: 1000
next table: 1018
cur table: 1019
epoch: 1000
next table: 1071
cur table: 1053
epoch: 1000
next table: 1016
cur table: 1018
epoch: 1000
next table: 1071
cur table: 1071
epoch: 1000
next table: 1019
cur table: 1016
epoch: 1000
next table: 1083
cur table: 1071
epoch: 1000
next table: 1020
cur table: 1019
epoch: 1000
next table: 1061
cur table: 1083
epoch: 1000
next table: 1017
cur table: 1020
epoch: 1000
next table: 1073
cur table: 1061
epoch: 1000
next table: 1022
cur table: 1017
epoch: 1000
next table: 1072
cur table: 1073
epoch: 1000
next table: 1016
cur table: 1022
epoch: 1000
next table: 1070
cur table: 1072
epoch: 1000
next table: 1022
cur table: 1016
epoch: 1000
next table: 1088
cur table: 1070
epoch: 1000
next table: 1019
cur table: 1022
epoch: 1000
next table: 1077
cur table: 1088
epoch: 1000
next table: 1015
cur table: 1019
epoch: 1000
next table: 1068
cur table: 1077
epoch: 1000
next table: 1021
cur table: 1015
epoch: 1000
next table: 1096
cur table: 1068
epoch: 1000
next table: 1017
cur table: 1021
epoch: 1000
next table: 1071
cur table: 1096
epoch: 1000
next table: 1017
cur table: 1017
epoch: 1000
next table: 1055
cur table: 1071
epoch: 1000
next table: 1021
cur table: 1017
epoch: 1000
next table: 1073
cur table: 1055
epoch: 1000
next table: 1018
cur table: 1021
epoch: 1000
next table: 1080
cur table: 1073
epoch: 1000
next table: 1016
cur table: 1018
epoch: 1000
next table: 1063
cur table: 1080
epoch: 1000
next table: 1016
cur table: 1016
epoch: 1000
next table: 1060
cur table: 1063
epoch: 1000
next table: 1018
cur table: 1016
epoch: 1000
next table: 1071
cur table: 1060
epoch: 1000
next table: 1089
cur table: 1018
epoch: 1000
next table: 1120
cur table: 1071
epoch: 1000
next table: 1052
cur table: 1120
epoch: 1000
next table: 1039
cur table: 1089
epoch: 1000
next table: 1065
cur table: 1052
epoch: 1000
next table: 1027
cur table: 1039
epoch: 1000
next table: 1051
cur table: 1065
epoch: 1000
next table: 1062
cur table: 1051
epoch: 1000
next table: 1025
cur table: 1027
epoch: 1000
next table: 1071
cur table: 1062
epoch: 1000
next table: 1021
cur table: 1025
epoch: 1000
next table: 1060
cur table: 1071
epoch: 1000
next table: 1063
cur table: 1060
epoch: 1000
next table: 1026
cur table: 1021
epoch: 1000
next table: 1060
cur table: 1063
epoch: 1000
next table: 1027
cur table: 1026
epoch: 1000
next table: 1064
cur table: 1060
epoch: 1000
next table: 1024
cur table: 1027
epoch: 1000
next table: 1060
cur table: 1064
epoch: 1000
next table: 1063
cur table: 1060
epoch: 1000
next table: 1023
cur table: 1024
epoch: 1000
next table: 1057
cur table: 1063
epoch: 1000
next table: 1025
cur table: 1023
epoch: 1000
next table: 1072
cur table: 1057
epoch: 1000
next table: 1025
cur table: 1025
epoch: 1000
next table: 1061
cur table: 1072
epoch: 1000
next table: 1065
cur table: 1061
epoch: 1000
next table: 1025
cur table: 1025
epoch: 1000
next table: 1061
cur table: 1065
epoch: 1000
next table: 1025
cur table: 1025
epoch: 1000
next table: 1058
cur table: 1061
epoch: 1000
next table: 1060
cur table: 1058
epoch: 1000
next table: 1024
cur table: 1025
epoch: 1000
next table: 1049
cur table: 1060
epoch: 1000
next table: 1028
cur table: 1024
epoch: 1000
next table: 1063
cur table: 1049
epoch: 1000
next table: 1019
cur table: 1028
epoch: 1000
next table: 1068
cur table: 1063
epoch: 1000
next table: 1067
cur table: 1068
epoch: 1000
next table: 1024
cur table: 1019
epoch: 1000
next table: 1057
cur table: 1067
epoch: 1000
next table: 1025
cur table: 1024
epoch: 1000
next table: 1056
cur table: 1057
epoch: 1000
next table: 1067
cur table: 1056
epoch: 1000
next table: 1028
cur table: 1025
epoch: 1000
next table: 1066
cur table: 1067
epoch: 1000
next table: 1023
cur table: 1028
epoch: 1000
next table: 1058
cur table: 1066
epoch: 1000
next table: 1107
cur table: 1058
epoch: 1000
next table: 1077
cur table: 1023
epoch: 1000
next table: 1064
cur table: 1107
epoch: 1000
next table: 1038
cur table: 1077
epoch: 1000
next table: 1033
cur table: 1064
epoch: 1000
next table: 1025
cur table: 1038
epoch: 1000
next table: 1025
cur table: 1033
epoch: 1000
next table: 1028
cur table: 1025
epoch: 1000
next table: 1027
cur table: 1025
epoch: 1000
next table: 1045
cur table: 1028
epoch: 1000
next table: 1024
cur table: 1027
epoch: 1000
next table: 1041
cur table: 1045
epoch: 1000
next table: 1035
cur table: 1041
epoch: 1000
next table: 1027
cur table: 1024
epoch: 1000
next table: 1027
cur table: 1035
epoch: 1000
next table: 1025
cur table: 1027
epoch: 1000
next table: 1026
cur table: 1027
epoch: 1000
next table: 1027
cur table: 1025
epoch: 1000
next table: 1037
cur table: 1026
epoch: 1000
next table: 1024
cur table: 1037
epoch: 1000
next table: 1027
cur table: 1027
epoch: 1000
next table: 1045
cur table: 1024
epoch: 1000
next table: 1027
cur table: 1027
epoch: 1000
next table: 1025
cur table: 1045
epoch: 1000
next table: 1040
cur table: 1025
epoch: 1000
next table: 1032
cur table: 1027
epoch: 1000
next table: 1027
cur table: 1040
epoch: 1000
next table: 1027
cur table: 1032
epoch: 1000
next table: 1036
cur table: 1027
epoch: 1000
next table: 1023
cur table: 1036
epoch: 1000
next table: 1025
cur table: 1027
epoch: 1000
next table: 1039
cur table: 1023
epoch: 1000
next table: 1033
cur table: 1025
epoch: 1000
next table: 1041
cur table: 1039
epoch: 1000
next table: 1039
cur table: 1041
epoch: 1000
next table: 1029
cur table: 1033
epoch: 1000
next table: 1024
cur table: 1039
epoch: 1000
next table: 1025
cur table: 1029
epoch: 1000
next table: 1033
cur table: 1024
epoch: 1000
next table: 1028
cur table: 1033
epoch: 1000
next table: 1026
cur table: 1025
epoch: 1000
next table: 1037
cur table: 1028
epoch: 1000
next table: 1030
cur table: 1026
epoch: 1000
next table: 1028
cur table: 1037
epoch: 1000
next table: 1038
cur table: 1028
epoch: 1000
next table: 1026
cur table: 1030
epoch: 1000
next table: 1030
cur table: 1038
epoch: 1000
next table: 1026
cur table: 1026
epoch: 1000
next table: 1031
cur table: 1030
epoch: 1000
next table: 1229
cur table: 1026
epoch: 1000
next table: 1251
cur table: 1031
epoch: 1000
next table: 1294
cur table: 1229
epoch: 1000
next table: 1306
cur table: 1251
epoch: 1000
next table: 1304
cur table: 1294
epoch: 1000
next table: 1314
cur table: 1306
epoch: 1000
next table: 1312
cur table: 1304
epoch: 1000
next table: 1309
cur table: 1314
epoch: 1000
next table: 1308
cur table: 1312
epoch: 1000
next table: 1312
cur table: 1309
epoch: 1000
next table: 1305
cur table: 1308
epoch: 1000
next table: 1315
cur table: 1312
epoch: 1000
next table: 1308
cur table: 1305
epoch: 1000
next table: 1312
cur table: 1315
epoch: 1000
next table: 1307
cur table: 1308
epoch: 1000
next table: 1305
cur table: 1312
epoch: 1000
next table: 1300
cur table: 1307
epoch: 1000
next table: 1307
cur table: 1305
epoch: 1000
next table: 1313
cur table: 1300
epoch: 1000
next table: 1318
cur table: 1307
epoch: 1000
next table: 1308
cur table: 1313
epoch: 1000
next table: 1313
cur table: 1318
epoch: 1000
next table: 1304
cur table: 1308
epoch: 1000
next table: 1314
cur table: 1313
epoch: 1000
next table: 1307
cur table: 1304
epoch: 1000
next table: 1310
cur table: 1314
epoch: 1000
next table: 1307
cur table: 1307
epoch: 1000
next table: 1316
cur table: 1310
epoch: 1000
next table: 1305
cur table: 1307
epoch: 1000
next table: 1319
cur table: 1316
epoch: 1000
next table: 1306
cur table: 1305
epoch: 1000
next table: 1318
cur table: 1319
epoch: 1000
next table: 1313
cur table: 1306
epoch: 1000
next table: 1317
cur table: 1318
epoch: 1000
next table: 1305
cur table: 1313
epoch: 1000
next table: 1306
cur table: 1317
epoch: 1000
next table: 1300
cur table: 1305
epoch: 1000
next table: 1312
cur table: 1306
epoch: 1000
next table: 1311
cur table: 1300
epoch: 1000
next table: 1316
cur table: 1312
epoch: 1000
next table: 1307
cur table: 1311
epoch: 1000
next table: 1308
cur table: 1316
epoch: 1000
next table: 1310
cur table: 1307
epoch: 1000
next table: 1316
cur table: 1308
epoch: 1000
next table: 1309
cur table: 1310
epoch: 1000
next table: 1313
cur table: 1316
epoch: 1000
next table: 1302
cur table: 1309
epoch: 1000
next table: 1309
cur table: 1313
epoch: 1000
next table: 1300
cur table: 1302
epoch: 1000
next table: 1309
cur table: 1309
epoch: 1000
next table: 1311
cur table: 1300
epoch: 1000
next table: 1318
cur table: 1309
epoch: 1000
next table: 1411
cur table: 1318
epoch: 1000
next table: 1543
cur table: 1411
epoch: 1000
next table: 1538
cur table: 1543
epoch: 1000
next table: 1802
cur table: 1538
epoch: 1000
next table: 2385
cur table: 1802
epoch: 1000
next table: 3527
cur table: 1311
epoch: 1000
next table: 1369
cur table: 2385
epoch: 1000
next table: 1057
cur table: 3527
epoch: 1000
next table: 1078
cur table: 1369
epoch: 1000
next table: 1055
cur table: 1078
epoch: 1000
next table: 1024
cur table: 1057
epoch: 1000
next table: 1071
cur table: 1055
epoch: 1000
next table: 1026
cur table: 1024
epoch: 1000
next table: 1068
cur table: 1071
epoch: 1000
next table: 1072
cur table: 1068
epoch: 1000
next table: 1024
cur table: 1026
epoch: 1000
next table: 1059
cur table: 1072
epoch: 1000
next table: 1018
cur table: 1024
epoch: 1000
next table: 1066
cur table: 1059
epoch: 1000
next table: 1022
cur table: 1018
epoch: 1000
next table: 1066
cur table: 1066
epoch: 1000
next table: 1069
cur table: 1066
epoch: 1000
next table: 1024
cur table: 1022
epoch: 1000
next table: 1060
cur table: 1069
epoch: 1000
next table: 1025
cur table: 1024
epoch: 1000
next table: 1072
cur table: 1060
epoch: 1000
next table: 1021
cur table: 1025
epoch: 1000
next table: 1054
cur table: 1072
epoch: 1000
next table: 1080
cur table: 1054
epoch: 1000
next table: 1023
cur table: 1021
epoch: 1000
next table: 1068
cur table: 1080
epoch: 1000
next table: 1023
cur table: 1023
epoch: 1000
next table: 1058
cur table: 1068
epoch: 1000
next table: 1086
cur table: 1058
epoch: 1000
next table: 1022
cur table: 1023
epoch: 1000
next table: 1059
cur table: 1086
epoch: 1000
next table: 1021
cur table: 1022
epoch: 1000
next table: 1061
cur table: 1059
epoch: 1000
next table: 1020
cur table: 1021
epoch: 1000
next table: 1066
cur table: 1061
epoch: 1000
next table: 1020
cur table: 1020
epoch: 1000
next table: 1064
cur table: 1066
epoch: 1000
next table: 1077
cur table: 1064
epoch: 1000
next table: 1021
cur table: 1020
epoch: 1000
next table: 1064
cur table: 1077
epoch: 1000
next table: 1019
cur table: 1021
epoch: 1000
next table: 1069
cur table: 1064
epoch: 1000
next table: 1020
cur table: 1019
epoch: 1000
next table: 1067
cur table: 1069
epoch: 1000
next table: 1019
cur table: 1020
epoch: 1000
next table: 1067
cur table: 1067
epoch: 1000
next table: 1017
cur table: 1019
epoch: 1000
next table: 1066
cur table: 1067
epoch: 1000
next table: 1060
cur table: 1066
epoch: 1000
next table: 1020
cur table: 1017
epoch: 1000
next table: 1057
cur table: 1060
epoch: 1000
next table: 1022
cur table: 1020
epoch: 1000
next table: 1059
cur table: 1057
epoch: 1000
next table: 1022
cur table: 1022
epoch: 1000
next table: 1065
cur table: 1059
epoch: 1000
next table: 1019
cur table: 1022
epoch: 1000
next table: 1065
cur table: 1065
epoch: 1000
next table: 1017
cur table: 1019
epoch: 1000
next table: 1066
cur table: 1065
epoch: 1000
next table: 1015
cur table: 1017
epoch: 1000
next table: 1051
cur table: 1066
epoch: 1000
next table: 1017
cur table: 1015
epoch: 1000
next table: 1068
cur table: 1051
epoch: 1000
next table: 1017
cur table: 1017
epoch: 1000
next table: 1063
cur table: 1068
epoch: 1000
next table: 1087
cur table: 1063
epoch: 1000
next table: 1020
cur table: 1017
epoch: 1000
next table: 1073
cur table: 1087
epoch: 1000
next table: 1018
cur table: 1020
epoch: 1000
next table: 1086
cur table: 1073
epoch: 1000
next table: 1018
cur table: 1018
epoch: 1000
next table: 1063
cur table: 1086
epoch: 1000
next table: 1017
cur table: 1018
epoch: 1000
next table: 1061
cur table: 1063
epoch: 1000
next table: 1019
cur table: 1017
epoch: 1000
next table: 1073
cur table: 1061
epoch: 1000
next table: 1017
cur table: 1019
epoch: 1000
next table: 1059
cur table: 1073
epoch: 1000
next table: 1083
cur table: 1017
epoch: 1000
next table: 1116
cur table: 1059
epoch: 1000
next table: 1024
cur table: 1083
epoch: 1000
next table: 1033
cur table: 1116
epoch: 1000
next table: 1035
cur table: 1033
epoch: 1000
next table: 1019
cur table: 1024
epoch: 1000
next table: 1051
cur table: 1035
epoch: 1000
next table: 1022
cur table: 1019
epoch: 1000
next table: 1046
cur table: 1051
epoch: 1000
next table: 1019
cur table: 1022
epoch: 1000
next table: 1038
cur table: 1046
epoch: 1000
next table: 1019
cur table: 1019
epoch: 1000
next table: 1042
cur table: 1038
epoch: 1000
next table: 1020
cur table: 1019
epoch: 1000
next table: 1040
cur table: 1042
epoch: 1000
next table: 1037
cur table: 1040
epoch: 1000
next table: 1021
cur table: 1020
epoch: 1000
next table: 1050
cur table: 1037
epoch: 1000
next table: 1020
cur table: 1021
epoch: 1000
next table: 1047
cur table: 1050
epoch: 1000
next table: 1023
cur table: 1020
epoch: 1000
next table: 1045
cur table: 1047
epoch: 1000
next table: 1017
cur table: 1023
epoch: 1000
next table: 1037
cur table: 1045
epoch: 1000
next table: 1039
cur table: 1037
epoch: 1000
next table: 1024
cur table: 1017
epoch: 1000
next table: 1043
cur table: 1039
epoch: 1000
next table: 1015
cur table: 1024
epoch: 1000
next table: 1040
cur table: 1043
epoch: 1000
next table: 1025
cur table: 1015
epoch: 1000
next table: 1046
cur table: 1040
epoch: 1000
next table: 1017
cur table: 1025
epoch: 1000
next table: 1043
cur table: 1046
epoch: 1000
next table: 1019
cur table: 1017
epoch: 1000
next table: 1036
cur table: 1043
epoch: 1000
next table: 1035
cur table: 1036
epoch: 1000
next table: 1020
cur table: 1019
epoch: 1000
next table: 1040
cur table: 1035
epoch: 1000
next table: 1020
cur table: 1020
epoch: 1000
next table: 1042
cur table: 1040
epoch: 1000
next table: 1024
cur table: 1020
epoch: 1000
next table: 1058
cur table: 1042
epoch: 1000
next table: 1016
cur table: 1024
epoch: 1000
next table: 1035
cur table: 1058
epoch: 1000
next table: 1021
cur table: 1016
epoch: 1000
next table: 1036
cur table: 1035
epoch: 1000
next table: 1047
cur table: 1036
epoch: 1000
next table: 1019
cur table: 1021
epoch: 1000
next table: 1038
cur table: 1047
epoch: 1000
next table: 1015
cur table: 1019
epoch: 1000
next table: 1042
cur table: 1038
epoch: 1000
next table: 1021
cur table: 1015
epoch: 1000
next table: 1053
cur table: 1042
Heartbeat CPU 0 instructions: 20000003 cycles: 6463030 heartbeat IPC: 3.44285 cumulative IPC: 3.09452 (Simulation time: 0 hr 17 min 27 sec) 
epoch: 1000
next table: 1016
cur table: 1021
epoch: 1000
next table: 1031
cur table: 1053
epoch: 1000
next table: 1022
cur table: 1016
epoch: 1000
next table: 1051
cur table: 1031
epoch: 1000
next table: 1016
cur table: 1022
epoch: 1000
next table: 1037
cur table: 1051
epoch: 1000
next table: 1020
cur table: 1016
epoch: 1000
next table: 1034
cur table: 1037
epoch: 1000
next table: 1017
cur table: 1020
epoch: 1000
next table: 1064
cur table: 1034
epoch: 1000
next table: 1020
cur table: 1017
epoch: 1000
next table: 1033
cur table: 1064
epoch: 1000
next table: 1020
cur table: 1020
epoch: 1000
next table: 1037
cur table: 1033
epoch: 1000
next table: 1018
cur table: 1020
epoch: 1000
next table: 1054
cur table: 1037
epoch: 1000
next table: 1015
cur table: 1018
epoch: 1000
next table: 1038
cur table: 1054
epoch: 1000
next table: 1037
cur table: 1038
epoch: 1000
next table: 1020
cur table: 1015
epoch: 1000
next table: 1063
cur table: 1037
epoch: 1000
next table: 1018
cur table: 1020
epoch: 1000
next table: 1037
cur table: 1063
epoch: 1000
next table: 1015
cur table: 1018
epoch: 1000
next table: 1045
cur table: 1037
epoch: 1000
next table: 1020
cur table: 1015
epoch: 1000
next table: 1037
cur table: 1045
epoch: 1000
next table: 1015
cur table: 1020
epoch: 1000
next table: 1031
cur table: 1037
epoch: 1000
next table: 1052
cur table: 1015
epoch: 1000
next table: 1106
cur table: 1031
epoch: 1000
next table: 1055
cur table: 1052
epoch: 1000
next table: 1045
cur table: 1106
epoch: 1000
next table: 1024
cur table: 1055
epoch: 1000
next table: 1076
cur table: 1045
epoch: 1000
next table: 1026
cur table: 1024
epoch: 1000
next table: 1044
cur table: 1076
epoch: 1000
next table: 1058
cur table: 1044
epoch: 1000
next table: 1030
cur table: 1026
epoch: 1000
next table: 1068
cur table: 1058
epoch: 1000
next table: 1024
cur table: 1030
epoch: 1000
next table: 1055
cur table: 1068
epoch: 1000
next table: 1027
cur table: 1024
epoch: 1000
next table: 1048
cur table: 1055
epoch: 1000
next table: 1023
cur table: 1027
epoch: 1000
next table: 1078
cur table: 1048
epoch: 1000
next table: 1023
cur table: 1023
epoch: 1000
next table: 1044
cur table: 1078
epoch: 1000
next table: 1044
cur table: 1044
epoch: 1000
next table: 1024
cur table: 1023
epoch: 1000
next table: 1073
cur table: 1044
epoch: 1000
next table: 1031
cur table: 1024
epoch: 1000
next table: 1048
cur table: 1073
epoch: 1000
next table: 1023
cur table: 1031
epoch: 1000
next table: 1043
cur table: 1048
epoch: 1000
next table: 1025
cur table: 1023
epoch: 1000
next table: 1074
cur table: 1043
epoch: 1000
next table: 1042
cur table: 1074
epoch: 1000
next table: 1022
cur table: 1025
epoch: 1000
next table: 1046
cur table: 1042
epoch: 1000
next table: 1035
cur table: 1022
epoch: 1000
next table: 1074
cur table: 1046
epoch: 1000
next table: 1025
cur table: 1035
epoch: 1000
next table: 1046
cur table: 1074
epoch: 1000
next table: 1021
cur table: 1025
epoch: 1000
next table: 1054
cur table: 1046
epoch: 1000
next table: 1060
cur table: 1054
epoch: 1000
next table: 1025
cur table: 1021
epoch: 1000
next table: 1055
cur table: 1060
epoch: 1000
next table: 1039
cur table: 1025
epoch: 1000
next table: 1053
cur table: 1055
epoch: 1000
next table: 1070
cur table: 1053
epoch: 1000
next table: 1027
cur table: 1039
epoch: 1000
next table: 1046
cur table: 1070
epoch: 1000
next table: 1035
cur table: 1027
epoch: 1000
next table: 1053
cur table: 1046
epoch: 1000
next table: 1029
cur table: 1035
epoch: 1000
next table: 1071
cur table: 1053
epoch: 1000
next table: 1050
cur table: 1071
epoch: 1000
next table: 1023
cur table: 1029
epoch: 1000
next table: 1057
cur table: 1050
epoch: 1000
next table: 1028
cur table: 1023
epoch: 1000
next table: 1068
cur table: 1057
epoch: 1000
next table: 1027
cur table: 1028
epoch: 1000
next table: 1041
cur table: 1068
epoch: 1000
next table: 1021
cur table: 1027
epoch: 1000
next table: 1071
cur table: 1041
epoch: 1000
next table: 1029
cur table: 1021
epoch: 1000
next table: 1057
cur table: 1071
epoch: 1000
next table: 1043
cur table: 1057
epoch: 1000
next table: 1019
cur table: 1029
epoch: 1000
next table: 1063
cur table: 1043
epoch: 1000
next table: 1023
cur table: 1019
epoch: 1000
next table: 1042
cur table: 1063
epoch: 1000
next table: 1018
cur table: 1023
epoch: 1000
next table: 1048
cur table: 1042
epoch: 1000
next table: 1028
cur table: 1018
epoch: 1000
next table: 1069
cur table: 1048
epoch: 1000
next table: 1019
cur table: 1028
epoch: 1000
next table: 1047
cur table: 1069
epoch: 1000
next table: 1018
cur table: 1019
epoch: 1000
next table: 1046
cur table: 1047
epoch: 1000
next table: 1022
cur table: 1018
epoch: 1000
next table: 1063
cur table: 1046
epoch: 1000
next table: 1019
cur table: 1022
epoch: 1000
next table: 1056
cur table: 1063
epoch: 1000
next table: 1021
cur table: 1019
epoch: 1000
next table: 1048
cur table: 1056
epoch: 1000
next table: 1017
cur table: 1021
epoch: 1000
next table: 1068
cur table: 1048
epoch: 1000
next table: 1018
cur table: 1017
epoch: 1000
next table: 1050
cur table: 1068
epoch: 1000
next table: 1129
cur table: 1018
epoch: 1000
next table: 1262
cur table: 1050
epoch: 1000
next table: 1134
cur table: 1129
epoch: 1000
next table: 1030
cur table: 1262
epoch: 1000
next table: 1018
cur table: 1134
epoch: 1000
next table: 1024
cur table: 1030
epoch: 1000
next table: 1016
cur table: 1018
epoch: 1000
next table: 1022
cur table: 1024
epoch: 1000
next table: 1016
cur table: 1016
epoch: 1000
next table: 1027
cur table: 1022
epoch: 1000
next table: 1020
cur table: 1016
epoch: 1000
next table: 1023
cur table: 1027
epoch: 1000
next table: 1016
cur table: 1020
epoch: 1000
next table: 1022
cur table: 1023
epoch: 1000
next table: 1016
cur table: 1016
epoch: 1000
next table: 1032
cur table: 1022
epoch: 1000
next table: 1017
cur table: 1016
epoch: 1000
next table: 1025
cur table: 1032
epoch: 1000
next table: 1018
cur table: 1017
epoch: 1000
next table: 1022
cur table: 1025
epoch: 1000
next table: 1016
cur table: 1018
epoch: 1000
next table: 1032
cur table: 1022
epoch: 1000
next table: 1017
cur table: 1016
epoch: 1000
next table: 1023
cur table: 1032
epoch: 1000
next table: 1017
cur table: 1017
epoch: 1000
next table: 1024
cur table: 1023
epoch: 1000
next table: 1016
cur table: 1017
epoch: 1000
next table: 1024
cur table: 1024
epoch: 1000
next table: 1017
cur table: 1016
epoch: 1000
next table: 1023
cur table: 1024
epoch: 1000
next table: 1018
cur table: 1017
epoch: 1000
next table: 1037
cur table: 1023
epoch: 1000
next table: 1018
cur table: 1018
epoch: 1000
next table: 1028
cur table: 1037
epoch: 1000
next table: 1017
cur table: 1018
epoch: 1000
next table: 1024
cur table: 1028
epoch: 1000
next table: 1017
cur table: 1017
epoch: 1000
next table: 1048
cur table: 1024
epoch: 1000
next table: 1039
cur table: 1017
epoch: 1000
next table: 1034
cur table: 1048
epoch: 1000
next table: 1018
cur table: 1039
epoch: 1000
next table: 1028
cur table: 1034
epoch: 1000
next table: 1017
cur table: 1018
epoch: 1000
next table: 1022
cur table: 1028
epoch: 1000
next table: 1015
cur table: 1017
epoch: 1000
next table: 1023
cur table: 1022
epoch: 1000
next table: 1018
cur table: 1015
epoch: 1000
next table: 1025
cur table: 1023
epoch: 1000
next table: 1017
cur table: 1018
epoch: 1000
next table: 1024
cur table: 1025
epoch: 1000
next table: 1017
cur table: 1017
epoch: 1000
next table: 1031
cur table: 1024
epoch: 1000
next table: 1017
cur table: 1017
epoch: 1000
next table: 1024
cur table: 1031
epoch: 1000
next table: 1016
cur table: 1017
epoch: 1000
next table: 1031
cur table: 1024
epoch: 1000
next table: 1017
cur table: 1016
epoch: 1000
next table: 1025
cur table: 1031
epoch: 1000
next table: 1017
cur table: 1017
epoch: 1000
next table: 1024
cur table: 1025
epoch: 1000
next table: 1016
cur table: 1017
epoch: 1000
next table: 1022
cur table: 1024
epoch: 1000
next table: 1017
cur table: 1016
epoch: 1000
next table: 1026
cur table: 1022
epoch: 1000
next table: 1017
cur table: 1017
epoch: 1000
next table: 1024
cur table: 1026
epoch: 1000
next table: 1016
cur table: 1017
epoch: 1000
next table: 1031
cur table: 1024
epoch: 1000
next table: 1019
cur table: 1016
epoch: 1000
next table: 1029
cur table: 1031
epoch: 1000
next table: 1018
cur table: 1019
epoch: 1000
next table: 1025
cur table: 1029
epoch: 1000
next table: 1017
cur table: 1018
epoch: 1000
next table: 1032
cur table: 1025
epoch: 1000
next table: 1039
cur table: 1017
epoch: 1000
next table: 1058
cur table: 1032
epoch: 1000
next table: 1020
cur table: 1039
epoch: 1000
next table: 1031
cur table: 1058
epoch: 1000
next table: 1019
cur table: 1020
epoch: 1000
next table: 1026
cur table: 1031
epoch: 1000
next table: 1017
cur table: 1019
epoch: 1000
next table: 1030
cur table: 1026
epoch: 1000
next table: 1019
cur table: 1017
epoch: 1000
next table: 1033
cur table: 1030
epoch: 1000
next table: 1018
cur table: 1019
epoch: 1000
next table: 1026
cur table: 1033
epoch: 1000
next table: 1017
cur table: 1018
epoch: 1000
next table: 1030
cur table: 1026
epoch: 1000
next table: 1017
cur table: 1017
epoch: 1000
next table: 1030
cur table: 1030
epoch: 1000
next table: 1018
cur table: 1017
epoch: 1000
next table: 1028
cur table: 1030
epoch: 1000
next table: 1017
cur table: 1018
epoch: 1000
next table: 1028
cur table: 1028
epoch: 1000
next table: 1018
cur table: 1017
epoch: 1000
next table: 1027
cur table: 1028
epoch: 1000
next table: 1017
cur table: 1018
epoch: 1000
next table: 1029
cur table: 1027
epoch: 1000
next table: 1018
cur table: 1017
epoch: 1000
next table: 1026
cur table: 1029
epoch: 1000
next table: 1017
cur table: 1018
epoch: 1000
next table: 1030
cur table: 1026
epoch: 1000
next table: 1016
cur table: 1017
epoch: 1000
next table: 1029
cur table: 1030
epoch: 1000
next table: 1018
cur table: 1016
epoch: 1000
next table: 1029
cur table: 1029
epoch: 1000
next table: 1017
cur table: 1018
epoch: 1000
next table: 1029
cur table: 1029
epoch: 1000
next table: 1019
cur table: 1017
epoch: 1000
next table: 1029
cur table: 1029
epoch: 1000
next table: 1018
cur table: 1019
epoch: 1000
next table: 1026
cur table: 1029
epoch: 1000
next table: 1018
cur table: 1018
epoch: 1000
next table: 1029
cur table: 1026
epoch: 1000
next table: 1017
cur table: 1018
epoch: 1000
next table: 1030
cur table: 1029
epoch: 1000
next table: 1018
cur table: 1017
epoch: 1000
next table: 1036
cur table: 1030
epoch: 1000
next table: 1017
cur table: 1018
epoch: 1000
next table: 1030
cur table: 1036
epoch: 1000
next table: 1016
cur table: 1017
epoch: 1000
next table: 1032
cur table: 1030
epoch: 1000
next table: 1018
cur table: 1016
epoch: 1000
next table: 1026
cur table: 1032
epoch: 1000
next table: 1018
cur table: 1018
epoch: 1000
next table: 1030
cur table: 1026
Heartbeat CPU 0 instructions: 30000000 cycles: 9282702 heartbeat IPC: 3.54651 cumulative IPC: 3.23182 (Simulation time: 0 hr 24 min 28 sec) 
epoch: 1000
next table: 1017
cur table: 1018
epoch: 1000
next table: 1029
cur table: 1030
epoch: 1000
next table: 1019
cur table: 1017
epoch: 1000
next table: 1026
cur table: 1029
epoch: 1000
next table: 1016
cur table: 1019
epoch: 1000
next table: 1030
cur table: 1026
epoch: 1000
next table: 1016
cur table: 1016
epoch: 1000
next table: 1029
cur table: 1030
epoch: 1000
next table: 1016
cur table: 1016
epoch: 1000
next table: 1029
cur table: 1029
epoch: 1000
next table: 1018
cur table: 1016
epoch: 1000
next table: 1032
cur table: 1029
epoch: 1000
next table: 1017
cur table: 1018
epoch: 1000
next table: 1028
cur table: 1032
epoch: 1000
next table: 1018
cur table: 1017
epoch: 1000
next table: 1029
cur table: 1028
epoch: 1000
next table: 1018
cur table: 1018
epoch: 1000
next table: 1025
cur table: 1029
epoch: 1000
next table: 1017
cur table: 1018
epoch: 1000
next table: 1055
cur table: 1025
epoch: 1000
next table: 1036
cur table: 1017
epoch: 1000
next table: 1030
cur table: 1055
epoch: 1000
next table: 1020
cur table: 1036
epoch: 1000
next table: 1035
cur table: 1030
epoch: 1000
next table: 1016
cur table: 1020
epoch: 1000
next table: 1030
cur table: 1035
epoch: 1000
next table: 1019
cur table: 1016
epoch: 1000
next table: 1032
cur table: 1030
epoch: 1000
next table: 1019
cur table: 1019
epoch: 1000
next table: 1035
cur table: 1032
epoch: 1000
next table: 1017
cur table: 1019
epoch: 1000
next table: 1030
cur table: 1035
epoch: 1000
next table: 1019
cur table: 1017
epoch: 1000
next table: 1038
cur table: 1030
epoch: 1000
next table: 1018
cur table: 1019
epoch: 1000
next table: 1039
cur table: 1038
epoch: 1000
next table: 1016
cur table: 1018
epoch: 1000
next table: 1034
cur table: 1039
epoch: 1000
next table: 1018
cur table: 1016
epoch: 1000
next table: 1036
cur table: 1034
epoch: 1000
next table: 1017
cur table: 1018
epoch: 1000
next table: 1030
cur table: 1036
epoch: 1000
next table: 1018
cur table: 1017
epoch: 1000
next table: 1030
cur table: 1030
epoch: 1000
next table: 1019
cur table: 1018
epoch: 1000
next table: 1034
cur table: 1030
epoch: 1000
next table: 1018
cur table: 1019
epoch: 1000
next table: 1032
cur table: 1034
epoch: 1000
next table: 1016
cur table: 1018
epoch: 1000
next table: 1031
cur table: 1032
epoch: 1000
next table: 1019
cur table: 1016
epoch: 1000
next table: 1030
cur table: 1031
epoch: 1000
next table: 1016
cur table: 1019
epoch: 1000
next table: 1030
cur table: 1030
epoch: 1000
next table: 1017
cur table: 1016
epoch: 1000
next table: 1034
cur table: 1030
epoch: 1000
next table: 1020
cur table: 1017
epoch: 1000
next table: 1030
cur table: 1034
epoch: 1000
next table: 1017
cur table: 1020
epoch: 1000
next table: 1032
cur table: 1030
epoch: 1000
next table: 1019
cur table: 1017
epoch: 1000
next table: 1033
cur table: 1032
epoch: 1000
next table: 1018
cur table: 1019
epoch: 1000
next table: 1032
cur table: 1033
epoch: 1000
next table: 1016
cur table: 1018
epoch: 1000
next table: 1037
cur table: 1032
epoch: 1000
next table: 1018
cur table: 1016
epoch: 1000
next table: 1032
cur table: 1037
epoch: 1000
next table: 1017
cur table: 1018
epoch: 1000
next table: 1030
cur table: 1032
epoch: 1000
next table: 1019
cur table: 1017
epoch: 1000
next table: 1033
cur table: 1030
epoch: 1000
next table: 1019
cur table: 1019
epoch: 1000
next table: 1047
cur table: 1033
epoch: 1000
next table: 1158
cur table: 1019
epoch: 1000
next table: 1224
cur table: 1047
epoch: 1000
next table: 1663
cur table: 1158
epoch: 1000
next table: 1703
cur table: 1224
epoch: 1000
next table: 1930
cur table: 1663
epoch: 1000
next table: 1950
cur table: 1703
epoch: 1000
next table: 1920
cur table: 1930
epoch: 1000
next table: 2140
cur table: 1950
epoch: 1000
next table: 1786
cur table: 1920
epoch: 1000
next table: 1933
cur table: 2140
epoch: 1000
next table: 1807
cur table: 1786
epoch: 1000
next table: 1840
cur table: 1933
epoch: 1000
next table: 1931
cur table: 1807
epoch: 1000
next table: 1982
cur table: 1840
epoch: 1000
next table: 1910
cur table: 1931
epoch: 1000
next table: 2206
cur table: 1982
epoch: 1000
next table: 1722
cur table: 2206
epoch: 1000
next table: 1734
cur table: 1910
epoch: 1000
next table: 1930
cur table: 1722
epoch: 1000
next table: 2144
cur table: 1734
epoch: 1000
next table: 1993
cur table: 1930
epoch: 1000
next table: 2109
cur table: 2144
epoch: 1000
next table: 2200
cur table: 1993
epoch: 1000
next table: 1736
cur table: 2200
epoch: 1000
next table: 2959
cur table: 2109
epoch: 1000
next table: 1931
cur table: 1736
epoch: 1000
next table: 2088
cur table: 1931
epoch: 1000
next table: 2064
cur table: 2088
epoch: 1000
next table: 3193
cur table: 2959
epoch: 1000
next table: 1517
cur table: 2064
epoch: 1000
next table: 1607
cur table: 3193
epoch: 1000
next table: 1704
cur table: 1517
epoch: 1000
next table: 1674
cur table: 1607
epoch: 1000
next table: 1810
cur table: 1704
epoch: 1000
next table: 1622
cur table: 1674
epoch: 1000
next table: 1444
cur table: 1810
epoch: 1000
next table: 1262
cur table: 1622
epoch: 1000
next table: 1282
cur table: 1444
epoch: 1000
next table: 1264
cur table: 1262
epoch: 1000
next table: 1282
cur table: 1282
epoch: 1000
next table: 1260
cur table: 1264
epoch: 1000
next table: 1274
cur table: 1282
epoch: 1000
next table: 1264
cur table: 1260
epoch: 1000
next table: 1279
cur table: 1274
epoch: 1000
next table: 1258
cur table: 1264
epoch: 1000
next table: 1275
cur table: 1279
epoch: 1000
next table: 1263
cur table: 1258
epoch: 1000
next table: 1283
cur table: 1275
epoch: 1000
next table: 1263
cur table: 1263
epoch: 1000
next table: 1277
cur table: 1283
epoch: 1000
next table: 1259
cur table: 1263
epoch: 1000
next table: 1277
cur table: 1277
epoch: 1000
next table: 1253
cur table: 1259
epoch: 1000
next table: 1275
cur table: 1277
epoch: 1000
next table: 1262
cur table: 1253
epoch: 1000
next table: 1273
cur table: 1275
epoch: 1000
next table: 1256
cur table: 1262
epoch: 1000
next table: 1272
cur table: 1273
epoch: 1000
next table: 1261
cur table: 1256
epoch: 1000
next table: 1283
cur table: 1272
epoch: 1000
next table: 1262
cur table: 1261
epoch: 1000
next table: 1277
cur table: 1283
epoch: 1000
next table: 1264
cur table: 1262
epoch: 1000
next table: 1282
cur table: 1277
epoch: 1000
next table: 1260
cur table: 1264
epoch: 1000
next table: 1280
cur table: 1282
epoch: 1000
next table: 1259
cur table: 1260
epoch: 1000
next table: 1279
cur table: 1280
epoch: 1000
next table: 1265
cur table: 1259
epoch: 1000
next table: 1279
cur table: 1279
epoch: 1000
next table: 1261
cur table: 1265
epoch: 1000
next table: 1280
cur table: 1279
epoch: 1000
next table: 1256
cur table: 1261
epoch: 1000
next table: 1274
cur table: 1280
epoch: 1000
next table: 1263
cur table: 1256
epoch: 1000
next table: 1283
cur table: 1274
epoch: 1000
next table: 1264
cur table: 1263
epoch: 1000
next table: 1276
cur table: 1283
epoch: 1000
next table: 1261
cur table: 1264
epoch: 1000
next table: 1288
cur table: 1276
epoch: 1000
next table: 1264
cur table: 1261
epoch: 1000
next table: 1285
cur table: 1288
epoch: 1000
next table: 1254
cur table: 1264
epoch: 1000
next table: 1263
cur table: 1285
epoch: 1000
next table: 1258
cur table: 1254
epoch: 1000
next table: 1279
cur table: 1263
epoch: 1000
next table: 1259
cur table: 1258
epoch: 1000
next table: 1277
cur table: 1279
epoch: 1000
next table: 1258
cur table: 1259
epoch: 1000
next table: 1275
cur table: 1277
epoch: 1000
next table: 1262
cur table: 1258
epoch: 1000
next table: 1280
cur table: 1275
epoch: 1000
next table: 1261
cur table: 1262
epoch: 1000
next table: 1279
cur table: 1280
epoch: 1000
next table: 1259
cur table: 1261
epoch: 1000
next table: 1279
cur table: 1279
epoch: 1000
next table: 1265
cur table: 1259
epoch: 1000
next table: 1281
cur table: 1279
epoch: 1000
next table: 1259
cur table: 1265
epoch: 1000
next table: 1281
cur table: 1281
epoch: 1000
next table: 1262
cur table: 1259
epoch: 1000
next table: 1278
cur table: 1281
epoch: 1000
next table: 1261
cur table: 1262
epoch: 1000
next table: 1284
cur table: 1278
epoch: 1000
next table: 1294
cur table: 1261
epoch: 1000
next table: 1320
cur table: 1284
epoch: 1000
next table: 1326
cur table: 1294
epoch: 1000
next table: 1343
cur table: 1320
epoch: 1000
next table: 1322
cur table: 1326
epoch: 1000
next table: 1340
cur table: 1343
epoch: 1000
next table: 1331
cur table: 1322
epoch: 1000
next table: 1343
cur table: 1340
epoch: 1000
next table: 1333
cur table: 1331
epoch: 1000
next table: 1332
cur table: 1343
epoch: 1000
next table: 1330
cur table: 1333
epoch: 1000
next table: 1356
cur table: 1332
epoch: 1000
next table: 1324
cur table: 1330
epoch: 1000
next table: 1337
cur table: 1356
epoch: 1000
next table: 1332
cur table: 1324
epoch: 1000
next table: 1347
cur table: 1337
epoch: 1000
next table: 1321
cur table: 1332
epoch: 1000
next table: 1338
cur table: 1347
epoch: 1000
next table: 1329
cur table: 1321
epoch: 1000
next table: 1332
cur table: 1338
epoch: 1000
next table: 1332
cur table: 1329
epoch: 1000
next table: 1348
cur table: 1332
epoch: 1000
next table: 1321
cur table: 1332
epoch: 1000
next table: 1350
cur table: 1348
epoch: 1000
next table: 1322
cur table: 1321
epoch: 1000
next table: 1335
cur table: 1350
epoch: 1000
next table: 1329
cur table: 1322
epoch: 1000
next table: 1342
cur table: 1335
epoch: 1000
next table: 1328
cur table: 1329
epoch: 1000
next table: 1336
cur table: 1342
epoch: 1000
next table: 1331
cur table: 1328
epoch: 1000
next table: 1343
cur table: 1336
epoch: 1000
next table: 1323
cur table: 1331
epoch: 1000
next table: 1335
cur table: 1343
epoch: 1000
next table: 1328
cur table: 1323
epoch: 1000
next table: 1341
cur table: 1335
epoch: 1000
next table: 1329
cur table: 1328
epoch: 1000
next table: 1346
cur table: 1341
epoch: 1000
next table: 1336
cur table: 1329
epoch: 1000
next table: 1331
cur table: 1346
epoch: 1000
next table: 1321
cur table: 1336
epoch: 1000
next table: 1348
cur table: 1331
epoch: 1000
next table: 1324
cur table: 1321
epoch: 1000
next table: 1345
cur table: 1348
epoch: 1000
next table: 1331
cur table: 1324
epoch: 1000
next table: 1342
cur table: 1345
epoch: 1000
next table: 1326
cur table: 1331
epoch: 1000
next table: 1336
cur table: 1342
epoch: 1000
next table: 1325
cur table: 1326
epoch: 1000
next table: 1327
cur table: 1336
epoch: 1000
next table: 1322
cur table: 1325
epoch: 1000
next table: 1344
cur table: 1327
epoch: 1000
next table: 1332
cur table: 1322
epoch: 1000
next table: 1358
cur table: 1344
epoch: 1000
next table: 1335
cur table: 1332
epoch: 1000
next table: 1337
cur table: 1358
epoch: 1000
next table: 1317
cur table: 1335
epoch: 1000
next table: 1335
cur table: 1337
epoch: 1000
next table: 1327
cur table: 1317
epoch: 1000
next table: 1347
cur table: 1335
epoch: 1000
next table: 1330
cur table: 1327
epoch: 1000
next table: 1339
cur table: 1347
epoch: 1000
next table: 1317
cur table: 1330
epoch: 1000
next table: 1346
cur table: 1339
epoch: 1000
next table: 1327
cur table: 1317
epoch: 1000
next table: 1348
cur table: 1346
epoch: 1000
next table: 1333
cur table: 1327
epoch: 1000
next table: 1351
cur table: 1348
epoch: 1000
next table: 1333
cur table: 1333
epoch: 1000
next table: 1343
cur table: 1351
epoch: 1000
next table: 1327
cur table: 1333
epoch: 1000
next table: 1329
cur table: 1343
epoch: 1000
next table: 1322
cur table: 1327
epoch: 1000
next table: 1338
cur table: 1329
epoch: 1000
next table: 1333
cur table: 1322
epoch: 1000
next table: 1340
cur table: 1338
epoch: 1000
next table: 1327
cur table: 1333
epoch: 1000
next table: 1347
cur table: 1340
epoch: 1000
next table: 1325
cur table: 1327
epoch: 1000
next table: 1339
cur table: 1347
epoch: 1000
next table: 1322
cur table: 1325
epoch: 1000
next table: 1336
cur table: 1339
epoch: 1000
next table: 1325
cur table: 1322
epoch: 1000
next table: 1340
cur table: 1336
epoch: 1000
next table: 1328
cur table: 1325
epoch: 1000
next table: 1340
cur table: 1340
epoch: 1000
next table: 1327
cur table: 1328
epoch: 1000
next table: 1340
cur table: 1340
epoch: 1000
next table: 1329
cur table: 1327
epoch: 1000
next table: 1343
cur table: 1340
epoch: 1000
next table: 1329
cur table: 1329
epoch: 1000
next table: 1346
cur table: 1343
epoch: 1000
next table: 1324
cur table: 1329
epoch: 1000
next table: 1341
cur table: 1346
epoch: 1000
next table: 1328
cur table: 1324
epoch: 1000
next table: 1341
cur table: 1341
epoch: 1000
next table: 1328
cur table: 1328
epoch: 1000
next table: 1346
cur table: 1341
epoch: 1000
next table: 1346
cur table: 1346
epoch: 1000
next table: 1335
cur table: 1328
epoch: 1000
next table: 1336
cur table: 1346
epoch: 1000
next table: 1322
cur table: 1335
epoch: 1000
next table: 1338
cur table: 1336
epoch: 1000
next table: 1324
cur table: 1322
epoch: 1000
next table: 1338
cur table: 1338
epoch: 1000
next table: 1324
cur table: 1324
epoch: 1000
next table: 1339
cur table: 1338
epoch: 1000
next table: 1328
cur table: 1324
epoch: 1000
next table: 1344
cur table: 1339
epoch: 1000
next table: 1328
cur table: 1328
epoch: 1000
next table: 1344
cur table: 1344
epoch: 1000
next table: 1329
cur table: 1328
epoch: 1000
next table: 1355
cur table: 1344
epoch: 1000
next table: 1337
cur table: 1329
epoch: 1000
next table: 1342
cur table: 1355
epoch: 1000
next table: 1329
cur table: 1337
epoch: 1000
next table: 1341
cur table: 1342
epoch: 1000
next table: 1329
cur table: 1329
epoch: 1000
next table: 1347
cur table: 1341
epoch: 1000
next table: 1329
cur table: 1329
epoch: 1000
next table: 1340
cur table: 1347
epoch: 1000
next table: 1325
cur table: 1329
epoch: 1000
next table: 1351
cur table: 1340
epoch: 1000
next table: 1340
cur table: 1325
epoch: 1000
next table: 1345
cur table: 1351
epoch: 1000
next table: 1335
cur table: 1340
epoch: 1000
next table: 1344
cur table: 1345
epoch: 1000
next table: 1331
cur table: 1335
epoch: 1000
next table: 1353
cur table: 1344
epoch: 1000
next table: 1318
cur table: 1331
epoch: 1000
next table: 1343
cur table: 1353
epoch: 1000
next table: 1332
cur table: 1318
epoch: 1000
next table: 1351
cur table: 1343
epoch: 1000
next table: 1332
cur table: 1332
epoch: 1000
next table: 1345
cur table: 1351
epoch: 1000
next table: 1332
cur table: 1332
epoch: 1000
next table: 1339
cur table: 1345
epoch: 1000
next table: 1322
cur table: 1332
epoch: 1000
next table: 1340
cur table: 1339
epoch: 1000
next table: 1333
cur table: 1322
epoch: 1000
next table: 1347
cur table: 1340
epoch: 1000
next table: 1342
cur table: 1333
epoch: 1000
next table: 1361
cur table: 1347
epoch: 1000
next table: 1324
cur table: 1342
epoch: 1000
next table: 1339
cur table: 1361
epoch: 1000
next table: 1331
cur table: 1324
epoch: 1000
next table: 1342
cur table: 1339
epoch: 1000
next table: 1331
cur table: 1331
epoch: 1000
next table: 1341
cur table: 1342
epoch: 1000
next table: 1327
cur table: 1331
epoch: 1000
next table: 1344
cur table: 1341
epoch: 1000
next table: 1332
cur table: 1327
epoch: 1000
next table: 1345
cur table: 1344
epoch: 1000
next table: 1330
cur table: 1332
epoch: 1000
next table: 1347
cur table: 1345
epoch: 1000
next table: 1339
cur table: 1330
epoch: 1000
next table: 1357
cur table: 1347
epoch: 1000
next table: 1326
cur table: 1339
epoch: 1000
next table: 1348
cur table: 1357
epoch: 1000
next table: 1329
cur table: 1326
epoch: 1000
next table: 1339
cur table: 1348
epoch: 1000
next table: 1329
cur table: 1329
epoch: 1000
next table: 1338
cur table: 1339
epoch: 1000
next table: 1325
cur table: 1329
epoch: 1000
next table: 1355
cur table: 1338
epoch: 1000
next table: 1366
cur table: 1325
epoch: 1000
next table: 1364
cur table: 1355
epoch: 1000
next table: 1334
cur table: 1366
epoch: 1000
next table: 1356
cur table: 1364
epoch: 1000
next table: 1345
cur table: 1334
epoch: 1000
next table: 1354
cur table: 1356
epoch: 1000
next table: 1338
cur table: 1345
epoch: 1000
next table: 1385
cur table: 1354
epoch: 1000
next table: 1345
cur table: 1338
epoch: 1000
next table: 1338
cur table: 1385
epoch: 1000
next table: 1346
cur table: 1345
epoch: 1000
next table: 1373
cur table: 1338
epoch: 1000
next table: 1353
cur table: 1346
epoch: 1000
next table: 1347
cur table: 1373
epoch: 1000
next table: 1350
cur table: 1353
epoch: 1000
next table: 1364
cur table: 1347
epoch: 1000
next table: 1336
cur table: 1350
epoch: 1000
next table: 1356
cur table: 1364
epoch: 1000
next table: 1345
cur table: 1336
epoch: 1000
next table: 1361
cur table: 1356
epoch: 1000
next table: 1344
cur table: 1345
epoch: 1000
next table: 1361
cur table: 1361
epoch: 1000
next table: 1343
cur table: 1344
epoch: 1000
next table: 1369
cur table: 1361
epoch: 1000
next table: 1360
cur table: 1343
epoch: 1000
next table: 1347
cur table: 1369
epoch: 1000
next table: 1333
cur table: 1360
epoch: 1000
next table: 1357
cur table: 1347
epoch: 1000
next table: 1345
cur table: 1333
epoch: 1000
next table: 1373
cur table: 1357
epoch: 1000
next table: 1342
cur table: 1345
epoch: 1000
next table: 1348
cur table: 1373
epoch: 1000
next table: 1350
cur table: 1342
epoch: 1000
next table: 1374
cur table: 1348
epoch: 1000
next table: 1345
cur table: 1350
epoch: 1000
next table: 1355
cur table: 1374
epoch: 1000
next table: 1346
cur table: 1345
epoch: 1000
next table: 1361
cur table: 1355
epoch: 1000
next table: 1346
cur table: 1346
epoch: 1000
next table: 1354
cur table: 1361
epoch: 1000
next table: 1335
cur table: 1346
epoch: 1000
next table: 1376
cur table: 1354
epoch: 1000
next table: 1346
cur table: 1335
epoch: 1000
next table: 1355
cur table: 1376
epoch: 1000
next table: 1345
cur table: 1346
epoch: 1000
next table: 1364
cur table: 1355
epoch: 1000
next table: 1341
cur table: 1345
epoch: 1000
next table: 1361
cur table: 1364
epoch: 1000
next table: 1361
cur table: 1341
epoch: 1000
next table: 1364
cur table: 1361
epoch: 1000
next table: 1329
cur table: 1361
epoch: 1000
next table: 1372
cur table: 1364
epoch: 1000
next table: 1344
cur table: 1329
epoch: 1000
next table: 1341
cur table: 1372
epoch: 1000
next table: 1342
cur table: 1344
epoch: 1000
next table: 1364
cur table: 1341
epoch: 1000
next table: 1338
cur table: 1342
epoch: 1000
next table: 1357
cur table: 1364
epoch: 1000
next table: 1339
cur table: 1338
epoch: 1000
next table: 1365
cur table: 1357
epoch: 1000
next table: 1346
cur table: 1339
epoch: 1000
next table: 1360
cur table: 1365
epoch: 1000
next table: 1345
cur table: 1346
epoch: 1000
next table: 1363
cur table: 1360
epoch: 1000
next table: 1338
cur table: 1345
epoch: 1000
next table: 1366
cur table: 1363
epoch: 1000
next table: 1347
cur table: 1338
epoch: 1000
next table: 1360
cur table: 1366
epoch: 1000
next table: 1341
cur table: 1347
epoch: 1000
next table: 1377
cur table: 1360
epoch: 1000
next table: 1344
cur table: 1341
epoch: 1000
next table: 1339
cur table: 1377
epoch: 1000
next table: 1341
cur table: 1344
epoch: 1000
next table: 1379
cur table: 1339
epoch: 1000
next table: 1332
cur table: 1341
epoch: 1000
next table: 1348
cur table: 1379
epoch: 1000
next table: 1339
cur table: 1332
epoch: 1000
next table: 1369
cur table: 1348
epoch: 1000
next table: 1341
cur table: 1339
epoch: 1000
next table: 1365
cur table: 1369
epoch: 1000
next table: 1349
cur table: 1341
epoch: 1000
next table: 1359
cur table: 1365
epoch: 1000
next table: 1334
cur table: 1349
epoch: 1000
next table: 1356
cur table: 1359
epoch: 1000
next table: 1348
cur table: 1334
epoch: 1000
next table: 1367
cur table: 1356
epoch: 1000
next table: 1333
cur table: 1348
epoch: 1000
next table: 1359
cur table: 1367
epoch: 1000
next table: 1344
cur table: 1333
epoch: 1000
next table: 1364
cur table: 1359
epoch: 1000
next table: 1340
cur table: 1344
epoch: 1000
next table: 1381
cur table: 1364
epoch: 1000
next table: 1342
cur table: 1340
epoch: 1000
next table: 1351
cur table: 1381
epoch: 1000
next table: 1335
cur table: 1342
epoch: 1000
next table: 1363
cur table: 1351
epoch: 1000
next table: 1341
cur table: 1335
epoch: 1000
next table: 1348
cur table: 1363
epoch: 1000
next table: 1353
cur table: 1341
epoch: 1000
next table: 1380
cur table: 1348
epoch: 1000
next table: 1332
cur table: 1353
epoch: 1000
next table: 1357
cur table: 1380
epoch: 1000
next table: 1349
cur table: 1332
epoch: 1000
next table: 1359
cur table: 1357
epoch: 1000
next table: 1333
cur table: 1349
epoch: 1000
next table: 1367
cur table: 1359
epoch: 1000
next table: 1348
cur table: 1333
epoch: 1000
next table: 1424
cur table: 1367
epoch: 1000
next table: 1488
cur table: 1348
epoch: 1000
next table: 1526
cur table: 1424
epoch: 1000
next table: 1508
cur table: 1488
epoch: 1000
next table: 1529
cur table: 1526
epoch: 1000
next table: 1516
cur table: 1508
epoch: 1000
next table: 1519
cur table: 1529
epoch: 1000
next table: 1512
cur table: 1516
epoch: 1000
next table: 1524
cur table: 1519
epoch: 1000
next table: 1511
cur table: 1512
epoch: 1000
next table: 1528
cur table: 1524
epoch: 1000
next table: 1510
cur table: 1511
epoch: 1000
next table: 1526
cur table: 1528
epoch: 1000
next table: 1509
cur table: 1510
epoch: 1000
next table: 1529
cur table: 1526
epoch: 1000
next table: 1512
cur table: 1509
epoch: 1000
next table: 1514
cur table: 1529
epoch: 1000
next table: 1509
cur table: 1512
epoch: 1000
next table: 1523
cur table: 1514
epoch: 1000
next table: 1510
cur table: 1509
epoch: 1000
next table: 1527
cur table: 1523
epoch: 1000
next table: 1513
cur table: 1510
epoch: 1000
next table: 1529
cur table: 1527
epoch: 1000
next table: 1514
cur table: 1513
epoch: 1000
next table: 1531
cur table: 1529
epoch: 1000
next table: 1514
cur table: 1514
epoch: 1000
next table: 1518
cur table: 1531
epoch: 1000
next table: 1508
cur table: 1514
epoch: 1000
next table: 1522
cur table: 1518
epoch: 1000
next table: 1506
cur table: 1508
epoch: 1000
next table: 1524
cur table: 1522
epoch: 1000
next table: 1511
cur table: 1506
epoch: 1000
next table: 1528
cur table: 1524
epoch: 1000
next table: 1516
cur table: 1511
epoch: 1000
next table: 1529
cur table: 1528
epoch: 1000
next table: 1528
cur table: 1516
epoch: 1000
next table: 1450
cur table: 1529
epoch: 1000
next table: 1304
cur table: 1528
epoch: 1000
next table: 1309
cur table: 1450
epoch: 1000
next table: 1291
cur table: 1304
epoch: 1000
next table: 1310
cur table: 1309
epoch: 1000
next table: 1309
cur table: 1291
epoch: 1000
next table: 1327
cur table: 1310
epoch: 1000
next table: 1283
cur table: 1309
epoch: 1000
next table: 1309
cur table: 1327
epoch: 1000
next table: 1298
cur table: 1283
epoch: 1000
next table: 1298
cur table: 1309
epoch: 1000
next table: 1316
cur table: 1298
epoch: 1000
next table: 1307
cur table: 1298
epoch: 1000
next table: 1293
cur table: 1316
epoch: 1000
next table: 1317
cur table: 1307
epoch: 1000
next table: 1284
cur table: 1293
epoch: 1000
next table: 1314
cur table: 1317
epoch: 1000
next table: 1297
cur table: 1284
epoch: 1000
next table: 1305
cur table: 1314
epoch: 1000
next table: 1301
cur table: 1297
epoch: 1000
next table: 1304
cur table: 1305
epoch: 1000
next table: 1281
cur table: 1301
epoch: 1000
next table: 1301
cur table: 1304
epoch: 1000
next table: 1289
cur table: 1281
epoch: 1000
next table: 1326
cur table: 1301
epoch: 1000
next table: 1300
cur table: 1289
epoch: 1000
next table: 1307
cur table: 1326
epoch: 1000
next table: 1312
cur table: 1300
epoch: 1000
next table: 1305
cur table: 1307
epoch: 1000
next table: 1283
cur table: 1312
epoch: 1000
next table: 1302
cur table: 1305
epoch: 1000
next table: 1295
cur table: 1283
epoch: 1000
next table: 1316
cur table: 1302
epoch: 1000
next table: 1327
cur table: 1295
epoch: 1000
next table: 1324
cur table: 1316
epoch: 1000
next table: 1290
cur table: 1327
epoch: 1000
next table: 1302
cur table: 1324
epoch: 1000
next table: 1281
cur table: 1290
epoch: 1000
next table: 1310
cur table: 1302
epoch: 1000
next table: 1305
cur table: 1310
epoch: 1000
next table: 1297
cur table: 1281
epoch: 1000
next table: 1325
cur table: 1305
epoch: 1000
next table: 1314
cur table: 1297
epoch: 1000
next table: 1302
cur table: 1325
epoch: 1000
next table: 1286
cur table: 1314
epoch: 1000
next table: 1310
cur table: 1302
epoch: 1000
next table: 1293
cur table: 1286
epoch: 1000
next table: 1306
cur table: 1310
epoch: 1000
next table: 1291
cur table: 1293
epoch: 1000
next table: 1307
cur table: 1306
epoch: 1000
next table: 1300
cur table: 1291
epoch: 1000
next table: 1325
cur table: 1307
epoch: 1000
next table: 1284
cur table: 1300
epoch: 1000
next table: 1305
cur table: 1325
epoch: 1000
next table: 1300
cur table: 1284
epoch: 1000
next table: 1312
cur table: 1305
epoch: 1000
next table: 1288
cur table: 1300
epoch: 1000
next table: 1309
cur table: 1312
epoch: 1000
next table: 1301
cur table: 1288
epoch: 1000
next table: 1317
cur table: 1309
epoch: 1000
next table: 1294
cur table: 1301
epoch: 1000
next table: 1316
cur table: 1317
epoch: 1000
next table: 1293
cur table: 1294
epoch: 1000
next table: 1308
cur table: 1316
epoch: 1000
next table: 1308
cur table: 1293
epoch: 1000
next table: 1309
cur table: 1308
epoch: 1000
next table: 1304
cur table: 1308
epoch: 1000
next table: 1312
cur table: 1309
epoch: 1000
next table: 1308
cur table: 1304
epoch: 1000
next table: 1322
cur table: 1312
epoch: 1000
next table: 1315
cur table: 1308
epoch: 1000
next table: 1298
cur table: 1322
epoch: 1000
next table: 1289
cur table: 1315
epoch: 1000
next table: 1313
cur table: 1298
epoch: 1000
next table: 1298
cur table: 1289
epoch: 1000
next table: 1311
cur table: 1313
epoch: 1000
next table: 1308
cur table: 1298
epoch: 1000
next table: 1318
cur table: 1311
epoch: 1000
next table: 1290
cur table: 1308
epoch: 1000
next table: 1309
cur table: 1318
epoch: 1000
next table: 1306
cur table: 1290
epoch: 1000
next table: 1314
cur table: 1309
epoch: 1000
next table: 1307
cur table: 1306
epoch: 1000
next table: 1308
cur table: 1314
epoch: 1000
next table: 1292
cur table: 1307
epoch: 1000
next table: 1324
cur table: 1308
epoch: 1000
next table: 1285
cur table: 1292
epoch: 1000
next table: 1302
cur table: 1324
epoch: 1000
next table: 1297
cur table: 1285
epoch: 1000
next table: 1312
cur table: 1302
epoch: 1000
next table: 1312
cur table: 1297
epoch: 1000
next table: 1297
cur table: 1312
epoch: 1000
next table: 1286
cur table: 1312
epoch: 1000
next table: 1311
cur table: 1297
epoch: 1000
next table: 1293
cur table: 1286
epoch: 1000
next table: 1326
cur table: 1311
epoch: 1000
next table: 1289
cur table: 1293
epoch: 1000
next table: 1306
cur table: 1326
epoch: 1000
next table: 1294
cur table: 1289
epoch: 1000
next table: 1297
cur table: 1306
epoch: 1000
next table: 1284
cur table: 1294
epoch: 1000
next table: 1309
cur table: 1297
epoch: 1000
next table: 1286
cur table: 1284
epoch: 1000
next table: 1320
cur table: 1309
epoch: 1000
next table: 1292
cur table: 1286
epoch: 1000
next table: 1314
cur table: 1320
epoch: 1000
next table: 1308
cur table: 1292
epoch: 1000
next table: 1310
cur table: 1314
epoch: 1000
next table: 1280
cur table: 1308
epoch: 1000
next table: 1309
cur table: 1310
epoch: 1000
next table: 1287
cur table: 1280
epoch: 1000
next table: 1311
cur table: 1309
epoch: 1000
next table: 1281
cur table: 1287
epoch: 1000
next table: 1326
cur table: 1311
epoch: 1000
next table: 1308
cur table: 1281
epoch: 1000
next table: 1309
cur table: 1326
epoch: 1000
next table: 1280
cur table: 1308
epoch: 1000
next table: 1302
cur table: 1309
epoch: 1000
next table: 1284
cur table: 1280
epoch: 1000
next table: 1305
cur table: 1302
epoch: 1000
next table: 1297
cur table: 1284
epoch: 1000
next table: 1321
cur table: 1305
epoch: 1000
next table: 1352
cur table: 1297
epoch: 1000
next table: 1373
cur table: 1321
epoch: 1000
next table: 1512
cur table: 1373
epoch: 1000
next table: 1709
cur table: 1352
epoch: 1000
next table: 1510
cur table: 1512
epoch: 1000
next table: 1512
cur table: 1510
epoch: 1000
next table: 1913
cur table: 1709
epoch: 1000
next table: 1506
cur table: 1512
epoch: 1000
next table: 1504
cur table: 1506
epoch: 1000
next table: 1982
cur table: 1913
epoch: 1000
next table: 1506
cur table: 1504
epoch: 1000
next table: 1507
cur table: 1506
epoch: 1000
next table: 1981
cur table: 1982
epoch: 1000
next table: 1506
cur table: 1507
epoch: 1000
next table: 1594
cur table: 1981
epoch: 1000
next table: 1505
cur table: 1506
epoch: 1000
next table: 1514
cur table: 1594
epoch: 1000
next table: 1510
cur table: 1505
epoch: 1000
next table: 1518
cur table: 1514
epoch: 1000
next table: 1510
cur table: 1510
epoch: 1000
next table: 1514
cur table: 1518
epoch: 1000
next table: 1506
cur table: 1510
epoch: 1000
next table: 1521
cur table: 1514
epoch: 1000
next table: 1505
cur table: 1506
epoch: 1000
next table: 1513
cur table: 1521
epoch: 1000
next table: 1509
cur table: 1505
epoch: 1000
next table: 1511
cur table: 1513
epoch: 1000
next table: 1507
cur table: 1509
epoch: 1000
next table: 1519
cur table: 1511
epoch: 1000
next table: 1509
cur table: 1507
epoch: 1000
next table: 1538
cur table: 1519
epoch: 1000
next table: 1514
cur table: 1509
epoch: 1000
next table: 1602
cur table: 1538
epoch: 1000
next table: 1505
cur table: 1514
epoch: 1000
next table: 1466
cur table: 1602
epoch: 1000
next table: 1432
cur table: 1505
epoch: 1000
next table: 1454
cur table: 1432
epoch: 1000
next table: 1440
cur table: 1466
epoch: 1000
next table: 1487
cur table: 1454
epoch: 1000
next table: 1476
cur table: 1440
epoch: 1000
next table: 1415
cur table: 1487
epoch: 1000
next table: 1477
cur table: 1476
epoch: 1000
next table: 1446
cur table: 1415
epoch: 1000
next table: 1498
cur table: 1477
epoch: 1000
next table: 1478
cur table: 1446
epoch: 1000
next table: 1489
cur table: 1498
epoch: 1000
next table: 1429
cur table: 1478
epoch: 1000
next table: 1516
cur table: 1489
epoch: 1000
next table: 1481
cur table: 1429
epoch: 1000
next table: 1461
cur table: 1481
epoch: 1000
next table: 1494
cur table: 1516
epoch: 1000
next table: 1435
cur table: 1461
epoch: 1000
next table: 1517
cur table: 1494
epoch: 1000
next table: 1458
cur table: 1435
epoch: 1000
next table: 1515
cur table: 1517
epoch: 1000
next table: 1451
cur table: 1458
epoch: 1000
next table: 1471
cur table: 1515
epoch: 1000
next table: 1429
cur table: 1451
epoch: 1000
next table: 1491
cur table: 1429
epoch: 1000
next table: 1493
cur table: 1471
epoch: 1000
next table: 1468
cur table: 1491
epoch: 1000
next table: 1520
cur table: 1493
Heartbeat CPU 0 instructions: 40000002 cycles: 12167863 heartbeat IPC: 3.46601 cumulative IPC: 3.28735 (Simulation time: 0 hr 31 min 16 sec) 
epoch: 1000
next table: 1435
cur table: 1468
epoch: 1000
next table: 1483
cur table: 1520
epoch: 1000
next table: 1506
cur table: 1435
epoch: 1000
next table: 1513
cur table: 1483
epoch: 1000
next table: 1417
cur table: 1506
epoch: 1000
next table: 1465
cur table: 1417
epoch: 1000
next table: 1517
cur table: 1513
epoch: 1000
next table: 1481
cur table: 1465
epoch: 1000
next table: 1495
cur table: 1517
epoch: 1000
next table: 1430
cur table: 1481
epoch: 1000
next table: 1497
cur table: 1495
epoch: 1000
next table: 1476
cur table: 1430
epoch: 1000
next table: 1481
cur table: 1497
epoch: 1000
next table: 1466
cur table: 1476
epoch: 1000
next table: 1497
cur table: 1481
epoch: 1000
next table: 1425
cur table: 1466
epoch: 1000
next table: 1487
cur table: 1425
epoch: 1000
next table: 1497
cur table: 1497
epoch: 1000
next table: 1443
cur table: 1487
epoch: 1000
next table: 1387
cur table: 1497
epoch: 1000
next table: 1446
cur table: 1443
epoch: 1000
next table: 1416
cur table: 1387
epoch: 1000
next table: 1474
cur table: 1446
epoch: 1000
next table: 1417
cur table: 1416
epoch: 1000
next table: 1448
cur table: 1474
epoch: 1000
next table: 1387
cur table: 1417
epoch: 1000
next table: 1448
cur table: 1448
epoch: 1000
next table: 1433
cur table: 1387
epoch: 1000
next table: 1489
cur table: 1448
epoch: 1000
next table: 1406
cur table: 1433
epoch: 1000
next table: 1428
cur table: 1489
epoch: 1000
next table: 1389
cur table: 1406
epoch: 1000
next table: 1458
cur table: 1428
epoch: 1000
next table: 1438
cur table: 1389
epoch: 1000
next table: 1463
cur table: 1458
epoch: 1000
next table: 1386
cur table: 1438
epoch: 1000
next table: 1439
cur table: 1463
epoch: 1000
next table: 1411
cur table: 1386
epoch: 1000
next table: 1468
cur table: 1439
epoch: 1000
next table: 1436
cur table: 1411
epoch: 1000
next table: 1481
cur table: 1468
epoch: 1000
next table: 1392
cur table: 1436
epoch: 1000
next table: 1432
cur table: 1481
epoch: 1000
next table: 1418
cur table: 1392
epoch: 1000
next table: 1480
cur table: 1432
epoch: 1000
next table: 1413
cur table: 1418
epoch: 1000
next table: 1449
cur table: 1480
epoch: 1000
next table: 1390
cur table: 1413
epoch: 1000
next table: 1428
cur table: 1449
epoch: 1000
next table: 1421
cur table: 1390
epoch: 1000
next table: 1485
cur table: 1428
epoch: 1000
next table: 1412
cur table: 1421
epoch: 1000
next table: 1453
cur table: 1485
epoch: 1000
next table: 1398
cur table: 1412
epoch: 1000
next table: 1518
cur table: 1453
epoch: 1000
next table: 1494
cur table: 1398
epoch: 1000
next table: 1355
cur table: 1518
epoch: 1000
next table: 1337
cur table: 1494
epoch: 1000
next table: 1355
cur table: 1355
epoch: 1000
next table: 1333
cur table: 1337
epoch: 1000
next table: 1353
cur table: 1355
epoch: 1000
next table: 1336
cur table: 1333
epoch: 1000
next table: 1356
cur table: 1353
epoch: 1000
next table: 1336
cur table: 1336
epoch: 1000
next table: 1359
cur table: 1356
epoch: 1000
next table: 1339
cur table: 1336
epoch: 1000
next table: 1356
cur table: 1359
epoch: 1000
next table: 1337
cur table: 1339
epoch: 1000
next table: 1374
cur table: 1356
epoch: 1000
next table: 1337
cur table: 1337
epoch: 1000
next table: 1418
cur table: 1374
epoch: 1000
next table: 1321
cur table: 1337
epoch: 1000
next table: 1459
cur table: 1418
epoch: 1000
next table: 1378
cur table: 1321
epoch: 1000
next table: 1509
cur table: 1459
epoch: 1000
next table: 1334
cur table: 1378
epoch: 1000
next table: 1445
cur table: 1509
epoch: 1000
next table: 1582
cur table: 1334
epoch: 1000
next table: 2175
cur table: 1445
epoch: 1000
next table: 1372
cur table: 1582
epoch: 1000
next table: 1371
cur table: 2175
epoch: 1000
next table: 1336
cur table: 1372
epoch: 1000
next table: 1356
cur table: 1371
epoch: 1000
next table: 1338
cur table: 1336
epoch: 1000
next table: 1357
cur table: 1356
epoch: 1000
next table: 1335
cur table: 1338
epoch: 1000
next table: 1354
cur table: 1357
epoch: 1000
next table: 1338
cur table: 1335
epoch: 1000
next table: 1357
cur table: 1354
epoch: 1000
next table: 1339
cur table: 1338
epoch: 1000
next table: 1359
cur table: 1357
epoch: 1000
next table: 1334
cur table: 1339
epoch: 1000
next table: 1369
cur table: 1359
epoch: 1000
next table: 1435
cur table: 1369
epoch: 1000
next table: 1468
cur table: 1435
epoch: 1000
next table: 1798
cur table: 1334
epoch: 1000
next table: 1469
cur table: 1468
epoch: 1000
next table: 1440
cur table: 1469
epoch: 1000
next table: 1458
cur table: 1440
epoch: 1000
next table: 1967
cur table: 1798
epoch: 1000
next table: 2088
cur table: 1458
epoch: 1000
next table: 1450
cur table: 1967
epoch: 1000
next table: 1355
cur table: 2088
epoch: 1000
next table: 1335
cur table: 1450
epoch: 1000
next table: 1351
cur table: 1355
epoch: 1000
next table: 1337
cur table: 1335
epoch: 1000
next table: 1353
cur table: 1351
epoch: 1000
next table: 1335
cur table: 1337
epoch: 1000
next table: 1353
cur table: 1353
epoch: 1000
next table: 1335
cur table: 1335
epoch: 1000
next table: 1349
cur table: 1353
epoch: 1000
next table: 1331
cur table: 1335
epoch: 1000
next table: 1351
cur table: 1349
epoch: 1000
next table: 1332
cur table: 1331
epoch: 1000
next table: 1382
cur table: 1351
epoch: 1000
next table: 1429
cur table: 1382
epoch: 1000
next table: 1771
cur table: 1332
epoch: 1000
next table: 1493
cur table: 1429
epoch: 1000
next table: 1557
cur table: 1493
epoch: 1000
next table: 1481
cur table: 1557
epoch: 1000
next table: 1871
cur table: 1771
epoch: 1000
next table: 2178
cur table: 1481
epoch: 1000
next table: 1621
cur table: 1871
epoch: 1000
next table: 1368
cur table: 2178
epoch: 1000
next table: 1337
cur table: 1621
epoch: 1000
next table: 1356
cur table: 1368
epoch: 1000
next table: 1336
cur table: 1337
epoch: 1000
next table: 1356
cur table: 1356
epoch: 1000
next table: 1338
cur table: 1336
epoch: 1000
next table: 1357
cur table: 1356
epoch: 1000
next table: 1335
cur table: 1338
epoch: 1000
next table: 1355
cur table: 1357
epoch: 1000
next table: 1337
cur table: 1335
epoch: 1000
next table: 1356
cur table: 1355
epoch: 1000
next table: 1337
cur table: 1337
epoch: 1000
next table: 1369
cur table: 1356
epoch: 1000
next table: 1442
cur table: 1369
epoch: 1000
next table: 1428
cur table: 1442
epoch: 1000
next table: 1808
cur table: 1337
epoch: 1000
next table: 1456
cur table: 1428
epoch: 1000
next table: 1448
cur table: 1456
epoch: 1000
next table: 1895
cur table: 1808
epoch: 1000
next table: 1674
cur table: 1448
epoch: 1000
next table: 1909
cur table: 1674
epoch: 1000
next table: 1510
cur table: 1895
epoch: 1000
next table: 1329
cur table: 1909
epoch: 1000
next table: 1328
cur table: 1510
epoch: 1000
next table: 1331
cur table: 1329
epoch: 1000
next table: 1332
cur table: 1328
epoch: 1000
next table: 1352
cur table: 1331
epoch: 1000
next table: 1336
cur table: 1332
epoch: 1000
next table: 1353
cur table: 1352
epoch: 1000
next table: 1335
cur table: 1336
epoch: 1000
next table: 1345
cur table: 1353
epoch: 1000
next table: 1335
cur table: 1335
epoch: 1000
next table: 1331
cur table: 1345
epoch: 1000
next table: 1327
cur table: 1335
epoch: 1000
next table: 1468
cur table: 1331
epoch: 1000
next table: 1489
cur table: 1468
epoch: 1000
next table: 1752
cur table: 1327
epoch: 1000
next table: 1492
cur table: 1489
epoch: 1000
next table: 1455
cur table: 1492
epoch: 1000
next table: 1825
cur table: 1752
epoch: 1000
next table: 2114
cur table: 1455
epoch: 1000
next table: 1445
cur table: 1825
epoch: 1000
next table: 1530
cur table: 2114
epoch: 1000
next table: 1338
cur table: 1445
epoch: 1000
next table: 1357
cur table: 1530
epoch: 1000
next table: 1334
cur table: 1338
epoch: 1000
next table: 1355
cur table: 1357
epoch: 1000
next table: 1338
cur table: 1334
epoch: 1000
next table: 1359
cur table: 1355
epoch: 1000
next table: 1337
cur table: 1338
epoch: 1000
next table: 1356
cur table: 1359
epoch: 1000
next table: 1336
cur table: 1337
epoch: 1000
next table: 1354
cur table: 1356
epoch: 1000
next table: 1340
cur table: 1336
epoch: 1000
next table: 1366
cur table: 1354
epoch: 1000
next table: 1421
cur table: 1366
epoch: 1000
next table: 1436
cur table: 1421
epoch: 1000
next table: 1862
cur table: 1340
epoch: 1000
next table: 1453
cur table: 1436
epoch: 1000
next table: 1490
cur table: 1453
epoch: 1000
next table: 1570
cur table: 1490
epoch: 1000
next table: 2000
cur table: 1862
epoch: 1000
next table: 1978
cur table: 1570
epoch: 1000
next table: 1373
cur table: 2000
epoch: 1000
next table: 1357
cur table: 1978
epoch: 1000
next table: 1338
cur table: 1373
epoch: 1000
next table: 1358
cur table: 1357
epoch: 1000
next table: 1336
cur table: 1338
epoch: 1000
next table: 1354
cur table: 1358
epoch: 1000
next table: 1337
cur table: 1336
epoch: 1000
next table: 1359
cur table: 1354
epoch: 1000
next table: 1337
cur table: 1337
epoch: 1000
next table: 1352
cur table: 1359
epoch: 1000
next table: 1334
cur table: 1337
epoch: 1000
next table: 1356
cur table: 1352
epoch: 1000
next table: 1347
cur table: 1334
epoch: 1000
next table: 1430
cur table: 1356
epoch: 1000
next table: 1442
cur table: 1430
epoch: 1000
next table: 1495
cur table: 1442
epoch: 1000
next table: 1756
cur table: 1347
epoch: 1000
next table: 1494
cur table: 1495
epoch: 1000
next table: 1588
cur table: 1494
epoch: 1000
next table: 1925
cur table: 1756
epoch: 1000
next table: 2029
cur table: 1588
epoch: 1000
next table: 1357
cur table: 1925
epoch: 1000
next table: 1412
cur table: 2029
epoch: 1000
next table: 1304
cur table: 1357
epoch: 1000
next table: 1173
cur table: 1412
epoch: 1000
next table: 1272
cur table: 1304
epoch: 1000
next table: 1287
cur table: 1173
epoch: 1000
next table: 1028
cur table: 1272
epoch: 1000
next table: 1298
cur table: 1287
epoch: 1000
next table: 1020
cur table: 1028
epoch: 1000
next table: 1119
cur table: 1298
epoch: 1000
next table: 1288
cur table: 1119
epoch: 1000
next table: 1038
cur table: 1020
epoch: 1000
next table: 1275
cur table: 1288
epoch: 1000
next table: 1033
cur table: 1038
epoch: 1000
next table: 1324
cur table: 1275
epoch: 1000
next table: 1045
cur table: 1033
epoch: 1000
next table: 1126
cur table: 1324
epoch: 1000
next table: 1048
cur table: 1045
epoch: 1000
next table: 1259
cur table: 1126
epoch: 1000
next table: 1027
cur table: 1048
epoch: 1000
next table: 1313
cur table: 1259
epoch: 1000
next table: 1027
cur table: 1027
epoch: 1000
next table: 1173
cur table: 1313
epoch: 1000
next table: 1251
cur table: 1173
epoch: 1000
next table: 1051
cur table: 1027
epoch: 1000
next table: 1274
cur table: 1251
epoch: 1000
next table: 1024
cur table: 1051
epoch: 1000
next table: 1320
cur table: 1274
epoch: 1000
next table: 1044
cur table: 1024
epoch: 1000
next table: 1151
cur table: 1320
epoch: 1000
next table: 1044
cur table: 1044
epoch: 1000
next table: 1251
cur table: 1151
epoch: 1000
next table: 1028
cur table: 1044
epoch: 1000
next table: 1302
cur table: 1251
epoch: 1000
next table: 1024
cur table: 1028
epoch: 1000
next table: 1298
cur table: 1302
epoch: 1000
next table: 1017
cur table: 1024
epoch: 1000
next table: 1120
cur table: 1298
epoch: 1000
next table: 1059
cur table: 1017
epoch: 1000
next table: 1287
cur table: 1120
epoch: 1000
next table: 1038
cur table: 1059
epoch: 1000
next table: 1325
cur table: 1287
epoch: 1000
next table: 1015
cur table: 1038
epoch: 1000
next table: 1112
cur table: 1325
epoch: 1000
next table: 1037
cur table: 1015
epoch: 1000
next table: 1275
cur table: 1112
epoch: 1000
next table: 1030
cur table: 1037
epoch: 1000
next table: 1289
cur table: 1275
epoch: 1000
next table: 1337
cur table: 1289
epoch: 1000
next table: 1025
cur table: 1030
epoch: 1000
next table: 1110
cur table: 1337
epoch: 1000
next table: 1013
cur table: 1025
epoch: 1000
next table: 1284
cur table: 1110
epoch: 1000
next table: 1021
cur table: 1013
epoch: 1000
next table: 1318
cur table: 1284
epoch: 1000
next table: 1019
cur table: 1021
epoch: 1000
next table: 1321
cur table: 1318
epoch: 1000
next table: 1024
cur table: 1019
epoch: 1000
next table: 1103
cur table: 1321
epoch: 1000
next table: 1026
cur table: 1024
epoch: 1000
next table: 1281
cur table: 1103
epoch: 1000
next table: 1021
cur table: 1026
epoch: 1000
next table: 1283
cur table: 1281
epoch: 1000
next table: 1047
cur table: 1021
epoch: 1000
next table: 1158
cur table: 1283
epoch: 1000
next table: 1031
cur table: 1047
epoch: 1000
next table: 1268
cur table: 1158
epoch: 1000
next table: 1021
cur table: 1031
epoch: 1000
next table: 1296
cur table: 1268
epoch: 1000
next table: 1025
cur table: 1021
epoch: 1000
next table: 1289
cur table: 1296
epoch: 1000
next table: 1032
cur table: 1025
epoch: 1000
next table: 1144
cur table: 1289
epoch: 1000
next table: 1023
cur table: 1032
epoch: 1000
next table: 1280
cur table: 1144
epoch: 1000
next table: 1020
cur table: 1023
epoch: 1000
next table: 1319
cur table: 1280
epoch: 1000
next table: 1026
cur table: 1020
epoch: 1000
next table: 1303
cur table: 1319
epoch: 1000
next table: 1026
cur table: 1026
epoch: 1000
next table: 1098
cur table: 1303
epoch: 1000
next table: 1025
cur table: 1026
epoch: 1000
next table: 1284
cur table: 1098
epoch: 1000
next table: 1020
cur table: 1025
epoch: 1000
next table: 1317
cur table: 1284
epoch: 1000
next table: 1034
cur table: 1020
epoch: 1000
next table: 1152
cur table: 1317
epoch: 1000
next table: 1023
cur table: 1034
epoch: 1000
next table: 1249
cur table: 1152
epoch: 1000
next table: 1028
cur table: 1023
epoch: 1000
next table: 1286
cur table: 1249
epoch: 1000
next table: 1014
cur table: 1028
epoch: 1000
next table: 1332
cur table: 1286
epoch: 1000
next table: 1026
cur table: 1014
epoch: 1000
next table: 1131
cur table: 1332
epoch: 1000
next table: 1021
cur table: 1026
epoch: 1000
next table: 1263
cur table: 1131
epoch: 1000
next table: 1020
cur table: 1021
epoch: 1000
next table: 1296
cur table: 1263
epoch: 1000
next table: 1035
cur table: 1020
epoch: 1000
next table: 1326
cur table: 1296
epoch: 1000
next table: 1042
cur table: 1035
epoch: 1000
next table: 1127
cur table: 1326
epoch: 1000
next table: 1032
cur table: 1042
epoch: 1000
next table: 1272
cur table: 1127
epoch: 1000
next table: 1021
cur table: 1032
epoch: 1000
next table: 1296
cur table: 1272
epoch: 1000
next table: 1018
cur table: 1021
epoch: 1000
next table: 1120
cur table: 1296
epoch: 1000
next table: 1018
cur table: 1018
epoch: 1000
next table: 1277
cur table: 1120
epoch: 1000
next table: 1020
cur table: 1018
epoch: 1000
next table: 1296
cur table: 1277
epoch: 1000
next table: 1024
cur table: 1020
epoch: 1000
next table: 1308
cur table: 1296
epoch: 1000
next table: 1028
cur table: 1024
epoch: 1000
next table: 1118
cur table: 1308
epoch: 1000
next table: 1021
cur table: 1028
epoch: 1000
next table: 1287
cur table: 1118
epoch: 1000
next table: 1019
cur table: 1021
epoch: 1000
next table: 1283
cur table: 1287
epoch: 1000
next table: 1022
cur table: 1019
epoch: 1000
next table: 1349
cur table: 1283
epoch: 1000
next table: 1031
cur table: 1022
epoch: 1000
next table: 1116
cur table: 1349
epoch: 1000
next table: 1019
cur table: 1031
epoch: 1000
next table: 1284
cur table: 1116
epoch: 1000
next table: 1021
cur table: 1019
epoch: 1000
next table: 1297
cur table: 1284
epoch: 1000
next table: 1021
cur table: 1021
epoch: 1000
next table: 1328
cur table: 1297
epoch: 1000
next table: 1046
cur table: 1021
epoch: 1000
next table: 1109
cur table: 1328
epoch: 1000
next table: 1026
cur table: 1046
epoch: 1000
next table: 1278
cur table: 1109
epoch: 1000
next table: 1020
cur table: 1026
epoch: 1000
next table: 1293
cur table: 1278
epoch: 1000
next table: 1017
cur table: 1020
epoch: 1000
next table: 1159
cur table: 1293
epoch: 1000
next table: 1028
cur table: 1017
epoch: 1000
next table: 1294
cur table: 1159
epoch: 1000
next table: 1022
cur table: 1028
epoch: 1000
next table: 1285
cur table: 1294
epoch: 1000
next table: 1016
cur table: 1022
epoch: 1000
next table: 1297
cur table: 1285
epoch: 1000
next table: 1022
cur table: 1016
epoch: 1000
next table: 1158
cur table: 1297
epoch: 1000
next table: 1034
cur table: 1022
epoch: 1000
next table: 1279
cur table: 1158
epoch: 1000
next table: 1030
cur table: 1034
epoch: 1000
next table: 1304
cur table: 1279
epoch: 1000
next table: 1027
cur table: 1030
epoch: 1000
next table: 1315
cur table: 1304
epoch: 1000
next table: 1017
cur table: 1027
epoch: 1000
next table: 1123
cur table: 1315
epoch: 1000
next table: 1021
cur table: 1017
epoch: 1000
next table: 1294
cur table: 1123
epoch: 1000
next table: 1091
cur table: 1021
epoch: 1000
next table: 1387
cur table: 1294
epoch: 1000
next table: 1151
cur table: 1387
epoch: 1000
next table: 1086
cur table: 1091
epoch: 1000
next table: 1303
cur table: 1151
epoch: 1000
next table: 1076
cur table: 1086
epoch: 1000
next table: 1138
cur table: 1303
epoch: 1000
next table: 1044
cur table: 1076
epoch: 1000
next table: 1333
cur table: 1138
epoch: 1000
next table: 1033
cur table: 1044
epoch: 1000
next table: 1239
cur table: 1333
epoch: 1000
next table: 1050
cur table: 1033
epoch: 1000
next table: 1297
cur table: 1239
epoch: 1000
next table: 1321
cur table: 1297
epoch: 1000
next table: 1047
cur table: 1050
epoch: 1000
next table: 1398
cur table: 1321
epoch: 1000
next table: 1033
cur table: 1047
[...]
epoch: 1000
next table: 1022
cur table: 1020
epoch: 1000
next table: 1046
cur table: 1045
epoch: 1000
next table: 1055
cur table: 1022
epoch: 1000
next table: 1225
cur table: 1046
epoch: 1000
next table: 1610
cur table: 1055
epoch: 1000
next table: 1901
cur table: 1225
epoch: 1000
next table: 1999
cur table: 1610
epoch: 1000
next table: 2012
cur table: 1901
epoch: 1000
next table: 2000
cur table: 1999
epoch: 1000
next table: 2019
cur table: 2012
epoch: 1000
next table: 1999
cur table: 2000
epoch: 1000
next table: 2008
cur table: 2019
epoch: 1000
next table: 1999
cur table: 1999
epoch: 1000
next table: 2016
cur table: 2008
epoch: 1000
next table: 2002
cur table: 1999
epoch: 1000
next table: 2019
cur table: 2016
epoch: 1000
next table: 1999
cur table: 2002
epoch: 1000
next table: 2008
cur table: 2019
epoch: 1000
next table: 1999
cur table: 1999
epoch: 1000
next table: 2019
cur table: 2008
epoch: 1000
next table: 2001
cur table: 1999
epoch: 1000
next table: 2010
cur table: 2019
epoch: 1000
next table: 2008
cur table: 2001
epoch: 1000
next table: 2011
cur table: 2010
epoch: 1000
next table: 1997
cur table: 2008
epoch: 1000
next table: 2013
cur table: 2011
epoch: 1000
next table: 1994
cur table: 1997
epoch: 1000
next table: 2018
cur table: 2013
epoch: 1000
next table: 2004
cur table: 1994
epoch: 1000
next table: 2011
cur table: 2018
epoch: 1000
next table: 2002
cur table: 2004
epoch: 1000
next table: 2016
cur table: 2011
epoch: 1000
next table: 2007
cur table: 2002
epoch: 1000
next table: 2011
cur table: 2016
epoch: 1000
next table: 1996
cur table: 2007
epoch: 1000
next table: 2004
cur table: 2011
epoch: 1000
next table: 1993
cur table: 1996
epoch: 1000
next table: 2026
cur table: 2004
Heartbeat CPU 0 instructions: 100000000 cycles: 84566880 heartbeat IPC: 0.647192 cumulative IPC: 0.719452 (Simulation time: 1 hr 13 min 58 sec) 
Finished CPU 0 instructions: 50000002 cycles: 69497350 cumulative IPC: 0.719452 (Simulation time: 1 hr 13 min 58 sec) 

ChampSim completed all CPUs

Region of Interest Statistics

CPU 0 cumulative IPC: 0.719452 instructions: 50000002 cycles: 69497350
ITLB TOTAL     ACCESS:    7544563  HIT:    7544491  MISS:         72  HIT %:     99.999  MISS %: 0.00095433   MPKI: 0.00144
ITLB LOAD TRANSLATION ACCESS:    7544563  HIT:    7544491  MISS:         72  HIT %:     99.999  MISS %: 0.00095433   MPKI: 0.00144
ITLB PREFETCH  REQUESTED:          0  ISSUED:          0  USEFUL:          0  USELESS:          0
ITLB USEFUL LOAD PREFETCHES:          0 PREFETCH ISSUED TO LOWER LEVEL:          0  ACCURACY: -nan
ITLB TIMELY PREFETCHES:          0 LATE PREFETCHES: 0 DROPPED PREFETCHES: 0
ITLB PREFETCHES SAME FILL-ORIGIN LEVEL: 0 DIFFERENT FILL-ORIGIN LEVEL: 0
ITLB AVERAGE MISS LATENCY: 228.375 cycles
ITLB RQ	ACCESS:    9401796	FORWARD:          0	MERGED:    1857210	TO_CACHE:    7544586

Revised Interactions: positive negative neutral
ITLB_interactions 0 0 0 -nan -nan -nan
DTLB TOTAL     ACCESS:   14921579  HIT:   14771966  MISS:     149613  HIT %:    98.9973  MISS %:    1.00266   MPKI: 2.99226
DTLB LOAD TRANSLATION ACCESS:   14921579  HIT:   14771966  MISS:     149613  HIT %:    98.9973  MISS %:    1.00266   MPKI: 2.99226
DTLB PREFETCH  REQUESTED:          0  ISSUED:          0  USEFUL:          0  USELESS:          0
DTLB USEFUL LOAD PREFETCHES:          0 PREFETCH ISSUED TO LOWER LEVEL:          0  ACCURACY: -nan
DTLB TIMELY PREFETCHES:          0 LATE PREFETCHES: 0 DROPPED PREFETCHES: 0
DTLB PREFETCHES SAME FILL-ORIGIN LEVEL: 0 DIFFERENT FILL-ORIGIN LEVEL: 0
DTLB AVERAGE MISS LATENCY: 22.8024 cycles
DTLB RQ	ACCESS:   16876891	FORWARD:          0	MERGED:    1933261	TO_CACHE:   14943630

Revised Interactions: positive negative neutral
DTLB_interactions 0 0 0 -nan -nan -nan
STLB TOTAL     ACCESS:    2381237  HIT:    2365977  MISS:      15260  HIT %:    99.3592  MISS %:   0.640843   MPKI: 0.3052
STLB LOAD TRANSLATION ACCESS:     149685  HIT:     134426  MISS:      15259  HIT %:    89.8059  MISS %:    10.1941   MPKI: 0.30518
STLB TRANSLATION FROM L1D PREFETCHER ACCESS:    2231552  HIT:    2231551  MISS:          1  HIT %:        100  MISS %: 4.48119e-05   MPKI: 2e-05
STLB PREFETCH  REQUESTED:          0  ISSUED:          0  USEFUL:          1  USELESS:          0
STLB USEFUL LOAD PREFETCHES:          1 PREFETCH ISSUED TO LOWER LEVEL:          0  ACCURACY: inf
STLB TIMELY PREFETCHES:          1 LATE PREFETCHES: 0 DROPPED PREFETCHES: 0
STLB PREFETCHES SAME FILL-ORIGIN LEVEL: 0 DIFFERENT FILL-ORIGIN LEVEL: 0
STLB AVERAGE MISS LATENCY: 135.361 cycles
STLB RQ	ACCESS:    9074272	FORWARD:          0	MERGED:    6693035	TO_CACHE:    2381237

Revised Interactions: positive negative neutral
STLB_interactions 0 0 0 -nan -nan -nan
STLB Hit, L1D data hit: 0
STLB Hit, L2C data hit: 0
STLB Hit, LLC data hit: 0
STLB Hit, LLC data miss: 0
STLB STLB hints to L2: 0
L1D TOTAL     ACCESS:   25191702  HIT:   23167592  MISS:    2024110  HIT %:    91.9652  MISS %:    8.03483   MPKI: 40.4822
L1D LOAD      ACCESS:   13244278  HIT:   13030491  MISS:     213787  HIT %:    98.3858  MISS %:    1.61418   MPKI: 4.27574
L1D RFO       ACCESS:    3135075  HIT:    2919094  MISS:     215981  HIT %:    93.1108  MISS %:    6.88918   MPKI: 4.31962
L1D PREFETCH  ACCESS:    8812349  HIT:    7218007  MISS:    1594342  HIT %:    81.9079  MISS %:    18.0921   MPKI: 31.8868
L1D PREFETCH  REQUESTED:   21045468  ISSUED:   17856483  USEFUL:    1280522  USELESS:     313894
L1D USEFUL LOAD PREFETCHES:    1280522 PREFETCH ISSUED TO LOWER LEVEL:    2038374  ACCURACY: 62.8208
L1D TIMELY PREFETCHES:    1280522 LATE PREFETCHES: 95661 DROPPED PREFETCHES: 0
L1D PREFETCHES SAME FILL-ORIGIN LEVEL: 2038374 DIFFERENT FILL-ORIGIN LEVEL: 0
L1D AVERAGE MISS LATENCY: 299621 cycles
L1D RQ	ACCESS:   16712068	FORWARD:          0	MERGED:    3310441	TO_CACHE:   13392866
L1D WQ	ACCESS:    3489006	FORWARD:       8787	MERGED:       4981	TO_CACHE:    3484025
L1D PQ	ACCESS:    8931896	FORWARD:          0	MERGED:       7283	TO_CACHE:    8924587

Revised Interactions: positive negative neutral
L1D_interactions 0 0 0 -nan -nan -nan
L1D UNIQUE REGIONS ACCESSED: 0
L1D REGIONS CONFLICTS: 0
L1D Cross Page Prefetch Requests: 0
L1D Same Page Prefetch Requests: 14308898
L1D ROI Sum of L1D PQ occupancy: 192321872
L1D PREFETCHES PUSHED FROM L2C: 0
L1I TOTAL     ACCESS:    9400421  HIT:    9397643  MISS:       2778  HIT %:    99.9704  MISS %:  0.0295519   MPKI: 0.05556
L1I LOAD      ACCESS:    9400421  HIT:    9397643  MISS:       2778  HIT %:    99.9704  MISS %:  0.0295519   MPKI: 0.05556
L1I PREFETCH  REQUESTED:          0  ISSUED:          0  USEFUL:          0  USELESS:          0
L1I USEFUL LOAD PREFETCHES:          0 PREFETCH ISSUED TO LOWER LEVEL:          0  ACCURACY: -nan
L1I TIMELY PREFETCHES:          0 LATE PREFETCHES: 0 DROPPED PREFETCHES: 0
L1I PREFETCHES SAME FILL-ORIGIN LEVEL: 0 DIFFERENT FILL-ORIGIN LEVEL: 0
L1I AVERAGE MISS LATENCY: 231.704 cycles
L1I RQ	ACCESS:   12960501	FORWARD:          0	MERGED:    3558705	TO_CACHE:    9401796

Revised Interactions: positive negative neutral
L1I_interactions 0 0 0 -nan -nan -nan
BTB TOTAL     ACCESS:    2203354  HIT:    2197120  MISS:       6234  HIT %:    99.7171  MISS %:   0.282932   MPKI: 0.12468
BTB BRANCH_DIRECT_JUMP	ACCESS:       3916  HIT:       3875  MISS:         41
BTB BRANCH_INDIRECT	ACCESS:          0  HIT:          0  MISS:          0
BTB BRANCH_CONDITIONAL	ACCESS:    2181746  HIT:    2181274  MISS:        472
BTB BRANCH_DIRECT_CALL	ACCESS:       8847  HIT:       8610  MISS:        237
BTB BRANCH_INDIRECT_CALL	ACCESS:          0  HIT:          0  MISS:          0
BTB BRANCH_RETURN	ACCESS:       8845  HIT:       3361  MISS:       5484
BTB BRANCH_OTHER ACCESS:          0  HIT:          0  MISS:          0

L2C TOTAL     ACCESS:    6783034  HIT:    5177775  MISS:    1605259  HIT %:    76.3342  MISS %:    23.6658   MPKI: 32.1052
L2C LOAD      ACCESS:     216565  HIT:     113913  MISS:     102652  HIT %:    52.5999  MISS %:    47.4001   MPKI: 2.05304
L2C DATA LOAD MPKI: 1.99748
L2C INSTRUCTION LOAD MPKI: 0.05556
L2C RFO       ACCESS:     205876  HIT:      98596  MISS:     107280  HIT %:     47.891  MISS %:     52.109   MPKI: 2.1456
L2C PREFETCH  ACCESS:    5735519  HIT:    4349094  MISS:    1386425  HIT %:    75.8274  MISS %:    24.1726   MPKI: 27.7285
L2C DATA PREFETCH MPKI: 27.7285
L2C INSTRUCTION PREFETCH MPKI: 0
L2C WRITEBACK ACCESS:     609699  HIT:     603592  MISS:       6107  HIT %:    98.9984  MISS %:    1.00164   MPKI: 0.12214
L2C LOAD TRANSLATION ACCESS:      15374  HIT:      12579  MISS:       2795  HIT %:      81.82  MISS %:      18.18   MPKI: 0.0559
L2C TRANSLATION FROM L1D PREFETCHER ACCESS:          1  HIT:          1  MISS:          0  HIT %:        100  MISS %:          0   MPKI: 0
L2C PREFETCH  REQUESTED:    7098774  ISSUED:    6630124  USEFUL:      98401  USELESS:    1295214
L2C USEFUL LOAD PREFETCHES:      98401 PREFETCH ISSUED TO LOWER LEVEL:    1395812  ACCURACY: 7.04973
L2C TIMELY PREFETCHES:      98401 LATE PREFETCHES: 9387 DROPPED PREFETCHES: 0
L2C PREFETCHES SAME FILL-ORIGIN LEVEL: 1112470 DIFFERENT FILL-ORIGIN LEVEL: 0
L2C AVERAGE MISS LATENCY: 320.596 cycles
L2C RQ	ACCESS:     437832	FORWARD:          0	MERGED:          0	TO_CACHE:     437828
L2C WQ	ACCESS:     609699	FORWARD:         66	MERGED:          0	TO_CACHE:     609699
L2C PQ	ACCESS:    8234567	FORWARD:          0	MERGED:    1900432	TO_CACHE:    6334073

Revised Interactions: positive negative neutral
L2C_interactions 76330 1314385 122399 5.04456 86.8662 8.08921
L2C Instructions Evicting Data 2763
L2C Translations Evicting Data 2788
L2C Data Evicting Data 1588262
L2C Instructions Evicting Instructions 8
L2C Translations Evicting Instructions 5
L2C Data Evicting Instructions 2757
L2C Instructions Evicting Translations 7
L2C Translations Evicting Translations 2
L2C Data Evicting Translations 2740
L2C Dense regions hint from L2: 0
PSCL5 TOTAL     ACCESS:      15260  HIT:      15260  MISS:          0  HIT %:        100  MISS %:          0   MPKI: 0
PSCL5 LOAD TRANSLATION ACCESS:      15259  HIT:      15259  MISS:          0  HIT %:        100  MISS %:          0   MPKI: 0
PSCL5 TRANSLATION FROM L1D PREFETCHER ACCESS:          1  HIT:          1  MISS:          0  HIT %:        100  MISS %:          0   MPKI: 0
PSCL5 PREFETCH  REQUESTED:          0  ISSUED:          0  USEFUL:          0  USELESS:          0
PSCL5 USEFUL LOAD PREFETCHES:          0 PREFETCH ISSUED TO LOWER LEVEL:          0  ACCURACY: -nan
PSCL5 TIMELY PREFETCHES:          0 LATE PREFETCHES: 0 DROPPED PREFETCHES: 0
PSCL5 PREFETCHES SAME FILL-ORIGIN LEVEL: 0 DIFFERENT FILL-ORIGIN LEVEL: 0

Revised Interactions: positive negative neutral
PSCL5_interactions 0 0 0 -nan -nan -nan
PSCL4 TOTAL     ACCESS:      15260  HIT:      15260  MISS:          0  HIT %:        100  MISS %:          0   MPKI: 0
PSCL4 LOAD TRANSLATION ACCESS:      15259  HIT:      15259  MISS:          0  HIT %:        100  MISS %:          0   MPKI: 0
PSCL4 TRANSLATION FROM L1D PREFETCHER ACCESS:          1  HIT:          1  MISS:          0  HIT %:        100  MISS %:          0   MPKI: 0
PSCL4 PREFETCH  REQUESTED:          0  ISSUED:          0  USEFUL:          0  USELESS:          0
PSCL4 USEFUL LOAD PREFETCHES:          0 PREFETCH ISSUED TO LOWER LEVEL:          0  ACCURACY: -nan
PSCL4 TIMELY PREFETCHES:          0 LATE PREFETCHES: 0 DROPPED PREFETCHES: 0
PSCL4 PREFETCHES SAME FILL-ORIGIN LEVEL: 0 DIFFERENT FILL-ORIGIN LEVEL: 0

Revised Interactions: positive negative neutral
PSCL4_interactions 0 0 0 -nan -nan -nan
PSCL3 TOTAL     ACCESS:      15260  HIT:      15260  MISS:          0  HIT %:        100  MISS %:          0   MPKI: 0
PSCL3 LOAD TRANSLATION ACCESS:      15259  HIT:      15259  MISS:          0  HIT %:        100  MISS %:          0   MPKI: 0
PSCL3 TRANSLATION FROM L1D PREFETCHER ACCESS:          1  HIT:          1  MISS:          0  HIT %:        100  MISS %:          0   MPKI: 0
PSCL3 PREFETCH  REQUESTED:          0  ISSUED:          0  USEFUL:          0  USELESS:          0
PSCL3 USEFUL LOAD PREFETCHES:          0 PREFETCH ISSUED TO LOWER LEVEL:          0  ACCURACY: -nan
PSCL3 TIMELY PREFETCHES:          0 LATE PREFETCHES: 0 DROPPED PREFETCHES: 0
PSCL3 PREFETCHES SAME FILL-ORIGIN LEVEL: 0 DIFFERENT FILL-ORIGIN LEVEL: 0

Revised Interactions: positive negative neutral
PSCL3_interactions 0 0 0 -nan -nan -nan
PSCL2 TOTAL     ACCESS:      15260  HIT:      15145  MISS:        115  HIT %:    99.2464  MISS %:   0.753604   MPKI: 0.0023
PSCL2 LOAD TRANSLATION ACCESS:      15259  HIT:      15144  MISS:        115  HIT %:    99.2463  MISS %:   0.753654   MPKI: 0.0023
PSCL2 TRANSLATION FROM L1D PREFETCHER ACCESS:          1  HIT:          1  MISS:          0  HIT %:        100  MISS %:          0   MPKI: 0
PSCL2 PREFETCH  REQUESTED:          0  ISSUED:          0  USEFUL:          0  USELESS:          0
PSCL2 USEFUL LOAD PREFETCHES:          0 PREFETCH ISSUED TO LOWER LEVEL:          0  ACCURACY: -nan
PSCL2 TIMELY PREFETCHES:          0 LATE PREFETCHES: 0 DROPPED PREFETCHES: 0
PSCL2 PREFETCHES SAME FILL-ORIGIN LEVEL: 0 DIFFERENT FILL-ORIGIN LEVEL: 0

Revised Interactions: positive negative neutral
PSCL2_interactions 0 0 0 -nan -nan -nan
LLC TOTAL     ACCESS:    2050401  HIT:     601478  MISS:    1448923  HIT %:    29.3347  MISS %:    70.6653   MPKI: 28.9785
LLC LOAD      ACCESS:      93412  HIT:      32626  MISS:      60786  HIT %:     34.927  MISS %:     65.073   MPKI: 1.21572
LLC RFO       ACCESS:     107131  HIT:       6594  MISS:     100537  HIT %:    6.15508  MISS %:    93.8449   MPKI: 2.01074
LLC PREFETCH  ACCESS:    1395806  HIT:     243076  MISS:    1152730  HIT %:    17.4147  MISS %:    82.5853   MPKI: 23.0546
LLC WRITEBACK ACCESS:     451257  HIT:     318896  MISS:     132361  HIT %:    70.6684  MISS %:    29.3316   MPKI: 2.64722
LLC LOAD TRANSLATION ACCESS:       2795  HIT:        286  MISS:       2509  HIT %:    10.2326  MISS %:    89.7674   MPKI: 0.05018
LLC PREFETCH  REQUESTED:          0  ISSUED:          0  USEFUL:      22524  USELESS:    1134384
LLC USEFUL LOAD PREFETCHES:      22524 PREFETCH ISSUED TO LOWER LEVEL:    1152730  ACCURACY: 1.95397
LLC TIMELY PREFETCHES:      22524 LATE PREFETCHES: 0 DROPPED PREFETCHES: 0
LLC PREFETCHES SAME FILL-ORIGIN LEVEL: 0 DIFFERENT FILL-ORIGIN LEVEL: 0
LLC AVERAGE MISS LATENCY: 323.976 cycles
LLC RQ	ACCESS:     203351	FORWARD:          0	MERGED:          0	TO_CACHE:     203349
LLC WQ	ACCESS:     451260	FORWARD:          8	MERGED:          0	TO_CACHE:     451260
LLC PQ	ACCESS:    1395812	FORWARD:          0	MERGED:          0	TO_CACHE:    1395806

Revised Interactions: positive negative neutral
LLC_interactions 1106 1151839 91954 0.0888425 92.5247 7.38646
LLC Dense regions hint to LLC: 0

RAW hits: 53654
Loads Generated: 16765722
Loads sent to L1D: 16712068
Stores Generated: 3489005
Stores sent to L1D: 3489006
Major fault: 0 Minor fault: 7750
Allocated PAGES: 7750

stream: 
stream:times selected: 5281661
stream:pref_filled: 2266630
stream:pref_useful: 1897707
stream:pref_late: 36672
stream:misses: 22145
stream:misses_by_poll: 0

CS: 
CS:times selected: 4843785
CS:pref_filled: 218215
CS:pref_useful: 188251
CS:pref_late: 1591
CS:misses: 308244
CS:misses_by_poll: 2090

CPLX: 
CPLX:times selected: 437725
CPLX:pref_filled: 53008
CPLX:pref_useful: 36986
CPLX:pref_late: 999
CPLX:misses: 70859
CPLX:misses_by_poll: 101

NL_L1: 
NL:times selected: 865
NL:pref_filled: 242
NL:pref_useful: 7
NL:pref_late: 0
NL:misses: 703
NL:misses_by_poll: 0

total selections: 10564036
total_filled: 1594342
total_useful: 1280522
total_late: 39424
total_polluted: 2191
total_misses_after_warmup: 362376
conflicts: 109957
Degree Incremented Times: 248448
Degree Decremented Times: 0

L1 IP Table Write Accesses: 13140948
L1 IP Table Read Accesses: 13030991
L1 RST Write Accesses: 3098509
L1 RST Read Accesses: 6197018
L1 CSPT Write Accesses: 3098509
L1 CSPT Read Accesses: 4037190
L1 RR Filter Tag Write Accesses: 12120881
L1 RR Filter Tag Read Accesses: 693424989
L1 IP Table Tag Write Accesses: 13392867
L1 IP Table Tag Read Accesses: 13392867
L1 RST Tag Write Accesses: 0
L1 RST Tag Read Accesses: 28400355
L1 RR Filter Write Accesses: 0
L1 RR Filter Read Accesses: 26177746
test: 201273
L2 IP Table Read Accesses: 2838361
L2 IP Table Write Accesses: 2644220
L2 IP Table Tag Read Accesses: 1427181
L2 IP Table Tag Write Accesses: 1427181

DRAM Statistics
 CHANNEL 0
 RQ ROW_BUFFER_HIT:     441754  ROW_BUFFER_MISS:     874452
 DBUS_CONGESTED:        803
 WQ ROW_BUFFER_HIT:      75524  ROW_BUFFER_MISS:     302896  FULL:      10156

 AVG_CONGESTED_CYCLE: 4
 All warmup complete: 2
Channel 0 Bank busy for read cycles: 0
Channel 0 Bank busy for write cycles: 0
Channel 0
Rank 0
0banks busy for read cycles: 19059988
0banks busy for write cycles: 12789
1banks busy for read cycles: 8948599
1banks busy for write cycles: 1798841
2banks busy for read cycles: 5614988
2banks busy for write cycles: 879973
3banks busy for read cycles: 3695852
3banks busy for write cycles: 571023
4banks busy for read cycles: 3010760
4banks busy for write cycles: 430940
5banks busy for read cycles: 2716483
5banks busy for write cycles: 380608
6banks busy for read cycles: 2763992
6banks busy for write cycles: 392251
7banks busy for read cycles: 4402856
7banks busy for write cycles: 1088326
8banks busy for read cycles: 7033286
8banks busy for write cycles: 6695796

CPU 0 Branch Prediction Accuracy: 94.351% MPKI: 2.76314 Average ROB Occupancy at Mispredict: 48.0126
Branch types
NOT_BRANCH: 47553996 95.108%
BRANCH_DIRECT_JUMP: 3916 0.007832%
BRANCH_INDIRECT: 0 0%
BRANCH_CONDITIONAL: 2424087 4.84817%
BRANCH_DIRECT_CALL: 8847 0.017694%
BRANCH_INDIRECT_CALL: 0 0%
BRANCH_RETURN: 8845 0.01769%
BRANCH_OTHER: 0 0%

@sumon_overall_L1D   1280522     95661     95661    313894   1594342  17856483  21045468
@Sumon_Early_by_class_L1D   1119723    133766     25241         0
@Sumon_Late_by_class_L1D     33654      1554       991         0

@Sumon_Early_by_cycle_L1D     63899    105938    219051    160454    191445    474326     42913      7782      5162      5782      3388       382
@Sumon_Late_by_cycle_L1D      5315      5509      3701      4358     14111      3353
@Sumon_Early_stream_L1D     60624    101503    209340    146922    177165    403069      5268      3125      4302      4853      3267       285
@Sumon_Early_CS_L1D      1729      2443      5513     11070     11850     61168     34515      4123       624       716        11         4
@Sumon_Early_CPLX_L1D       927      1342      3782      2406      2416     10065      3125       530       235       212       108        93
@Sumon_Late_stream_L1D      4836      5048      2996      4152     13425      3197
@Sumon_Late_CS_L1D       260       249       351       153       440       101
@Sumon_Late_CPLX_L1D       160       183       336        43       217        52
@sumon_overall_L2C     98401      9387         0   1295214   1386425   6630124   7098774
@Sumon_Early_by_class_L2C     86909      9920       664         0
@Sumon_Late_by_class_L2C      8259       522         0         0

@Sumon_Early_by_cycle_L2C      4037      3976      4875      4561      3117      7750      4799      4172      4230      9586     17875     29423
@Sumon_Late_by_cycle_L2C       334       917      1356       629      3947      2204
@Sumon_Early_stream_L2C      3668      3682      4597      4351      2958      6821      3128      3883      4077      8168     14348     27228
@Sumon_Early_CS_L2C       184        95       111       141       123       832      1642       264       118      1272      3307      1831
@Sumon_Early_CPLX_L2C         0         0         0         0         0         0         0         3        19       119       192       331
@Sumon_Late_stream_L2C         0       743      1203       589      3632      2092
@Sumon_Late_CS_L2C         0       156        98        16       143       109
@Sumon_Late_CPLX_L2C         0         0         0         0         0         0
DRAM PAGES: 1048576
Allocated PAGES: 7750
