
*** ChampSim Multicore Out-of-Order Simulator ***

Warmup Instructions: 50000000
Simulation Instructions: 50000000
Number of CPUs: 1
LLC sets: 2048
LLC ways: 16
Off-chip DRAM Size: 4096 MB Channels: 1 Width: 64-bit Data Rate: 6400 MT/s
CPU 0 runs ../../biswa/SPEC2017Traces/628.pop2_s-17B.champsimtrace.xz
.xz
CPU 0 Bimodal branch predictor
BTB has LRU replacement policy
ITLB has LRU replacement policy
DTLB has LRU replacement policy
STLB has LRU replacement policy
L1I has LRU replacement policy
IP Table Entries: 256
L1D has LRU replacement policy
IP_Table L2 entries: 256
Initialize DRRIP state for L2C
Initialize Hawkeye state
epoch: 1000
next table: 2313
cur table: 5912
epoch: 1000
next table: 1455
cur table: 2313
epoch: 1000
next table: 1565
cur table: 1455
epoch: 1000
next table: 1765
cur table: 1565
epoch: 1000
next table: 1700
cur table: 1765
epoch: 1000
next table: 1535
cur table: 1700
epoch: 1000
next table: 1544
cur table: 1535
epoch: 1000
next table: 1835
cur table: 1544
epoch: 1000
next table: 1900
cur table: 1835
epoch: 1000
next table: 1701
cur table: 1900
epoch: 1000
next table: 1798
cur table: 1701
epoch: 1000
next table: 1699
cur table: 1798
epoch: 1000
next table: 1805
cur table: 1699
epoch: 1000
next table: 1933
cur table: 1805
epoch: 1000
next table: 1724
cur table: 1933
epoch: 1000
next table: 1973
cur table: 1724
epoch: 1000
next table: 1410
cur table: 1973
epoch: 1000
next table: 1256
cur table: 1410
epoch: 1000
next table: 1520
cur table: 1256
epoch: 1000
next table: 1763
cur table: 1520
epoch: 1000
next table: 1675
cur table: 1763
epoch: 1000
next table: 1573
cur table: 1675
epoch: 1000
next table: 1469
cur table: 1573
epoch: 1000
next table: 1904
cur table: 1469
epoch: 1000
next table: 1858
cur table: 1904
epoch: 1000
next table: 1726
cur table: 1858
epoch: 1000
next table: 1892
cur table: 1726
epoch: 1000
next table: 1661
cur table: 1892
epoch: 1000
next table: 1776
cur table: 1661
epoch: 1000
next table: 2016
cur table: 1776
epoch: 1000
next table: 1620
cur table: 2016
epoch: 1000
next table: 1952
cur table: 1620
epoch: 1000
next table: 1403
cur table: 1952
epoch: 1000
next table: 1253
cur table: 1403
epoch: 1000
next table: 1532
cur table: 1253
epoch: 1000
next table: 1920
cur table: 1532
epoch: 1000
next table: 1496
cur table: 1920
epoch: 1000
next table: 1574
cur table: 1496
epoch: 1000
next table: 1493
cur table: 1574
epoch: 1000
next table: 1829
cur table: 1493
epoch: 1000
next table: 1841
cur table: 1829
epoch: 1000
next table: 1706
cur table: 1841
epoch: 1000
next table: 1870
cur table: 1706
epoch: 1000
next table: 1628
cur table: 1870
epoch: 1000
next table: 1783
cur table: 1628
epoch: 1000
next table: 2057
cur table: 1783
epoch: 1000
next table: 1613
cur table: 2057
epoch: 1000
next table: 2032
cur table: 1613
epoch: 1000
next table: 1321
cur table: 2032
epoch: 1000
next table: 1277
cur table: 1321
epoch: 1000
next table: 1605
cur table: 1277
epoch: 1000
next table: 1964
cur table: 1605
epoch: 1000
next table: 1390
cur table: 1964
epoch: 1000
next table: 1706
cur table: 1390
epoch: 1000
next table: 1345
cur table: 1706
epoch: 1000
next table: 1957
cur table: 1345
epoch: 1000
next table: 1756
cur table: 1957
epoch: 1000
next table: 1727
cur table: 1756
epoch: 1000
next table: 1801
cur table: 1727
epoch: 1000
next table: 1578
cur table: 1801
epoch: 1000
next table: 1853
cur table: 1578
epoch: 1000
next table: 1999
cur table: 1853
epoch: 1000
next table: 1648
cur table: 1999
epoch: 1000
next table: 1949
cur table: 1648
epoch: 1000
next table: 1407
cur table: 1949
epoch: 1000
next table: 1267
cur table: 1407
epoch: 1000
next table: 1565
cur table: 1267
epoch: 1000
next table: 1982
cur table: 1565
epoch: 1000
next table: 1417
cur table: 1982
epoch: 1000
next table: 1654
cur table: 1417
epoch: 1000
next table: 1401
cur table: 1654
epoch: 1000
next table: 1910
cur table: 1401
epoch: 1000
next table: 3218
cur table: 25513
epoch: 1000
next table: 1800
cur table: 1910
epoch: 1000
next table: 1734
cur table: 1800
epoch: 1000
next table: 1957
cur table: 1734
epoch: 1000
next table: 1744
cur table: 1957
epoch: 1000
next table: 1574
cur table: 1744
epoch: 1000
next table: 2040
cur table: 1574
epoch: 1000
next table: 1587
cur table: 2040
epoch: 1000
next table: 1993
cur table: 1587
epoch: 1000
next table: 3991
cur table: 3218
epoch: 1000
next table: 1407
cur table: 1993
epoch: 1000
next table: 1269
cur table: 1407
epoch: 1000
next table: 1550
cur table: 1269
epoch: 1000
next table: 1940
cur table: 1550
epoch: 1000
next table: 2485
cur table: 3991
epoch: 1000
next table: 1466
cur table: 1940
epoch: 1000
next table: 1597
cur table: 1466
epoch: 1000
next table: 1475
cur table: 1597
epoch: 1000
next table: 1817
cur table: 1475
epoch: 1000
next table: 2263
cur table: 2485
epoch: 1000
next table: 1841
cur table: 1817
epoch: 1000
next table: 1744
cur table: 1841
epoch: 1000
next table: 1828
cur table: 1744
epoch: 1000
next table: 1556
cur table: 1828
epoch: 1000
next table: 1870
cur table: 1556
epoch: 1000
next table: 1914
cur table: 1870
epoch: 1000
next table: 2769
cur table: 2263
epoch: 1000
next table: 1696
cur table: 1914
epoch: 1000
next table: 1965
cur table: 1696
epoch: 1000
next table: 1456
cur table: 1965
epoch: 1000
next table: 1279
cur table: 1456
epoch: 1000
next table: 1536
cur table: 1279
epoch: 1000
next table: 2682
cur table: 2769
epoch: 1000
next table: 1540
cur table: 1536
epoch: 1000
next table: 1896
cur table: 1540
epoch: 1000
next table: 1788
cur table: 2682
epoch: 1000
next table: 1466
cur table: 1896
epoch: 1000
next table: 1520
cur table: 1466
epoch: 1000
next table: 1721
cur table: 1520
epoch: 1000
next table: 2085
cur table: 1788
epoch: 1000
next table: 2000
cur table: 1721
epoch: 1000
next table: 1484
cur table: 2000
epoch: 1000
next table: 1957
cur table: 1484
epoch: 1000
next table: 1665
cur table: 1957
epoch: 1000
next table: 1847
cur table: 1665
epoch: 1000
next table: 1947
cur table: 1847
epoch: 1000
next table: 2838
cur table: 2085
epoch: 1000
next table: 1658
cur table: 1947
epoch: 1000
next table: 1888
cur table: 1658
epoch: 1000
next table: 1547
cur table: 1888
epoch: 1000
next table: 1325
cur table: 1547
epoch: 1000
next table: 1505
cur table: 1325
epoch: 1000
next table: 2455
cur table: 2838
epoch: 1000
next table: 1412
cur table: 1505
epoch: 1000
next table: 2080
cur table: 1412
epoch: 1000
next table: 1902
cur table: 2455
epoch: 1000
next table: 1417
cur table: 2080
epoch: 1000
next table: 1571
cur table: 1417
epoch: 1000
next table: 1616
cur table: 1571
epoch: 1000
next table: 1712
cur table: 1902
epoch: 1000
next table: 2024
cur table: 1616
Heartbeat CPU 0 instructions: 10000003 cycles: 2997382 heartbeat IPC: 3.33625 cumulative IPC: 3.33625 (Simulation time: 0 hr 6 min 15 sec) 
epoch: 1000
next table: 1567
cur table: 2024
epoch: 1000
next table: 2009
cur table: 1567
epoch: 1000
next table: 1648
cur table: 2009
epoch: 1000
next table: 1843
cur table: 1648
epoch: 1000
next table: 1967
cur table: 1843
epoch: 1000
next table: 3062
cur table: 1712
epoch: 1000
next table: 1675
cur table: 1967
epoch: 1000
next table: 1945
cur table: 1675
epoch: 1000
next table: 1423
cur table: 1945
epoch: 1000
next table: 1333
cur table: 1423
epoch: 1000
next table: 2349
cur table: 3062
epoch: 1000
next table: 1510
cur table: 1333
epoch: 1000
next table: 1393
cur table: 1510
epoch: 1000
next table: 2064
cur table: 1393
epoch: 1000
next table: 2073
cur table: 2349
epoch: 1000
next table: 1411
cur table: 2064
epoch: 1000
next table: 1537
cur table: 1411
epoch: 1000
next table: 1675
cur table: 2073
epoch: 1000
next table: 1601
cur table: 1537
epoch: 1000
next table: 1888
cur table: 1601
epoch: 1000
next table: 1681
cur table: 1888
epoch: 1000
next table: 1945
cur table: 1675
epoch: 1000
next table: 1800
cur table: 1681
epoch: 1000
next table: 1753
cur table: 1800
epoch: 1000
next table: 1921
cur table: 1753
epoch: 1000
next table: 1971
cur table: 1921
epoch: 1000
next table: 1662
cur table: 1971
epoch: 1000
next table: 1771
cur table: 1662
epoch: 1000
next table: 1647
cur table: 1771
epoch: 1000
next table: 3252
cur table: 1945
epoch: 1000
next table: 1337
cur table: 1647
epoch: 1000
next table: 1526
cur table: 1337
epoch: 1000
next table: 1379
cur table: 1526
epoch: 1000
next table: 2104
cur table: 1379
epoch: 1000
next table: 2409
cur table: 3252
epoch: 1000
next table: 1369
cur table: 2104
epoch: 1000
next table: 1342
cur table: 2409
epoch: 1000
next table: 1589
cur table: 1369
epoch: 1000
next table: 1635
cur table: 1589
epoch: 1000
next table: 2025
cur table: 1635
epoch: 1000
next table: 1596
cur table: 2025
epoch: 1000
next table: 2183
cur table: 1342
epoch: 1000
next table: 1898
cur table: 1596
epoch: 1000
next table: 1572
cur table: 1898
epoch: 1000
next table: 1981
cur table: 1572
epoch: 1000
next table: 1861
cur table: 1981
epoch: 1000
next table: 1590
cur table: 1861
epoch: 1000
next table: 2744
cur table: 2183
epoch: 1000
next table: 1711
cur table: 1590
epoch: 1000
next table: 1871
cur table: 1711
epoch: 1000
next table: 1338
cur table: 1871
epoch: 1000
next table: 1418
cur table: 1338
epoch: 1000
next table: 2409
cur table: 2744
epoch: 1000
next table: 1427
cur table: 1418
epoch: 1000
next table: 2135
cur table: 1427
epoch: 1000
next table: 1256
cur table: 2135
epoch: 1000
next table: 1762
cur table: 2409
epoch: 1000
next table: 1765
cur table: 1256
epoch: 1000
next table: 1632
cur table: 1765
epoch: 1000
next table: 1600
cur table: 1762
epoch: 1000
next table: 1811
cur table: 1632
epoch: 1000
next table: 1723
cur table: 1811
epoch: 1000
next table: 1661
cur table: 1723
epoch: 1000
next table: 1826
cur table: 1661
epoch: 1000
next table: 2339
cur table: 1600
epoch: 1000
next table: 1966
cur table: 1826
epoch: 1000
next table: 1539
cur table: 1966
epoch: 1000
next table: 1837
cur table: 1539
epoch: 1000
next table: 1718
cur table: 1837
epoch: 1000
next table: 1937
cur table: 1718
epoch: 1000
next table: 1309
cur table: 1937
epoch: 1000
next table: 2942
cur table: 2339
epoch: 1000
next table: 1330
cur table: 1309
epoch: 1000
next table: 1537
cur table: 1330
epoch: 1000
next table: 2019
cur table: 1537
epoch: 1000
next table: 2182
cur table: 2942
epoch: 1000
next table: 1324
cur table: 2019
epoch: 1000
next table: 1695
cur table: 1324
epoch: 1000
next table: 1647
cur table: 2182
epoch: 1000
next table: 1630
cur table: 1695
epoch: 1000
next table: 1864
cur table: 1630
epoch: 1000
next table: 1743
cur table: 1864
epoch: 1000
next table: 1904
cur table: 1647
epoch: 1000
next table: 1640
cur table: 1743
epoch: 1000
next table: 1854
cur table: 1640
epoch: 1000
next table: 1978
cur table: 1854
epoch: 1000
next table: 1779
cur table: 1978
epoch: 1000
next table: 1657
cur table: 1779
epoch: 1000
next table: 1677
cur table: 1657
epoch: 1000
next table: 1912
cur table: 1677
epoch: 1000
next table: 3154
cur table: 1904
epoch: 1000
next table: 1341
cur table: 1912
epoch: 1000
next table: 1322
cur table: 1341
epoch: 1000
next table: 1537
cur table: 1322
epoch: 1000
next table: 2132
cur table: 1537
epoch: 1000
next table: 2479
cur table: 3154
epoch: 1000
next table: 1242
cur table: 2132
epoch: 1000
next table: 1328
cur table: 2479
epoch: 1000
next table: 1696
cur table: 1242
epoch: 1000
next table: 1670
cur table: 1696
epoch: 1000
next table: 1774
cur table: 1670
epoch: 1000
next table: 1942
cur table: 1328
epoch: 1000
next table: 1789
cur table: 1774
epoch: 1000
next table: 1870
cur table: 1789
epoch: 1000
next table: 1748
cur table: 1870
epoch: 1000
next table: 1921
cur table: 1748
epoch: 1000
next table: 1916
cur table: 1921
epoch: 1000
next table: 1654
cur table: 1916
epoch: 1000
next table: 2970
cur table: 1942
epoch: 1000
next table: 1814
cur table: 1654
epoch: 1000
next table: 1658
cur table: 1814
epoch: 1000
next table: 1337
cur table: 1658
epoch: 1000
next table: 1478
cur table: 1337
epoch: 1000
next table: 2387
cur table: 2970
epoch: 1000
next table: 1407
cur table: 1478
epoch: 1000
next table: 2112
cur table: 1407
epoch: 1000
next table: 1733
cur table: 2387
epoch: 1000
next table: 1401
cur table: 2112
epoch: 1000
next table: 1579
cur table: 1401
epoch: 1000
next table: 1736
cur table: 1579
epoch: 1000
next table: 1623
cur table: 1733
epoch: 1000
next table: 1987
cur table: 1736
epoch: 1000
next table: 1499
cur table: 1987
epoch: 1000
next table: 2005
cur table: 1499
epoch: 1000
next table: 2263
cur table: 1623
epoch: 1000
next table: 1689
cur table: 2005
epoch: 1000
next table: 1846
cur table: 1689
epoch: 1000
next table: 2003
cur table: 1846
epoch: 1000
next table: 1672
cur table: 2003
epoch: 1000
next table: 1972
cur table: 1672
epoch: 1000
next table: 1410
cur table: 1972
epoch: 1000
next table: 2914
cur table: 2263
epoch: 1000
next table: 1263
cur table: 1410
epoch: 1000
next table: 1536
cur table: 1263
epoch: 1000
next table: 1915
cur table: 1536
epoch: 1000
next table: 2233
cur table: 2914
epoch: 1000
next table: 1494
cur table: 1915
epoch: 1000
next table: 1608
cur table: 1494
epoch: 1000
next table: 1424
cur table: 2233
epoch: 1000
next table: 1441
cur table: 1608
epoch: 1000
next table: 1849
cur table: 1441
epoch: 1000
next table: 1849
cur table: 1849
epoch: 1000
next table: 1706
cur table: 1849
epoch: 1000
next table: 2130
cur table: 1424
epoch: 1000
next table: 1834
cur table: 1706
epoch: 1000
next table: 1646
cur table: 1834
epoch: 1000
next table: 1824
cur table: 1646
epoch: 1000
next table: 1980
cur table: 1824
epoch: 1000
next table: 1669
cur table: 1980
epoch: 1000
next table: 2708
cur table: 2130
epoch: 1000
next table: 1993
cur table: 1669
epoch: 1000
next table: 1412
cur table: 1993
epoch: 1000
next table: 1268
cur table: 1412
epoch: 1000
next table: 1538
cur table: 1268
epoch: 1000
next table: 2468
cur table: 2708
epoch: 1000
next table: 1828
cur table: 1538
epoch: 1000
next table: 1597
cur table: 1828
epoch: 1000
next table: 1728
cur table: 2468
epoch: 1000
next table: 1564
cur table: 1597
epoch: 1000
next table: 1518
cur table: 1564
epoch: 1000
next table: 1837
cur table: 1518
epoch: 1000
next table: 1639
cur table: 1728
epoch: 1000
next table: 1839
cur table: 1837
Heartbeat CPU 0 instructions: 20000001 cycles: 5994940 heartbeat IPC: 3.33605 cumulative IPC: 3.33615 (Simulation time: 0 hr 13 min 2 sec) 
epoch: 1000
next table: 1744
cur table: 1839
epoch: 1000
next table: 1872
cur table: 1744
epoch: 1000
next table: 2273
cur table: 1639
epoch: 1000
next table: 1627
cur table: 1872
epoch: 1000
next table: 1806
cur table: 1627
epoch: 1000
next table: 2001
cur table: 1806
epoch: 1000
next table: 1646
cur table: 2001
epoch: 1000
next table: 1913
cur table: 1646
epoch: 1000
next table: 1444
cur table: 1913
epoch: 1000
next table: 1289
cur table: 1444
epoch: 1000
next table: 3035
cur table: 2273
epoch: 1000
next table: 1535
cur table: 1289
epoch: 1000
next table: 1626
cur table: 1535
epoch: 1000
next table: 1786
cur table: 1626
epoch: 1000
next table: 2088
cur table: 3035
epoch: 1000
next table: 1507
cur table: 1786
epoch: 1000
next table: 1555
cur table: 1507
epoch: 1000
next table: 1467
cur table: 2088
epoch: 1000
next table: 1724
cur table: 1555
epoch: 1000
next table: 1934
cur table: 1724
epoch: 1000
next table: 1520
cur table: 1934
epoch: 1000
next table: 2105
cur table: 1467
epoch: 1000
next table: 1952
cur table: 1520
epoch: 1000
next table: 1596
cur table: 1952
epoch: 1000
next table: 1855
cur table: 1596
epoch: 1000
next table: 1935
cur table: 1855
epoch: 1000
next table: 1597
cur table: 1935
epoch: 1000
next table: 2754
cur table: 2105
epoch: 1000
next table: 1784
cur table: 1597
epoch: 1000
next table: 1673
cur table: 1784
epoch: 1000
next table: 1342
cur table: 1673
epoch: 1000
next table: 1509
cur table: 1342
epoch: 1000
next table: 1392
cur table: 1509
epoch: 1000
next table: 2459
cur table: 2754
epoch: 1000
next table: 2113
cur table: 1392
epoch: 1000
next table: 1441
cur table: 2113
epoch: 1000
next table: 1721
cur table: 2459
epoch: 1000
next table: 1521
cur table: 1441
epoch: 1000
next table: 1621
cur table: 1521
epoch: 1000
next table: 1747
cur table: 1721
epoch: 1000
next table: 2069
cur table: 1621
epoch: 1000
next table: 1598
cur table: 2069
epoch: 1000
next table: 1974
cur table: 1598
epoch: 1000
next table: 1490
cur table: 1974
epoch: 1000
next table: 1969
cur table: 1490
epoch: 1000
next table: 2745
cur table: 1747
epoch: 1000
next table: 1860
cur table: 1969
epoch: 1000
next table: 1634
cur table: 1860
epoch: 1000
next table: 1897
cur table: 1634
epoch: 1000
next table: 1679
cur table: 1897
epoch: 1000
next table: 1342
cur table: 1679
epoch: 1000
next table: 2593
cur table: 2745
epoch: 1000
next table: 1491
cur table: 1342
epoch: 1000
next table: 1402
cur table: 1491
epoch: 1000
next table: 2113
cur table: 1402
epoch: 1000
next table: 1955
cur table: 2593
epoch: 1000
next table: 1415
cur table: 2113
epoch: 1000
next table: 1555
cur table: 1415
epoch: 1000
next table: 1627
cur table: 1955
epoch: 1000
next table: 1624
cur table: 1555
epoch: 1000
next table: 1913
cur table: 1624
epoch: 1000
next table: 1669
cur table: 1913
epoch: 1000
next table: 1866
cur table: 1627
epoch: 1000
next table: 1905
cur table: 1669
epoch: 1000
next table: 1564
cur table: 1905
epoch: 1000
next table: 1965
cur table: 1564
epoch: 1000
next table: 1950
cur table: 1965
epoch: 1000
next table: 1634
cur table: 1950
epoch: 1000
next table: 1798
cur table: 1634
epoch: 1000
next table: 3099
cur table: 1866
epoch: 1000
next table: 1681
cur table: 1798
epoch: 1000
next table: 1326
cur table: 1681
epoch: 1000
next table: 1479
cur table: 1326
epoch: 1000
next table: 1431
cur table: 1479
epoch: 1000
next table: 2537
cur table: 3099
epoch: 1000
next table: 2129
cur table: 1431
epoch: 1000
next table: 1350
cur table: 2129
epoch: 1000
next table: 1302
cur table: 2537
epoch: 1000
next table: 1611
cur table: 1350
epoch: 1000
next table: 1729
cur table: 1611
epoch: 1000
next table: 1977
cur table: 1729
epoch: 1000
next table: 1901
cur table: 1302
epoch: 1000
next table: 1498
cur table: 1977
epoch: 1000
next table: 1969
cur table: 1498
epoch: 1000
next table: 1678
cur table: 1969
epoch: 1000
next table: 1954
cur table: 1901
epoch: 1000
next table: 1843
cur table: 1678
epoch: 1000
next table: 1941
cur table: 1843
epoch: 1000
next table: 1719
cur table: 1941
epoch: 1000
next table: 1894
cur table: 1719
epoch: 1000
next table: 1455
cur table: 1894
epoch: 1000
next table: 1329
cur table: 1455
epoch: 1000
next table: 2796
cur table: 1954
epoch: 1000
next table: 1510
cur table: 1329
epoch: 1000
next table: 1386
cur table: 1510
epoch: 1000
next table: 2098
cur table: 1386
epoch: 1000
next table: 2177
cur table: 2796
epoch: 1000
next table: 1465
cur table: 2098
epoch: 1000
next table: 1517
cur table: 1465
epoch: 1000
next table: 1449
cur table: 2177
epoch: 1000
next table: 1631
cur table: 1517
epoch: 1000
next table: 2012
cur table: 1631
epoch: 1000
next table: 1569
cur table: 2012
epoch: 1000
next table: 1994
cur table: 1449
epoch: 1000
next table: 1921
cur table: 1569
epoch: 1000
next table: 1702
cur table: 1921
epoch: 1000
next table: 1890
cur table: 1702
epoch: 1000
next table: 1773
cur table: 1890
epoch: 1000
next table: 1667
cur table: 1773
epoch: 1000
next table: 2745
cur table: 1994
epoch: 1000
next table: 1813
cur table: 1667
epoch: 1000
next table: 1773
cur table: 1813
epoch: 1000
next table: 1325
cur table: 1773
epoch: 1000
next table: 1455
cur table: 1325
epoch: 1000
next table: 2233
cur table: 2745
epoch: 1000
next table: 1402
cur table: 1455
epoch: 1000
next table: 2156
cur table: 1402
epoch: 1000
next table: 1731
cur table: 2233
epoch: 1000
next table: 1491
cur table: 2156
epoch: 1000
next table: 1583
cur table: 1491
epoch: 1000
next table: 1604
cur table: 1731
epoch: 1000
next table: 1739
cur table: 1583
epoch: 1000
next table: 1953
cur table: 1739
epoch: 1000
next table: 1515
cur table: 1953
epoch: 1000
next table: 1920
cur table: 1604
epoch: 1000
next table: 1974
cur table: 1515
epoch: 1000
next table: 1586
cur table: 1974
epoch: 1000
next table: 1935
cur table: 1586
epoch: 1000
next table: 1925
cur table: 1935
epoch: 1000
next table: 1732
cur table: 1925
epoch: 1000
next table: 1957
cur table: 1732
epoch: 1000
next table: 3011
cur table: 1920
epoch: 1000
next table: 1434
cur table: 1957
epoch: 1000
next table: 1272
cur table: 1434
epoch: 1000
next table: 1551
cur table: 1272
epoch: 1000
next table: 1996
cur table: 1551
epoch: 1000
next table: 2354
cur table: 3011
epoch: 1000
next table: 1453
cur table: 1996
epoch: 1000
next table: 1707
cur table: 1453
epoch: 1000
next table: 1318
cur table: 2354
epoch: 1000
next table: 1429
cur table: 1707
epoch: 1000
next table: 1990
cur table: 1429
epoch: 1000
next table: 1980
cur table: 1318
epoch: 1000
next table: 1662
cur table: 1990
epoch: 1000
next table: 1731
cur table: 1662
epoch: 1000
next table: 1945
cur table: 1731
epoch: 1000
next table: 1781
cur table: 1945
epoch: 1000
next table: 2318
cur table: 1980
epoch: 1000
next table: 1595
cur table: 1781
epoch: 1000
next table: 1998
cur table: 1595
epoch: 1000
next table: 1623
cur table: 1998
epoch: 1000
next table: 2117
cur table: 1623
epoch: 1000
next table: 1330
cur table: 2117
epoch: 1000
next table: 1351
cur table: 1330
epoch: 1000
next table: 2501
cur table: 2318
epoch: 1000
next table: 1519
cur table: 1351
epoch: 1000
next table: 2185
cur table: 1519
epoch: 1000
next table: 1933
cur table: 2501
epoch: 1000
next table: 1232
cur table: 2185
epoch: 1000
next table: 1734
cur table: 1232
epoch: 1000
next table: 1688
cur table: 1933
epoch: 1000
next table: 1643
cur table: 1734
epoch: 1000
next table: 1831
cur table: 1643
Heartbeat CPU 0 instructions: 30000003 cycles: 8992527 heartbeat IPC: 3.33602 cumulative IPC: 3.3361 (Simulation time: 0 hr 19 min 47 sec) 
epoch: 1000
next table: 1726
cur table: 1831
epoch: 1000
next table: 1887
cur table: 1688
epoch: 1000
next table: 1854
cur table: 1726
epoch: 1000
next table: 1652
cur table: 1854
epoch: 1000
next table: 2027
cur table: 1652
epoch: 1000
next table: 1908
cur table: 2027
epoch: 1000
next table: 1696
cur table: 1908
epoch: 1000
next table: 2611
cur table: 1887
epoch: 1000
next table: 1961
cur table: 1696
epoch: 1000
next table: 1478
cur table: 1961
epoch: 1000
next table: 1336
cur table: 1478
epoch: 1000
next table: 1544
cur table: 1336
epoch: 1000
next table: 2344
cur table: 2611
epoch: 1000
next table: 1544
cur table: 1544
epoch: 1000
next table: 1900
cur table: 1544
epoch: 1000
next table: 1696
cur table: 2344
epoch: 1000
next table: 1611
cur table: 1900
epoch: 1000
next table: 1483
cur table: 1611
epoch: 1000
next table: 1918
cur table: 1483
epoch: 1000
next table: 1743
cur table: 1696
epoch: 1000
next table: 1754
cur table: 1918
epoch: 1000
next table: 1718
cur table: 1754
epoch: 1000
next table: 1968
cur table: 1718
epoch: 1000
next table: 2107
cur table: 1743
epoch: 1000
next table: 1855
cur table: 1968
epoch: 1000
next table: 1589
cur table: 1855
epoch: 1000
next table: 1934
cur table: 1589
epoch: 1000
next table: 1577
cur table: 1934
epoch: 1000
next table: 2142
cur table: 1577
epoch: 1000
next table: 1334
cur table: 2142
epoch: 1000
next table: 2766
cur table: 2107
epoch: 1000
next table: 1334
cur table: 1334
epoch: 1000
next table: 1536
cur table: 1334
epoch: 1000
next table: 2200
cur table: 1536
epoch: 1000
next table: 2164
cur table: 2766
epoch: 1000
next table: 1221
cur table: 2200
epoch: 1000
next table: 1715
cur table: 1221
epoch: 1000
next table: 1426
cur table: 2164
epoch: 1000
next table: 1627
cur table: 1715
epoch: 1000
next table: 1825
cur table: 1627
epoch: 1000
next table: 1746
cur table: 1825
epoch: 1000
next table: 2127
cur table: 1426
epoch: 1000
next table: 1661
cur table: 1746
epoch: 1000
next table: 1895
cur table: 1661
epoch: 1000
next table: 1987
cur table: 1895
epoch: 1000
next table: 1561
cur table: 1987
epoch: 1000
next table: 1826
cur table: 1561
epoch: 1000
next table: 2721
cur table: 2127
epoch: 1000
next table: 1524
cur table: 1826
epoch: 1000
next table: 2118
cur table: 1524
epoch: 1000
next table: 1352
cur table: 2118
epoch: 1000
next table: 1415
cur table: 1352
epoch: 1000
next table: 2360
cur table: 2721
epoch: 1000
next table: 1442
cur table: 1415
epoch: 1000
next table: 2189
cur table: 1442
epoch: 1000
next table: 1340
cur table: 2189
epoch: 1000
next table: 1620
cur table: 2360
epoch: 1000
next table: 1613
cur table: 1340
epoch: 1000
next table: 1619
cur table: 1613
epoch: 1000
next table: 1639
cur table: 1620
epoch: 1000
next table: 1838
cur table: 1619
epoch: 1000
next table: 1687
cur table: 1838
epoch: 1000
next table: 1831
cur table: 1687
epoch: 1000
next table: 2134
cur table: 1639
epoch: 1000
next table: 1687
cur table: 1831
epoch: 1000
next table: 2018
cur table: 1687
epoch: 1000
next table: 1810
cur table: 2018
epoch: 1000
next table: 1668
cur table: 1810
epoch: 1000
next table: 1851
cur table: 1668
epoch: 1000
next table: 1680
cur table: 1851
epoch: 1000
next table: 2729
cur table: 2134
epoch: 1000
next table: 1330
cur table: 1680
epoch: 1000
next table: 1469
cur table: 1330
epoch: 1000
next table: 1424
cur table: 1469
epoch: 1000
next table: 2125
cur table: 1424
epoch: 1000
next table: 2302
cur table: 2729
epoch: 1000
next table: 1428
cur table: 2125
epoch: 1000
next table: 1385
cur table: 2302
epoch: 1000
next table: 1610
cur table: 1428
epoch: 1000
next table: 1683
cur table: 1610
epoch: 1000
next table: 1904
cur table: 1683
epoch: 1000
next table: 1562
cur table: 1904
epoch: 1000
next table: 2108
cur table: 1385
epoch: 1000
next table: 1935
cur table: 1562
epoch: 1000
next table: 1620
cur table: 1935
epoch: 1000
next table: 1912
cur table: 1620
epoch: 1000
next table: 1812
cur table: 1912
epoch: 1000
next table: 1630
cur table: 1812
epoch: 1000
next table: 2608
cur table: 2108
epoch: 1000
next table: 1680
cur table: 1630
epoch: 1000
next table: 1880
cur table: 1680
epoch: 1000
next table: 1332
cur table: 1880
epoch: 1000
next table: 1483
cur table: 1332
epoch: 1000
next table: 2300
cur table: 2608
epoch: 1000
next table: 1411
cur table: 1483
epoch: 1000
next table: 2123
cur table: 1411
epoch: 1000
next table: 1788
cur table: 2300
epoch: 1000
next table: 1471
cur table: 2123
epoch: 1000
next table: 1581
cur table: 1471
epoch: 1000
next table: 1867
cur table: 1581
epoch: 1000
next table: 1682
cur table: 1788
epoch: 1000
next table: 1840
cur table: 1867
epoch: 1000
next table: 1685
cur table: 1840
epoch: 1000
next table: 1973
cur table: 1682
epoch: 1000
next table: 1892
cur table: 1685
epoch: 1000
next table: 1626
cur table: 1892
epoch: 1000
next table: 1838
cur table: 1626
epoch: 1000
next table: 2023
cur table: 1838
epoch: 1000
next table: 1639
cur table: 2023
epoch: 1000
next table: 2057
cur table: 1639
epoch: 1000
next table: 2784
cur table: 1973
epoch: 1000
next table: 1353
cur table: 2057
epoch: 1000
next table: 1316
cur table: 1353
epoch: 1000
next table: 1610
cur table: 1316
epoch: 1000
next table: 2022
cur table: 1610
epoch: 1000
next table: 2407
cur table: 2784
epoch: 1000
next table: 1363
cur table: 2022
epoch: 1000
next table: 1318
cur table: 2407
epoch: 1000
next table: 1679
cur table: 1363
epoch: 1000
next table: 1715
cur table: 1679
epoch: 1000
next table: 1804
cur table: 1715
epoch: 1000
next table: 1976
cur table: 1318
epoch: 1000
next table: 1745
cur table: 1804
epoch: 1000
next table: 1704
cur table: 1745
epoch: 1000
next table: 1837
cur table: 1704
epoch: 1000
next table: 1903
cur table: 1976
epoch: 1000
next table: 1998
cur table: 1837
epoch: 1000
next table: 1544
cur table: 1998
epoch: 1000
next table: 1871
cur table: 1544
epoch: 1000
next table: 1504
cur table: 1871
epoch: 1000
next table: 2118
cur table: 1504
epoch: 1000
next table: 2540
cur table: 1903
epoch: 1000
next table: 1315
cur table: 2118
epoch: 1000
next table: 1333
cur table: 1315
epoch: 1000
next table: 1554
cur table: 1333
epoch: 1000
next table: 2198
cur table: 1554
epoch: 1000
next table: 2304
cur table: 2540
epoch: 1000
next table: 1207
cur table: 2198
epoch: 1000
next table: 1729
cur table: 1207
epoch: 1000
next table: 1347
cur table: 2304
epoch: 1000
next table: 1583
cur table: 1729
epoch: 1000
next table: 1892
cur table: 1583
epoch: 1000
next table: 1931
cur table: 1347
epoch: 1000
next table: 1718
cur table: 1892
epoch: 1000
next table: 1733
cur table: 1718
epoch: 1000
next table: 1796
cur table: 1733
epoch: 1000
next table: 2020
cur table: 1796
epoch: 1000
next table: 1844
cur table: 2020
epoch: 1000
next table: 2648
cur table: 1931
epoch: 1000
next table: 1717
cur table: 1844
epoch: 1000
next table: 1793
cur table: 1717
epoch: 1000
next table: 1690
cur table: 1793
epoch: 1000
next table: 1336
cur table: 1690
epoch: 1000
next table: 2280
cur table: 2648
epoch: 1000
next table: 1518
cur table: 1336
epoch: 1000
next table: 1384
cur table: 1518
epoch: 1000
next table: 2117
cur table: 1384
epoch: 1000
next table: 1941
cur table: 2280
epoch: 1000
next table: 1485
cur table: 2117
epoch: 1000
next table: 1494
cur table: 1485
epoch: 1000
next table: 1644
cur table: 1941
epoch: 1000
next table: 1696
cur table: 1494
epoch: 1000
next table: 1971
cur table: 1696
Heartbeat CPU 0 instructions: 40000003 cycles: 11990068 heartbeat IPC: 3.33607 cumulative IPC: 3.33609 (Simulation time: 0 hr 25 min 54 sec) 
epoch: 1000
next table: 1548
cur table: 1971
epoch: 1000
next table: 1938
cur table: 1644
epoch: 1000
next table: 2015
cur table: 1548
epoch: 1000
next table: 1656
cur table: 2015
epoch: 1000
next table: 1907
cur table: 1656
epoch: 1000
next table: 1880
cur table: 1907
epoch: 1000
next table: 1699
cur table: 1880
epoch: 1000
next table: 1853
cur table: 1699
epoch: 1000
next table: 2988
cur table: 1938
epoch: 1000
next table: 1587
cur table: 1853
epoch: 1000
next table: 1318
cur table: 1587
epoch: 1000
next table: 1488
cur table: 1318
epoch: 1000
next table: 2147
cur table: 2988
epoch: 1000
next table: 1409
cur table: 1488
epoch: 1000
next table: 2080
cur table: 1409
epoch: 1000
next table: 1505
cur table: 2080
epoch: 1000
next table: 1596
cur table: 2147
epoch: 1000
next table: 1572
cur table: 1505
epoch: 1000
next table: 1821
cur table: 1572
epoch: 1000
next table: 1666
cur table: 1596
epoch: 1000
next table: 1860
cur table: 1821
epoch: 1000
next table: 1700
cur table: 1860
epoch: 1000
next table: 1994
cur table: 1666
epoch: 1000
next table: 1842
cur table: 1700
epoch: 1000
next table: 1700
cur table: 1842
epoch: 1000
next table: 1782
cur table: 1700
epoch: 1000
next table: 2000
cur table: 1782
epoch: 1000
next table: 1627
cur table: 2000
epoch: 1000
next table: 1977
cur table: 1627
epoch: 1000
next table: 1409
cur table: 1977
epoch: 1000
next table: 3004
cur table: 1994
epoch: 1000
next table: 1274
cur table: 1409
epoch: 1000
next table: 1564
cur table: 1274
epoch: 1000
next table: 1989
cur table: 1564
epoch: 1000
next table: 2308
cur table: 3004
epoch: 1000
next table: 1406
cur table: 1989
epoch: 1000
next table: 1706
cur table: 1406
epoch: 1000
next table: 1346
cur table: 2308
epoch: 1000
next table: 1627
cur table: 1706
epoch: 1000
next table: 1933
cur table: 1627
epoch: 1000
next table: 1986
cur table: 1346
epoch: 1000
next table: 1573
cur table: 1933
epoch: 1000
next table: 1734
cur table: 1573
epoch: 1000
next table: 1964
cur table: 1734
epoch: 1000
next table: 1925
cur table: 1964
epoch: 1000
next table: 1557
cur table: 1925
epoch: 1000
next table: 1904
cur table: 1557
epoch: 1000
next table: 2641
cur table: 1986
epoch: 1000
next table: 1601
cur table: 1904
epoch: 1000
next table: 2036
cur table: 1601
epoch: 1000
next table: 1336
cur table: 2036
epoch: 1000
next table: 1312
cur table: 1336
epoch: 1000
next table: 2411
cur table: 2641
epoch: 1000
next table: 1614
cur table: 1312
epoch: 1000
next table: 2066
cur table: 1614
epoch: 1000
next table: 1320
cur table: 2066
epoch: 1000
next table: 1856
cur table: 2411
epoch: 1000
next table: 1671
cur table: 1320
epoch: 1000
next table: 1682
cur table: 1671
epoch: 1000
next table: 1628
cur table: 1856
epoch: 1000
next table: 1793
cur table: 1682
epoch: 1000
next table: 1548
cur table: 1793
epoch: 1000
next table: 1802
cur table: 1548
epoch: 1000
next table: 1962
cur table: 1628
epoch: 1000
next table: 1976
cur table: 1802
epoch: 1000
next table: 1966
cur table: 1976
epoch: 1000
next table: 1444
cur table: 1966
epoch: 1000
next table: 1914
cur table: 1444
epoch: 1000
next table: 1588
cur table: 1914
epoch: 1000
next table: 2929
cur table: 1962
epoch: 1000
next table: 2028
cur table: 1588
epoch: 1000
next table: 1355
cur table: 2028
epoch: 1000
next table: 1312
cur table: 1355
epoch: 1000
next table: 1594
cur table: 1312
epoch: 1000
next table: 2420
cur table: 2929
epoch: 1000
next table: 2169
cur table: 1594
epoch: 1000
next table: 1246
cur table: 2169
epoch: 1000
next table: 1340
cur table: 2420
epoch: 1000
next table: 1724
cur table: 1246
epoch: 1000
next table: 1581
cur table: 1724
epoch: 1000
next table: 1702
cur table: 1340
epoch: 1000
next table: 1866
cur table: 1581
epoch: 1000
next table: 1691
cur table: 1866
epoch: 1000
next table: 1693
cur table: 1691
epoch: 1000
next table: 1863
cur table: 1693
epoch: 1000
next table: 2246
cur table: 1702
epoch: 1000
next table: 1977
cur table: 1863
epoch: 1000
next table: 1446
cur table: 1977
epoch: 1000
next table: 1930
cur table: 1446
epoch: 1000
next table: 1588
cur table: 1930
epoch: 1000
next table: 1978
cur table: 1588
epoch: 1000
next table: 1402
cur table: 1978
epoch: 1000
next table: 1277
cur table: 1402
epoch: 1000
next table: 2999
cur table: 2246
epoch: 1000
next table: 1582
cur table: 1277
epoch: 1000
next table: 2007
cur table: 1582
epoch: 1000
next table: 2005
cur table: 2999
epoch: 1000
next table: 1437
cur table: 2007
epoch: 1000
next table: 1693
cur table: 1437
epoch: 1000
next table: 1439
cur table: 2005
epoch: 1000
next table: 1483
cur table: 1693
epoch: 1000
next table: 1906
cur table: 1483
epoch: 1000
next table: 1638
cur table: 1906
epoch: 1000
next table: 2185
cur table: 1439
epoch: 1000
next table: 1739
cur table: 1638
epoch: 1000
next table: 1945
cur table: 1739
epoch: 1000
next table: 1855
cur table: 1945
epoch: 1000
next table: 1693
cur table: 1855
epoch: 1000
next table: 1843
cur table: 1693
epoch: 1000
next table: 2568
cur table: 2185
epoch: 1000
next table: 1554
cur table: 1843
epoch: 1000
next table: 2138
cur table: 1554
epoch: 1000
next table: 1345
cur table: 2138
epoch: 1000
next table: 1382
cur table: 1345
epoch: 1000
next table: 1471
cur table: 1382
epoch: 1000
next table: 2352
cur table: 2568
epoch: 1000
next table: 2188
cur table: 1471
epoch: 1000
next table: 1296
cur table: 2188
epoch: 1000
next table: 1651
cur table: 2352
epoch: 1000
next table: 1661
cur table: 1296
epoch: 1000
next table: 1624
cur table: 1661
epoch: 1000
next table: 1667
cur table: 1651
epoch: 1000
next table: 2017
cur table: 1624
epoch: 1000
next table: 1572
cur table: 2017
epoch: 1000
next table: 2026
cur table: 1572
epoch: 1000
next table: 2041
cur table: 1667
epoch: 1000
next table: 1583
cur table: 2026
epoch: 1000
next table: 1947
cur table: 1583
epoch: 1000
next table: 1846
cur table: 1947
epoch: 1000
next table: 1641
cur table: 1846
epoch: 1000
next table: 1895
cur table: 1641
epoch: 1000
next table: 1621
cur table: 1895
epoch: 1000
next table: 2897
cur table: 2041
epoch: 1000
next table: 1277
cur table: 1621
epoch: 1000
next table: 1558
cur table: 1277
epoch: 1000
next table: 1539
cur table: 1558
epoch: 1000
next table: 2323
cur table: 2897
epoch: 1000
next table: 1913
cur table: 1539
epoch: 1000
next table: 1589
cur table: 1913
epoch: 1000
next table: 1345
cur table: 2323
epoch: 1000
next table: 1463
cur table: 1589
epoch: 1000
next table: 1828
cur table: 1463
epoch: 1000
next table: 1971
cur table: 1345
epoch: 1000
next table: 1847
cur table: 1828
epoch: 1000
next table: 1698
cur table: 1847
epoch: 1000
next table: 1884
cur table: 1698
epoch: 1000
next table: 1679
cur table: 1884
epoch: 1000
next table: 1812
cur table: 1679
epoch: 1000
next table: 2577
cur table: 1971
epoch: 1000
next table: 2033
cur table: 1812
epoch: 1000
next table: 1613
cur table: 2033
epoch: 1000
next table: 2099
cur table: 1613
epoch: 1000
next table: 1365
cur table: 2099
epoch: 1000
next table: 1344
cur table: 1365
epoch: 1000
next table: 2398
cur table: 2577
epoch: 1000
next table: 1525
cur table: 1344
epoch: 1000
next table: 2207
cur table: 1525
epoch: 1000
next table: 1876
cur table: 2398
epoch: 1000
next table: 1226
cur table: 2207
epoch: 1000
next table: 1734
cur table: 1226
epoch: 1000
next table: 1633
cur table: 1876
epoch: 1000
next table: 1650
cur table: 1734
epoch: 1000
next table: 2010
cur table: 1650
Heartbeat CPU 0 instructions: 50000002 cycles: 14989651 heartbeat IPC: 3.3338 cumulative IPC: 3.33563 (Simulation time: 0 hr 31 min 36 sec) 

Warmup complete CPU 0 instructions: 50000002 cycles: 14989651 (Simulation time: 0 hr 31 min 36 sec) 

epoch: 1000
next table: 2021
cur table: 1508
epoch: 1000
next table: 1662
cur table: 2021
epoch: 1000
next table: 1809
cur table: 1662
epoch: 1000
next table: 1666
cur table: 1809
epoch: 1000
next table: 1747
cur table: 1666
epoch: 1000
next table: 1718
cur table: 1747
epoch: 1000
next table: 1925
cur table: 1718
epoch: 1000
next table: 2675
cur table: 1954
epoch: 1000
next table: 1308
cur table: 1925
epoch: 1000
next table: 1222
cur table: 1308
epoch: 1000
next table: 1642
cur table: 1222
epoch: 1000
next table: 1371
cur table: 1642
epoch: 1000
next table: 2319
cur table: 2675
epoch: 1000
next table: 2090
cur table: 1371
epoch: 1000
next table: 1580
cur table: 2090
epoch: 1000
next table: 1323
cur table: 2319
epoch: 1000
next table: 1521
cur table: 1580
epoch: 1000
next table: 1722
cur table: 1521
epoch: 1000
next table: 1663
cur table: 1323
epoch: 1000
next table: 1985
cur table: 1722
epoch: 1000
next table: 1459
cur table: 1985
epoch: 1000
next table: 2013
cur table: 1459
epoch: 1000
next table: 1604
cur table: 2013
epoch: 1000
next table: 2245
cur table: 1663
epoch: 1000
next table: 1846
cur table: 1604
epoch: 1000
next table: 1925
cur table: 1846
epoch: 1000
next table: 1616
cur table: 1925
epoch: 1000
next table: 1721
cur table: 1616
epoch: 1000
next table: 1824
cur table: 1721
epoch: 1000
next table: 2827
cur table: 2245
epoch: 1000
next table: 1285
cur table: 1824
epoch: 1000
next table: 1133
cur table: 1285
epoch: 1000
next table: 1458
cur table: 1133
epoch: 1000
next table: 1374
cur table: 1458
epoch: 1000
next table: 2149
cur table: 1374
epoch: 1000
next table: 2266
cur table: 2827
epoch: 1000
next table: 1450
cur table: 2149
epoch: 1000
next table: 1342
cur table: 2266
epoch: 1000
next table: 1581
cur table: 1450
epoch: 1000
next table: 1654
cur table: 1581
epoch: 1000
next table: 2097
cur table: 1654
epoch: 1000
next table: 1979
cur table: 1342
epoch: 1000
next table: 1583
cur table: 2097
epoch: 1000
next table: 1908
cur table: 1583
epoch: 1000
next table: 1573
cur table: 1908
epoch: 1000
next table: 2015
cur table: 1573
epoch: 1000
next table: 1433
cur table: 2015
epoch: 1000
next table: 2601
cur table: 1979
epoch: 1000
next table: 1897
cur table: 1433
epoch: 1000
next table: 1570
cur table: 1897
epoch: 1000
next table: 2028
cur table: 1570
epoch: 1000
next table: 1402
cur table: 2028
epoch: 1000
next table: 1134
cur table: 1402
epoch: 1000
next table: 2434
cur table: 2601
epoch: 1000
next table: 1440
cur table: 1134
epoch: 1000
next table: 1385
cur table: 1440
epoch: 1000
next table: 2130
cur table: 1385
epoch: 1000
next table: 1926
cur table: 2434
epoch: 1000
next table: 1462
cur table: 2130
epoch: 1000
next table: 1605
cur table: 1462
epoch: 1000
next table: 1629
cur table: 1926
epoch: 1000
next table: 1643
cur table: 1605
epoch: 1000
next table: 2047
cur table: 1643
epoch: 1000
next table: 1515
cur table: 2047
epoch: 1000
next table: 1894
cur table: 1629
epoch: 1000
next table: 2018
cur table: 1515
epoch: 1000
next table: 1597
cur table: 2018
epoch: 1000
next table: 1834
cur table: 1597
epoch: 1000
next table: 1797
cur table: 1834
epoch: 1000
next table: 1796
cur table: 1797
epoch: 1000
next table: 2675
cur table: 1894
epoch: 1000
next table: 1685
cur table: 1796
epoch: 1000
next table: 1876
cur table: 1685
epoch: 1000
next table: 1277
cur table: 1876
epoch: 1000
next table: 1126
cur table: 1277
epoch: 1000
next table: 1518
cur table: 1126
epoch: 1000
next table: 2376
cur table: 2675
epoch: 1000
next table: 1764
cur table: 1518
epoch: 1000
next table: 1686
cur table: 1764
epoch: 1000
next table: 1679
cur table: 2376
epoch: 1000
next table: 1609
cur table: 1686
epoch: 1000
next table: 1476
cur table: 1609
epoch: 1000
next table: 1755
cur table: 1476
epoch: 1000
next table: 1672
cur table: 1679
epoch: 1000
next table: 1998
cur table: 1755
epoch: 1000
next table: 1574
cur table: 1998
epoch: 1000
next table: 2078
cur table: 1672
epoch: 1000
next table: 1911
cur table: 1574
epoch: 1000
next table: 1673
cur table: 1911
epoch: 1000
next table: 1853
cur table: 1673
epoch: 1000
next table: 1846
cur table: 1853
epoch: 1000
next table: 1781
cur table: 1846
epoch: 1000
next table: 1749
cur table: 1781
epoch: 1000
next table: 1735
cur table: 1749
epoch: 1000
next table: 2978
cur table: 2078
epoch: 1000
next table: 1258
cur table: 1735
epoch: 1000
next table: 1118
cur table: 1258
epoch: 1000
next table: 1516
cur table: 1118
epoch: 1000
next table: 1530
cur table: 1516
epoch: 1000
next table: 2298
cur table: 2978
epoch: 1000
next table: 2015
cur table: 1530
epoch: 1000
next table: 1634
cur table: 2015
epoch: 1000
next table: 1337
cur table: 2298
epoch: 1000
next table: 1460
cur table: 1634
epoch: 1000
next table: 1857
cur table: 1460
epoch: 1000
next table: 1855
cur table: 1857
epoch: 1000
next table: 1941
cur table: 1337
epoch: 1000
next table: 1698
cur table: 1855
epoch: 1000
next table: 1899
cur table: 1698
epoch: 1000
next table: 1654
cur table: 1899
epoch: 1000
next table: 1800
cur table: 1654
epoch: 1000
next table: 1851
cur table: 1800
epoch: 1000
next table: 2680
cur table: 1941
epoch: 1000
next table: 1664
cur table: 1851
epoch: 1000
next table: 1796
cur table: 1664
epoch: 1000
next table: 1712
cur table: 1796
epoch: 1000
next table: 1272
cur table: 1712
epoch: 1000
next table: 1118
cur table: 1272
epoch: 1000
next table: 2313
cur table: 2680
epoch: 1000
next table: 1459
cur table: 1118
epoch: 1000
next table: 1378
cur table: 1459
epoch: 1000
next table: 2138
cur table: 1378
epoch: 1000
next table: 1968
cur table: 2313
epoch: 1000
next table: 1535
cur table: 2138
epoch: 1000
next table: 1561
cur table: 1535
epoch: 1000
next table: 1430
cur table: 1968
epoch: 1000
next table: 1697
cur table: 1561
epoch: 1000
next table: 2029
cur table: 1697
epoch: 1000
next table: 1483
cur table: 2029
epoch: 1000
next table: 2220
cur table: 1430
epoch: 1000
next table: 2037
cur table: 1483
epoch: 1000
next table: 1601
cur table: 2037
epoch: 1000
next table: 1838
cur table: 1601
epoch: 1000
next table: 1989
cur table: 1838
epoch: 1000
next table: 1676
cur table: 1989
epoch: 1000
next table: 2638
cur table: 2220
epoch: 1000
next table: 1746
cur table: 1676
epoch: 1000
next table: 1730
cur table: 1746
epoch: 1000
next table: 1271
cur table: 1730
epoch: 1000
next table: 1119
cur table: 1271
epoch: 1000
next table: 1549
cur table: 1119
epoch: 1000
next table: 2477
cur table: 2638
epoch: 1000
next table: 1966
cur table: 1549
epoch: 1000
next table: 1501
cur table: 1966
epoch: 1000
next table: 1601
cur table: 2477
epoch: 1000
next table: 1744
cur table: 1501
epoch: 1000
next table: 1351
cur table: 1744
epoch: 1000
next table: 1624
cur table: 1601
epoch: 1000
next table: 1899
cur table: 1351
epoch: 1000
next table: 1891
cur table: 1899
epoch: 1000
next table: 1701
cur table: 1891
epoch: 1000
next table: 2157
cur table: 1624
epoch: 1000
next table: 1799
cur table: 1701
epoch: 1000
next table: 1656
cur table: 1799
epoch: 1000
next table: 1802
cur table: 1656
epoch: 1000
next table: 1711
cur table: 1802
epoch: 1000
next table: 1763
cur table: 1711
epoch: 1000
next table: 1673
cur table: 1763
epoch: 1000
next table: 1916
cur table: 1673
epoch: 1000
next table: 3014
cur table: 2157
epoch: 1000
next table: 1279
cur table: 1916
epoch: 1000
next table: 1120
cur table: 1279
epoch: 1000
next table: 1533
cur table: 1120
epoch: 1000
next table: 1763
cur table: 1533
epoch: 1000
next table: 2339
cur table: 3014
epoch: 1000
next table: 1702
cur table: 1763
epoch: 1000
next table: 1622
cur table: 1702
epoch: 1000
next table: 1352
cur table: 2339
epoch: 1000
next table: 1519
cur table: 1622
epoch: 1000
next table: 1898
cur table: 1519
epoch: 1000
next table: 1979
cur table: 1352
epoch: 1000
next table: 1859
cur table: 1898
Heartbeat CPU 0 instructions: 60000000 cycles: 27600972 heartbeat IPC: 0.792938 cumulative IPC: 0.792938 (Simulation time: 0 hr 36 min 58 sec) 
epoch: 1000
next table: 1703
cur table: 1859
epoch: 1000
next table: 1877
cur table: 1703
epoch: 1000
next table: 1848
cur table: 1877
epoch: 1000
next table: 1588
cur table: 1848
epoch: 1000
next table: 2281
cur table: 1979
epoch: 1000
next table: 1947
cur table: 1588
epoch: 1000
next table: 1671
cur table: 1947
epoch: 1000
next table: 1908
cur table: 1671
epoch: 1000
next table: 1573
cur table: 1908
epoch: 1000
next table: 1181
cur table: 1573
epoch: 1000
next table: 1143
cur table: 1181
epoch: 1000
next table: 2602
cur table: 2281
epoch: 1000
next table: 1557
cur table: 1143
epoch: 1000
next table: 1942
cur table: 1557
epoch: 1000
next table: 2029
cur table: 2602
epoch: 1000
next table: 1504
cur table: 1942
epoch: 1000
next table: 1710
cur table: 1504
epoch: 1000
next table: 1431
cur table: 2029
epoch: 1000
next table: 1528
cur table: 1710
epoch: 1000
next table: 1964
cur table: 1528
epoch: 1000
next table: 1665
cur table: 1964
epoch: 1000
next table: 2081
cur table: 1431
epoch: 1000
next table: 1716
cur table: 1665
epoch: 1000
next table: 1939
cur table: 1716
epoch: 1000
next table: 1830
cur table: 1939
epoch: 1000
next table: 1508
cur table: 1830
epoch: 1000
next table: 1952
cur table: 1508
epoch: 1000
next table: 2515
cur table: 2081
epoch: 1000
next table: 1697
cur table: 1952
epoch: 1000
next table: 1931
cur table: 1697
epoch: 1000
next table: 1510
cur table: 1931
epoch: 1000
next table: 1182
cur table: 1510
epoch: 1000
next table: 1206
cur table: 1182
epoch: 1000
next table: 2474
cur table: 2515
epoch: 1000
next table: 1540
cur table: 1206
epoch: 1000
next table: 2017
cur table: 1540
epoch: 1000
next table: 1439
cur table: 2017
epoch: 1000
next table: 1875
cur table: 2474
epoch: 1000
next table: 1663
cur table: 1439
epoch: 1000
next table: 1368
cur table: 1875
epoch: 1000
next table: 1545
cur table: 1663
epoch: 1000
next table: 1917
cur table: 1545
epoch: 1000
next table: 1724
cur table: 1917
epoch: 1000
next table: 2055
cur table: 1368
epoch: 1000
next table: 1680
cur table: 1724
epoch: 1000
next table: 1886
cur table: 1680
epoch: 1000
next table: 1642
cur table: 1886
epoch: 1000
next table: 1770
cur table: 1642
epoch: 1000
next table: 1905
cur table: 1770
epoch: 1000
next table: 2530
cur table: 2055
epoch: 1000
next table: 1658
cur table: 1905
epoch: 1000
next table: 1732
cur table: 1658
epoch: 1000
next table: 1839
cur table: 1732
epoch: 1000
next table: 1185
cur table: 1839
epoch: 1000
next table: 1108
cur table: 1185
epoch: 1000
next table: 2590
cur table: 2530
epoch: 1000
next table: 1533
cur table: 1108
epoch: 1000
next table: 1953
cur table: 1533
epoch: 1000
next table: 1504
cur table: 1953
epoch: 1000
next table: 1786
cur table: 2590
epoch: 1000
next table: 1668
cur table: 1504
epoch: 1000
next table: 1547
cur table: 1668
epoch: 1000
next table: 1543
cur table: 1786
epoch: 1000
next table: 1915
cur table: 1547
epoch: 1000
next table: 1721
cur table: 1915
epoch: 1000
next table: 1998
cur table: 1543
epoch: 1000
next table: 1713
cur table: 1721
epoch: 1000
next table: 1930
cur table: 1713
epoch: 1000
next table: 1562
cur table: 1930
epoch: 1000
next table: 1753
cur table: 1562
epoch: 1000
next table: 1885
cur table: 1753
epoch: 1000
next table: 1650
cur table: 1885
epoch: 1000
next table: 2554
cur table: 1998
epoch: 1000
next table: 1755
cur table: 1650
epoch: 1000
next table: 1828
cur table: 1755
epoch: 1000
next table: 1190
cur table: 1828
epoch: 1000
next table: 1119
cur table: 1190
epoch: 1000
next table: 1538
cur table: 1119
epoch: 1000
next table: 2593
cur table: 2554
epoch: 1000
next table: 1996
cur table: 1538
epoch: 1000
next table: 1474
cur table: 1996
epoch: 1000
next table: 1645
cur table: 2593
epoch: 1000
next table: 1684
cur table: 1474
epoch: 1000
next table: 1460
cur table: 1684
epoch: 1000
next table: 1592
cur table: 1645
epoch: 1000
next table: 1931
cur table: 1460
epoch: 1000
next table: 1827
cur table: 1931
epoch: 1000
next table: 1682
cur table: 1827
epoch: 1000
next table: 1963
cur table: 1592
epoch: 1000
next table: 1930
cur table: 1682
epoch: 1000
next table: 1637
cur table: 1930
epoch: 1000
next table: 1748
cur table: 1637
epoch: 1000
next table: 1983
cur table: 1748
epoch: 1000
next table: 1660
cur table: 1983
epoch: 1000
next table: 2622
cur table: 1963
epoch: 1000
next table: 1896
cur table: 1660
epoch: 1000
next table: 1594
cur table: 1896
epoch: 1000
next table: 1181
cur table: 1594
epoch: 1000
next table: 1236
cur table: 1181
epoch: 1000
next table: 1522
cur table: 1236
epoch: 1000
next table: 2597
cur table: 2622
epoch: 1000
next table: 2204
cur table: 1522
epoch: 1000
next table: 1269
cur table: 2204
epoch: 1000
next table: 1638
cur table: 2597
epoch: 1000
next table: 1749
cur table: 1269
epoch: 1000
next table: 1670
cur table: 1749
epoch: 1000
next table: 1494
cur table: 1638
epoch: 1000
next table: 1906
cur table: 1670
epoch: 1000
next table: 1572
cur table: 1906
epoch: 1000
next table: 1955
cur table: 1494
epoch: 1000
next table: 1787
cur table: 1572
epoch: 1000
next table: 1918
cur table: 1787
epoch: 1000
next table: 1983
cur table: 1918
epoch: 1000
next table: 1397
cur table: 1983
epoch: 1000
next table: 1946
cur table: 1397
epoch: 1000
next table: 1591
cur table: 1946
epoch: 1000
next table: 2569
cur table: 1955
epoch: 1000
next table: 2014
cur table: 1591
epoch: 1000
next table: 1489
cur table: 2014
epoch: 1000
next table: 1134
cur table: 1489
epoch: 1000
next table: 1495
cur table: 1134
epoch: 1000
next table: 1535
cur table: 1495
epoch: 1000
next table: 2975
cur table: 2569
epoch: 1000
next table: 1952
cur table: 1535
epoch: 1000
next table: 1720
cur table: 1952
epoch: 1000
next table: 1305
cur table: 2975
epoch: 1000
next table: 1445
cur table: 1720
epoch: 1000
next table: 1478
cur table: 1305
epoch: 1000
next table: 1989
cur table: 1445
epoch: 1000
next table: 1794
cur table: 1989
epoch: 1000
next table: 1716
cur table: 1794
epoch: 1000
next table: 2076
cur table: 1478
epoch: 1000
next table: 1943
cur table: 1716
epoch: 1000
next table: 1943
cur table: 1943
epoch: 1000
next table: 1386
cur table: 1943
epoch: 1000
next table: 1998
cur table: 1386
epoch: 1000
next table: 1648
cur table: 1998
epoch: 1000
next table: 1949
cur table: 1648
epoch: 1000
next table: 3029
cur table: 2076
epoch: 1000
next table: 1532
cur table: 1949
epoch: 1000
next table: 1146
cur table: 1532
epoch: 1000
next table: 1375
cur table: 1146
epoch: 1000
next table: 1372
cur table: 1375
epoch: 1000
next table: 2198
cur table: 1372
epoch: 1000
next table: 2305
cur table: 3029
epoch: 1000
next table: 1358
cur table: 2198
epoch: 1000
next table: 1286
cur table: 2305
epoch: 1000
next table: 1643
cur table: 1358
epoch: 1000
next table: 1656
cur table: 1643
epoch: 1000
next table: 1503
cur table: 1286
epoch: 1000
next table: 2089
cur table: 1656
epoch: 1000
next table: 1602
cur table: 2089
epoch: 1000
next table: 1819
cur table: 1602
epoch: 1000
next table: 2048
cur table: 1503
epoch: 1000
next table: 1818
cur table: 1819
epoch: 1000
next table: 1869
cur table: 1818
epoch: 1000
next table: 1660
cur table: 1869
epoch: 1000
next table: 2000
cur table: 1660
epoch: 1000
next table: 1854
cur table: 2000
epoch: 1000
next table: 1705
cur table: 1854
epoch: 1000
next table: 1200
cur table: 1705
epoch: 1000
next table: 3307
cur table: 2048
epoch: 1000
next table: 1350
cur table: 1200
epoch: 1000
next table: 1417
cur table: 1350
epoch: 1000
next table: 2139
cur table: 1417
epoch: 1000
next table: 2120
cur table: 3307
epoch: 1000
next table: 1675
cur table: 2139
epoch: 1000
next table: 1853
cur table: 1675
epoch: 1000
next table: 1689
cur table: 2120
epoch: 1000
next table: 1763
cur table: 1853
Heartbeat CPU 0 instructions: 70000002 cycles: 40051076 heartbeat IPC: 0.803206 cumulative IPC: 0.798039 (Simulation time: 0 hr 42 min 6 sec) 
epoch: 1000
next table: 1848
cur table: 1763
epoch: 1000
next table: 1679
cur table: 1848
epoch: 1000
next table: 1762
cur table: 1679
epoch: 1000
next table: 1999
cur table: 1762
epoch: 1000
next table: 2489
cur table: 1689
epoch: 1000
next table: 1586
cur table: 1999
epoch: 1000
next table: 2145
cur table: 1586
epoch: 1000
next table: 1267
cur table: 2145
epoch: 1000
next table: 1118
cur table: 1267
epoch: 1000
next table: 1518
cur table: 1118
epoch: 1000
next table: 2524
cur table: 2489
epoch: 1000
next table: 1553
cur table: 1518
epoch: 1000
next table: 2661
cur table: 1553
epoch: 1000
next table: 1737
cur table: 2524
epoch: 1000
next table: 3276
cur table: 2661
epoch: 1000
next table: 1529
cur table: 1737
epoch: 1000
next table: 3567
cur table: 3276
epoch: 1000
next table: 1476
cur table: 1529
epoch: 1000
next table: 3584
cur table: 3567
epoch: 1000
next table: 1561
cur table: 1476
epoch: 1000
next table: 3240
cur table: 3584
epoch: 1000
next table: 1487
cur table: 1561
epoch: 1000
next table: 3530
cur table: 3240
epoch: 1000
next table: 1512
cur table: 1487
epoch: 1000
next table: 3339
cur table: 3530
epoch: 1000
next table: 1535
cur table: 1512
epoch: 1000
next table: 3549
cur table: 3339
epoch: 1000
next table: 1475
cur table: 1535
epoch: 1000
next table: 3588
cur table: 3549
epoch: 1000
next table: 1542
cur table: 1475
epoch: 1000
next table: 3276
cur table: 3588
epoch: 1000
next table: 1508
cur table: 1542
epoch: 1000
next table: 3567
cur table: 3276
epoch: 1000
next table: 1492
cur table: 1508
epoch: 1000
next table: 3263
cur table: 3567
epoch: 1000
next table: 1552
cur table: 1492
epoch: 1000
next table: 3570
cur table: 3263
epoch: 1000
next table: 1486
cur table: 1552
epoch: 1000
next table: 1985
cur table: 3570
epoch: 1000
next table: 1368
cur table: 1486
epoch: 1000
next table: 1386
cur table: 1985
epoch: 1000
next table: 1351
cur table: 1368
epoch: 1000
next table: 1413
cur table: 1386
epoch: 1000
next table: 1488
cur table: 1413
epoch: 1000
next table: 1359
cur table: 1351
epoch: 1000
next table: 1443
cur table: 1488
epoch: 1000
next table: 1370
cur table: 1359
epoch: 1000
next table: 1449
cur table: 1443
epoch: 1000
next table: 1355
cur table: 1370
epoch: 1000
next table: 1459
cur table: 1449
epoch: 1000
next table: 1441
cur table: 1459
epoch: 1000
next table: 1348
cur table: 1355
epoch: 1000
next table: 1462
cur table: 1441
epoch: 1000
next table: 1344
cur table: 1348
epoch: 1000
next table: 1417
cur table: 1462
epoch: 1000
next table: 1343
cur table: 1344
epoch: 1000
next table: 1520
cur table: 1417
epoch: 1000
next table: 1455
cur table: 1520
epoch: 1000
next table: 1358
cur table: 1343
epoch: 1000
next table: 1498
cur table: 1455
epoch: 1000
next table: 1358
cur table: 1358
epoch: 1000
next table: 1487
cur table: 1498
epoch: 1000
next table: 1087
cur table: 1487
epoch: 1000
next table: 1062
cur table: 1087
epoch: 1000
next table: 1913
cur table: 1358
epoch: 1000
next table: 1955
cur table: 1062
epoch: 1000
next table: 2003
cur table: 1913
epoch: 1000
next table: 2014
cur table: 1955
epoch: 1000
next table: 1991
cur table: 2003
epoch: 1000
next table: 2011
cur table: 2014
epoch: 1000
next table: 1716
cur table: 2011
epoch: 1000
next table: 1954
cur table: 1991
epoch: 1000
next table: 1420
cur table: 1716
epoch: 1000
next table: 1303
cur table: 1954
epoch: 1000
next table: 1477
cur table: 1420
epoch: 1000
next table: 1322
cur table: 1303
epoch: 1000
next table: 1515
cur table: 1477
epoch: 1000
next table: 1292
cur table: 1322
epoch: 1000
next table: 1575
cur table: 1515
epoch: 1000
next table: 1413
cur table: 1575
epoch: 1000
next table: 1281
cur table: 1292
epoch: 1000
next table: 1587
cur table: 1413
epoch: 1000
next table: 1281
cur table: 1281
epoch: 1000
next table: 1517
cur table: 1587
epoch: 1000
next table: 1514
cur table: 1517
epoch: 1000
next table: 1299
cur table: 1281
epoch: 1000
next table: 1549
cur table: 1514
epoch: 1000
next table: 1280
cur table: 1299
epoch: 1000
next table: 1414
cur table: 1549
epoch: 1000
next table: 1302
cur table: 1280
epoch: 1000
next table: 1548
cur table: 1414
epoch: 1000
next table: 1474
cur table: 1548
epoch: 1000
next table: 1322
cur table: 1302
epoch: 1000
next table: 1521
cur table: 1474
epoch: 1000
next table: 1316
cur table: 1322
epoch: 1000
next table: 1468
cur table: 1521
epoch: 1000
next table: 1292
cur table: 1316
epoch: 1000
next table: 1499
cur table: 1468
Heartbeat CPU 0 instructions: 80000000 cycles: 52361294 heartbeat IPC: 0.812333 cumulative IPC: 0.802748 (Simulation time: 0 hr 47 min 0 sec) 
epoch: 1000
next table: 1585
cur table: 1499
epoch: 1000
next table: 1286
cur table: 1292
epoch: 1000
next table: 1409
cur table: 1585
epoch: 1000
next table: 1295
cur table: 1286
epoch: 1000
next table: 1576
cur table: 1409
epoch: 1000
next table: 1475
cur table: 1576
epoch: 1000
next table: 1300
cur table: 1295
epoch: 1000
next table: 1545
cur table: 1475
epoch: 1000
next table: 1309
cur table: 1300
epoch: 1000
next table: 1494
cur table: 1545
epoch: 1000
next table: 1305
cur table: 1309
epoch: 1000
next table: 1482
cur table: 1494
epoch: 1000
next table: 1566
cur table: 1482
epoch: 1000
next table: 1281
cur table: 1305
epoch: 1000
next table: 1441
cur table: 1566
epoch: 1000
next table: 1269
cur table: 1281
epoch: 1000
next table: 1595
cur table: 1441
epoch: 1000
next table: 1274
cur table: 1269
epoch: 1000
next table: 1397
cur table: 1595
epoch: 1000
next table: 1272
cur table: 1274
epoch: 1000
next table: 1574
cur table: 1397
epoch: 1000
next table: 1476
cur table: 1574
epoch: 1000
next table: 1265
cur table: 1272
epoch: 1000
next table: 1506
cur table: 1476
epoch: 1000
next table: 1271
cur table: 1265
epoch: 1000
next table: 1487
cur table: 1506
epoch: 1000
next table: 1210
cur table: 1271
epoch: 1000
next table: 1450
cur table: 1487
epoch: 1000
next table: 1247
cur table: 1210
epoch: 1000
next table: 1541
cur table: 1450
epoch: 1000
next table: 1431
cur table: 1541
epoch: 1000
next table: 1286
cur table: 1247
epoch: 1000
next table: 1544
cur table: 1431
epoch: 1000
next table: 1264
cur table: 1286
epoch: 1000
next table: 1440
cur table: 1544
epoch: 1000
next table: 1207
cur table: 1264
epoch: 1000
next table: 1469
cur table: 1440
epoch: 1000
next table: 1188
cur table: 1207
epoch: 1000
next table: 1510
cur table: 1469
epoch: 1000
next table: 1430
cur table: 1188
epoch: 1000
next table: 1616
cur table: 1510
epoch: 1000
next table: 1756
cur table: 1430
epoch: 1000
next table: 1760
cur table: 1616
epoch: 1000
next table: 2664
cur table: 1760
epoch: 1000
next table: 1280
cur table: 1756
epoch: 1000
next table: 4555
cur table: 2664
epoch: 1000
next table: 1103
cur table: 1280
epoch: 1000
next table: 4708
cur table: 4555
epoch: 1000
next table: 4770
cur table: 4708
epoch: 1000
next table: 1070
cur table: 1103
epoch: 1000
next table: 5545
cur table: 4770
epoch: 1000
next table: 4740
cur table: 5545
epoch: 1000
next table: 1111
cur table: 1070
epoch: 1000
next table: 4725
cur table: 4740
epoch: 1000
next table: 4723
cur table: 4725
epoch: 1000
next table: 1121
cur table: 1111
epoch: 1000
next table: 4849
cur table: 4723
epoch: 1000
next table: 5480
cur table: 4849
epoch: 1000
next table: 1136
cur table: 1121
epoch: 1000
next table: 4764
cur table: 5480
epoch: 1000
next table: 5371
cur table: 4764
epoch: 1000
next table: 1088
cur table: 1136
epoch: 1000
next table: 4712
cur table: 5371
epoch: 1000
next table: 1070
cur table: 1088
epoch: 1000
next table: 5487
cur table: 4712
epoch: 1000
next table: 2259
cur table: 5487
epoch: 1000
next table: 1435
cur table: 1070
Heartbeat CPU 0 instructions: 90000003 cycles: 66508618 heartbeat IPC: 0.706848 cumulative IPC: 0.776413 (Simulation time: 0 hr 52 min 16 sec) 
epoch: 1000
next table: 1975
cur table: 2259
epoch: 1000
next table: 1482
cur table: 1435
epoch: 1000
next table: 5434
cur table: 1975
epoch: 1000
next table: 1145
cur table: 1482
epoch: 1000
next table: 4938
cur table: 5434
epoch: 1000
next table: 1407
cur table: 1145
epoch: 1000
next table: 2003
cur table: 4938
epoch: 1000
next table: 1171
cur table: 1407
epoch: 1000
next table: 2732
cur table: 2003
epoch: 1000
next table: 1846
cur table: 2732
epoch: 1000
next table: 1877
cur table: 1846
epoch: 1000
next table: 1222
cur table: 1171
epoch: 1000
next table: 1898
cur table: 1877
epoch: 1000
next table: 2498
cur table: 1898
epoch: 1000
next table: 1185
cur table: 1222
epoch: 1000
next table: 2693
cur table: 2498
epoch: 1000
next table: 2710
cur table: 2693
epoch: 1000
next table: 1156
cur table: 1185
epoch: 1000
next table: 3556
cur table: 2710
epoch: 1000
next table: 1183
cur table: 1156
epoch: 1000
next table: 3560
cur table: 3556
epoch: 1000
next table: 3554
cur table: 3560
epoch: 1000
next table: 1174
cur table: 1183
epoch: 1000
next table: 4286
cur table: 3554
epoch: 1000
next table: 1157
cur table: 1174
epoch: 1000
next table: 3446
cur table: 4286
epoch: 1000
next table: 3781
cur table: 3446
epoch: 1000
next table: 1149
cur table: 1157
epoch: 1000
next table: 4223
cur table: 3781
epoch: 1000
next table: 1188
cur table: 1149
epoch: 1000
next table: 3737
cur table: 4223
epoch: 1000
next table: 1153
cur table: 1188
epoch: 1000
next table: 4301
cur table: 3737
epoch: 1000
next table: 4394
cur table: 4301
epoch: 1000
next table: 1097
cur table: 1153
epoch: 1000
next table: 4248
cur table: 4394
epoch: 1000
next table: 1141
cur table: 1097
epoch: 1000
next table: 3763
cur table: 4248
epoch: 1000
next table: 3635
cur table: 3763
epoch: 1000
next table: 1204
cur table: 1141
epoch: 1000
next table: 4207
cur table: 3635
epoch: 1000
next table: 2414
cur table: 4207
epoch: 1000
next table: 1768
cur table: 2414
epoch: 1000
next table: 1835
cur table: 1204
epoch: 1000
next table: 3386
cur table: 1768
epoch: 1000
next table: 2012
cur table: 1835
epoch: 1000
next table: 3325
cur table: 3386
epoch: 1000
next table: 1991
cur table: 2012
epoch: 1000
next table: 3620
cur table: 3325
epoch: 1000
next table: 2007
cur table: 1991
epoch: 1000
next table: 3343
cur table: 3620
epoch: 1000
next table: 1992
cur table: 2007
epoch: 1000
next table: 3573
cur table: 3343
epoch: 1000
next table: 1993
cur table: 1992
epoch: 1000
next table: 3312
cur table: 3573
epoch: 1000
next table: 2002
cur table: 1993
epoch: 1000
next table: 3601
cur table: 3312
epoch: 1000
next table: 1999
cur table: 2002
epoch: 1000
next table: 3371
cur table: 3601
epoch: 1000
next table: 2007
cur table: 1999
epoch: 1000
next table: 3588
cur table: 3371
epoch: 1000
next table: 2001
cur table: 2007
epoch: 1000
next table: 3317
cur table: 3588
epoch: 1000
next table: 1999
cur table: 2001
epoch: 1000
next table: 3640
cur table: 3317
epoch: 1000
next table: 2004
cur table: 1999
epoch: 1000
next table: 3359
cur table: 3640
epoch: 1000
next table: 1999
cur table: 2004
epoch: 1000
next table: 3608
cur table: 3359
epoch: 1000
next table: 2011
cur table: 1999
epoch: 1000
next table: 2376
cur table: 3608
epoch: 1000
next table: 1758
cur table: 2376
epoch: 1000
next table: 2000
cur table: 1758
epoch: 1000
next table: 2787
cur table: 2000
epoch: 1000
next table: 3608
cur table: 2011
epoch: 1000
next table: 1313
cur table: 2787
epoch: 1000
next table: 1250
cur table: 3608
epoch: 1000
next table: 1346
cur table: 1313
epoch: 1000
next table: 1415
cur table: 1346
epoch: 1000
next table: 1289
cur table: 1250
epoch: 1000
next table: 1341
cur table: 1415
epoch: 1000
next table: 1289
cur table: 1289
epoch: 1000
next table: 1337
cur table: 1341
epoch: 1000
next table: 1285
cur table: 1289
epoch: 1000
next table: 1367
cur table: 1337
epoch: 1000
next table: 1246
cur table: 1285
epoch: 1000
next table: 1354
cur table: 1367
epoch: 1000
next table: 1339
cur table: 1354
epoch: 1000
next table: 1272
cur table: 1246
epoch: 1000
next table: 1401
cur table: 1339
epoch: 1000
next table: 1232
cur table: 1272
epoch: 1000
next table: 1350
cur table: 1401
epoch: 1000
next table: 1261
cur table: 1232
epoch: 1000
next table: 1341
cur table: 1350
epoch: 1000
next table: 1258
cur table: 1261
epoch: 1000
next table: 1420
cur table: 1341
epoch: 1000
next table: 1266
cur table: 1258
epoch: 1000
next table: 1398
cur table: 1420
epoch: 1000
next table: 1343
cur table: 1398
epoch: 1000
next table: 1251
cur table: 1266
epoch: 1000
next table: 1454
cur table: 1343
Heartbeat CPU 0 instructions: 100000001 cycles: 78847171 heartbeat IPC: 0.810468 cumulative IPC: 0.782993 (Simulation time: 0 hr 58 min 7 sec) 
Finished CPU 0 instructions: 50000003 cycles: 63857526 cumulative IPC: 0.782993 (Simulation time: 0 hr 58 min 7 sec) 

ChampSim completed all CPUs

Region of Interest Statistics

CPU 0 cumulative IPC: 0.782993 instructions: 50000003 cycles: 63857526
ITLB TOTAL     ACCESS:    8485776  HIT:    8484718  MISS:       1058  HIT %:    99.9875  MISS %:  0.0124679   MPKI: 0.02116
ITLB LOAD TRANSLATION ACCESS:    8485776  HIT:    8484718  MISS:       1058  HIT %:    99.9875  MISS %:  0.0124679   MPKI: 0.02116
ITLB PREFETCH  REQUESTED:          0  ISSUED:          0  USEFUL:          0  USELESS:          0
ITLB USEFUL LOAD PREFETCHES:          0 PREFETCH ISSUED TO LOWER LEVEL:          0  ACCURACY: -nan
ITLB TIMELY PREFETCHES:          0 LATE PREFETCHES: 0 DROPPED PREFETCHES: 0
ITLB PREFETCHES SAME FILL-ORIGIN LEVEL: 0 DIFFERENT FILL-ORIGIN LEVEL: 0
ITLB AVERAGE MISS LATENCY: 15.1985 cycles
ITLB RQ	ACCESS:    9647082	FORWARD:          0	MERGED:    1160995	TO_CACHE:    8486087

Revised Interactions: positive negative neutral
ITLB_interactions 0 0 0 -nan -nan -nan
DTLB TOTAL     ACCESS:   10664651  HIT:   10636889  MISS:      27762  HIT %:    99.7397  MISS %:   0.260318   MPKI: 0.55524
DTLB LOAD TRANSLATION ACCESS:   10664651  HIT:   10636889  MISS:      27762  HIT %:    99.7397  MISS %:   0.260318   MPKI: 0.55524
DTLB PREFETCH  REQUESTED:          0  ISSUED:          0  USEFUL:          0  USELESS:          0
DTLB USEFUL LOAD PREFETCHES:          0 PREFETCH ISSUED TO LOWER LEVEL:          0  ACCURACY: -nan
DTLB TIMELY PREFETCHES:          0 LATE PREFETCHES: 0 DROPPED PREFETCHES: 0
DTLB PREFETCHES SAME FILL-ORIGIN LEVEL: 0 DIFFERENT FILL-ORIGIN LEVEL: 0
DTLB AVERAGE MISS LATENCY: 27.7378 cycles
DTLB RQ	ACCESS:   11501583	FORWARD:          0	MERGED:     830136	TO_CACHE:   10671447

Revised Interactions: positive negative neutral
DTLB_interactions 0 0 0 -nan -nan -nan
STLB TOTAL     ACCESS:    1273471  HIT:    1271251  MISS:       2220  HIT %:    99.8257  MISS %:   0.174327   MPKI: 0.0444
STLB LOAD TRANSLATION ACCESS:      28820  HIT:      26600  MISS:       2220  HIT %:     92.297  MISS %:    7.70298   MPKI: 0.0444
STLB TRANSLATION FROM L1D PREFETCHER ACCESS:    1244651  HIT:    1244651  MISS:          0  HIT %:        100  MISS %:          0   MPKI: 0
STLB PREFETCH  REQUESTED:          0  ISSUED:          0  USEFUL:          0  USELESS:          0
STLB USEFUL LOAD PREFETCHES:          0 PREFETCH ISSUED TO LOWER LEVEL:          0  ACCURACY: -nan
STLB TIMELY PREFETCHES:          0 LATE PREFETCHES: 0 DROPPED PREFETCHES: 0
STLB PREFETCHES SAME FILL-ORIGIN LEVEL: 0 DIFFERENT FILL-ORIGIN LEVEL: 0
STLB AVERAGE MISS LATENCY: 234.532 cycles
STLB RQ	ACCESS:    3175791	FORWARD:          0	MERGED:    1902320	TO_CACHE:    1273471

Revised Interactions: positive negative neutral
STLB_interactions 0 0 0 -nan -nan -nan
STLB Hit, L1D data hit: 0
STLB Hit, L2C data hit: 0
STLB Hit, LLC data hit: 0
STLB Hit, LLC data miss: 0
STLB STLB hints to L2: 0
L1D TOTAL     ACCESS:   14135889  HIT:   13096990  MISS:    1038899  HIT %:    92.6506  MISS %:    7.34937   MPKI: 20.778
L1D LOAD      ACCESS:    7821074  HIT:    7741805  MISS:      79269  HIT %:    98.9865  MISS %:    1.01353   MPKI: 1.58538
L1D RFO       ACCESS:    3170338  HIT:    2878864  MISS:     291474  HIT %:    90.8062  MISS %:    9.19378   MPKI: 5.82948
L1D PREFETCH  ACCESS:    3144477  HIT:    2476321  MISS:     668156  HIT %:    78.7514  MISS %:    21.2486   MPKI: 13.3631
L1D PREFETCH  REQUESTED:    6601867  ISSUED:    6294006  USEFUL:     481515  USELESS:     186627
L1D USEFUL LOAD PREFETCHES:     481515 PREFETCH ISSUED TO LOWER LEVEL:     695170  ACCURACY: 69.2658
L1D TIMELY PREFETCHES:     481515 LATE PREFETCHES: 7939 DROPPED PREFETCHES: 0
L1D PREFETCHES SAME FILL-ORIGIN LEVEL: 695170 DIFFERENT FILL-ORIGIN LEVEL: 0
L1D AVERAGE MISS LATENCY: 3630.65 cycles
L1D RQ	ACCESS:   10675465	FORWARD:          0	MERGED:    2806173	TO_CACHE:    7841628
L1D WQ	ACCESS:    3740433	FORWARD:      27686	MERGED:      80478	TO_CACHE:    3659955
L1D PQ	ACCESS:    3147035	FORWARD:          0	MERGED:         42	TO_CACHE:    3146971

Revised Interactions: positive negative neutral
L1D_interactions 0 0 0 -nan -nan -nan
L1D UNIQUE REGIONS ACCESSED: 0
L1D REGIONS CONFLICTS: 0
L1D Cross Page Prefetch Requests: 0
L1D Same Page Prefetch Requests: 7672386
L1D ROI Sum of L1D PQ occupancy: 45422696
L1D PREFETCHES PUSHED FROM L2C: 0
L1I TOTAL     ACCESS:    9637567  HIT:    9612769  MISS:      24798  HIT %:    99.7427  MISS %:   0.257306   MPKI: 0.49596
L1I LOAD      ACCESS:    9637567  HIT:    9612769  MISS:      24798  HIT %:    99.7427  MISS %:   0.257306   MPKI: 0.49596
L1I PREFETCH  REQUESTED:          0  ISSUED:          0  USEFUL:          0  USELESS:          0
L1I USEFUL LOAD PREFETCHES:          0 PREFETCH ISSUED TO LOWER LEVEL:          0  ACCURACY: -nan
L1I TIMELY PREFETCHES:          0 LATE PREFETCHES: 0 DROPPED PREFETCHES: 0
L1I PREFETCHES SAME FILL-ORIGIN LEVEL: 0 DIFFERENT FILL-ORIGIN LEVEL: 0
L1I AVERAGE MISS LATENCY: 52.1455 cycles
L1I RQ	ACCESS:   14410088	FORWARD:          0	MERGED:    4763006	TO_CACHE:    9647082

Revised Interactions: positive negative neutral
L1I_interactions 0 0 0 -nan -nan -nan
BTB TOTAL     ACCESS:    5842895  HIT:    5825323  MISS:      17572  HIT %:    99.6993  MISS %:   0.300741   MPKI: 0.35144
BTB BRANCH_DIRECT_JUMP	ACCESS:     214980  HIT:     214813  MISS:        167
BTB BRANCH_INDIRECT	ACCESS:       2007  HIT:       1748  MISS:        259
BTB BRANCH_CONDITIONAL	ACCESS:    5423620  HIT:    5422347  MISS:       1273
BTB BRANCH_DIRECT_CALL	ACCESS:     101143  HIT:     100534  MISS:        609
BTB BRANCH_INDIRECT_CALL	ACCESS:          0  HIT:          0  MISS:          0
BTB BRANCH_RETURN	ACCESS:     101145  HIT:      85881  MISS:      15264
BTB BRANCH_OTHER ACCESS:          0  HIT:          0  MISS:          0

L2C TOTAL     ACCESS:    3687546  HIT:    3234612  MISS:     452934  HIT %:    87.7172  MISS %:    12.2828   MPKI: 9.05868
L2C LOAD      ACCESS:     104066  HIT:      59888  MISS:      44178  HIT %:    57.5481  MISS %:    42.4519   MPKI: 0.88356
L2C DATA LOAD MPKI: 0.3913
L2C INSTRUCTION LOAD MPKI: 0.49226
L2C RFO       ACCESS:     291351  HIT:     202627  MISS:      88724  HIT %:    69.5474  MISS %:    30.4526   MPKI: 1.77448
L2C PREFETCH  ACCESS:    2900004  HIT:    2610399  MISS:     289605  HIT %:    90.0136  MISS %:    9.98637   MPKI: 5.7921
L2C DATA PREFETCH MPKI: 5.7921
L2C INSTRUCTION PREFETCH MPKI: 0
L2C WRITEBACK ACCESS:     389587  HIT:     360659  MISS:      28928  HIT %:    92.5747  MISS %:     7.4253   MPKI: 0.57856
L2C LOAD TRANSLATION ACCESS:       2538  HIT:       1039  MISS:       1499  HIT %:    40.9377  MISS %:    59.0623   MPKI: 0.02998
L2C PREFETCH  REQUESTED:    3150527  ISSUED:    3045212  USEFUL:      20783  USELESS:     267911
L2C USEFUL LOAD PREFETCHES:      20783 PREFETCH ISSUED TO LOWER LEVEL:     290122  ACCURACY: 7.16354
L2C TIMELY PREFETCHES:      20783 LATE PREFETCHES: 514 DROPPED PREFETCHES: 0
L2C PREFETCHES SAME FILL-ORIGIN LEVEL: 216030 DIFFERENT FILL-ORIGIN LEVEL: 0
L2C AVERAGE MISS LATENCY: 97.4725 cycles
L2C RQ	ACCESS:     398007	FORWARD:          0	MERGED:          0	TO_CACHE:     397955
L2C WQ	ACCESS:     389587	FORWARD:        180	MERGED:          0	TO_CACHE:     389587
L2C PQ	ACCESS:    3713440	FORWARD:          0	MERGED:     714109	TO_CACHE:    2999203

Revised Interactions: positive negative neutral
L2C_interactions 17732 278836 66893 4.87865 76.7169 18.4045
L2C Instructions Evicting Data 23019
L2C Translations Evicting Data 1390
L2C Data Evicting Data 374641
L2C Instructions Evicting Instructions 1529
L2C Translations Evicting Instructions 100
L2C Data Evicting Instructions 22004
L2C Instructions Evicting Translations 65
L2C Translations Evicting Translations 9
L2C Data Evicting Translations 1249
L2C Dense regions hint from L2: 0
PSCL5 TOTAL     ACCESS:       2220  HIT:       2220  MISS:          0  HIT %:        100  MISS %:          0   MPKI: 0
PSCL5 LOAD TRANSLATION ACCESS:       2220  HIT:       2220  MISS:          0  HIT %:        100  MISS %:          0   MPKI: 0
PSCL5 PREFETCH  REQUESTED:          0  ISSUED:          0  USEFUL:          0  USELESS:          0
PSCL5 USEFUL LOAD PREFETCHES:          0 PREFETCH ISSUED TO LOWER LEVEL:          0  ACCURACY: -nan
PSCL5 TIMELY PREFETCHES:          0 LATE PREFETCHES: 0 DROPPED PREFETCHES: 0
PSCL5 PREFETCHES SAME FILL-ORIGIN LEVEL: 0 DIFFERENT FILL-ORIGIN LEVEL: 0

Revised Interactions: positive negative neutral
PSCL5_interactions 0 0 0 -nan -nan -nan
PSCL4 TOTAL     ACCESS:       2220  HIT:       2220  MISS:          0  HIT %:        100  MISS %:          0   MPKI: 0
PSCL4 LOAD TRANSLATION ACCESS:       2220  HIT:       2220  MISS:          0  HIT %:        100  MISS %:          0   MPKI: 0
PSCL4 PREFETCH  REQUESTED:          0  ISSUED:          0  USEFUL:          0  USELESS:          0
PSCL4 USEFUL LOAD PREFETCHES:          0 PREFETCH ISSUED TO LOWER LEVEL:          0  ACCURACY: -nan
PSCL4 TIMELY PREFETCHES:          0 LATE PREFETCHES: 0 DROPPED PREFETCHES: 0
PSCL4 PREFETCHES SAME FILL-ORIGIN LEVEL: 0 DIFFERENT FILL-ORIGIN LEVEL: 0

Revised Interactions: positive negative neutral
PSCL4_interactions 0 0 0 -nan -nan -nan
PSCL3 TOTAL     ACCESS:       2220  HIT:       2220  MISS:          0  HIT %:        100  MISS %:          0   MPKI: 0
PSCL3 LOAD TRANSLATION ACCESS:       2220  HIT:       2220  MISS:          0  HIT %:        100  MISS %:          0   MPKI: 0
PSCL3 PREFETCH  REQUESTED:          0  ISSUED:          0  USEFUL:          0  USELESS:          0
PSCL3 USEFUL LOAD PREFETCHES:          0 PREFETCH ISSUED TO LOWER LEVEL:          0  ACCURACY: -nan
PSCL3 TIMELY PREFETCHES:          0 LATE PREFETCHES: 0 DROPPED PREFETCHES: 0
PSCL3 PREFETCHES SAME FILL-ORIGIN LEVEL: 0 DIFFERENT FILL-ORIGIN LEVEL: 0

Revised Interactions: positive negative neutral
PSCL3_interactions 0 0 0 -nan -nan -nan
PSCL2 TOTAL     ACCESS:       2220  HIT:       1881  MISS:        339  HIT %:    84.7297  MISS %:    15.2703   MPKI: 0.00678
PSCL2 LOAD TRANSLATION ACCESS:       2220  HIT:       1881  MISS:        339  HIT %:    84.7297  MISS %:    15.2703   MPKI: 0.00678
PSCL2 PREFETCH  REQUESTED:          0  ISSUED:          0  USEFUL:          0  USELESS:          0
PSCL2 USEFUL LOAD PREFETCHES:          0 PREFETCH ISSUED TO LOWER LEVEL:          0  ACCURACY: -nan
PSCL2 TIMELY PREFETCHES:          0 LATE PREFETCHES: 0 DROPPED PREFETCHES: 0
PSCL2 PREFETCHES SAME FILL-ORIGIN LEVEL: 0 DIFFERENT FILL-ORIGIN LEVEL: 0

Revised Interactions: positive negative neutral
PSCL2_interactions 0 0 0 -nan -nan -nan
LLC TOTAL     ACCESS:     576300  HIT:     381427  MISS:     194873  HIT %:    66.1855  MISS %:    33.8145   MPKI: 3.89746
LLC LOAD      ACCESS:      43674  HIT:      38032  MISS:       5642  HIT %:    87.0816  MISS %:    12.9184   MPKI: 0.11284
LLC RFO       ACCESS:      88714  HIT:      46583  MISS:      42131  HIT %:    52.5092  MISS %:    47.4908   MPKI: 0.84262
LLC PREFETCH  ACCESS:     290112  HIT:     152196  MISS:     137916  HIT %:    52.4611  MISS %:    47.5389   MPKI: 2.75832
LLC WRITEBACK ACCESS:     152301  HIT:     144110  MISS:       8191  HIT %:    94.6218  MISS %:    5.37817   MPKI: 0.16382
LLC LOAD TRANSLATION ACCESS:       1499  HIT:        506  MISS:        993  HIT %:    33.7558  MISS %:    66.2442   MPKI: 0.01986
LLC PREFETCH  REQUESTED:          0  ISSUED:          0  USEFUL:       2251  USELESS:     147150
LLC USEFUL LOAD PREFETCHES:       2251 PREFETCH ISSUED TO LOWER LEVEL:     137919  ACCURACY: 1.63212
LLC TIMELY PREFETCHES:       2251 LATE PREFETCHES: 0 DROPPED PREFETCHES: 0
LLC PREFETCHES SAME FILL-ORIGIN LEVEL: 0 DIFFERENT FILL-ORIGIN LEVEL: 0
LLC AVERAGE MISS LATENCY: 160.814 cycles
LLC RQ	ACCESS:     133887	FORWARD:          0	MERGED:          0	TO_CACHE:     133887
LLC WQ	ACCESS:     152302	FORWARD:          7	MERGED:          0	TO_CACHE:     152302
LLC PQ	ACCESS:     290122	FORWARD:          0	MERGED:          0	TO_CACHE:     290115

Revised Interactions: positive negative neutral
LLC_interactions 671 136393 33153 0.394203 80.1289 19.4769
LLC Dense regions hint to LLC: 0

RAW hits: 115825
Loads Generated: 10791290
Loads sent to L1D: 10675465
Stores Generated: 3740422
Stores sent to L1D: 3740433
Major fault: 0 Minor fault: 5309
Allocated PAGES: 5309

stream: 
stream:times selected: 3324416
stream:pref_filled: 1507385
stream:pref_useful: 1152330
stream:pref_late: 5455
stream:misses: 5504
stream:misses_by_poll: 0

CS: 
CS:times selected: 2958480
CS:pref_filled: 17809
CS:pref_useful: 11275
CS:pref_late: 317
CS:misses: 54315
CS:misses_by_poll: 90

CPLX: 
CPLX:times selected: 365246
CPLX:pref_filled: 8016
CPLX:pref_useful: 3375
CPLX:pref_late: 78
CPLX:misses: 36790
CPLX:misses_by_poll: 6

NL_L1: 
NL:times selected: 622
NL:pref_filled: 113
NL:pref_useful: 50
NL:pref_late: 0
NL:misses: 146
NL:misses_by_poll: 0

total selections: 6648764
total_filled: 668156
total_useful: 481515
total_late: 6142
total_polluted: 96
total_misses_after_warmup: 99820
conflicts: 64093
Degree Incremented Times: 170472
Degree Decremented Times: 554

L1 IP Table Write Accesses: 7756123
L1 IP Table Read Accesses: 7692030
L1 RST Write Accesses: 1507166
L1 RST Read Accesses: 3014332
L1 CSPT Write Accesses: 1507166
L1 CSPT Read Accesses: 1666206
L1 RR Filter Tag Write Accesses: 3454896
L1 RR Filter Tag Read Accesses: 332077335
L1 IP Table Tag Write Accesses: 7841625
L1 IP Table Tag Read Accesses: 7841625
L1 RST Tag Write Accesses: 0
L1 RST Tag Read Accesses: 14020987
L1 RR Filter Write Accesses: 0
L1 RR Filter Read Accesses: 12517217
test: 162098
L2 IP Table Read Accesses: 1191808
L2 IP Table Write Accesses: 1149331
L2 IP Table Tag Read Accesses: 609552
L2 IP Table Tag Write Accesses: 609552

DRAM Statistics
 CHANNEL 0
 RQ ROW_BUFFER_HIT:      75674  ROW_BUFFER_MISS:     110996
 DBUS_CONGESTED:        889
 WQ ROW_BUFFER_HIT:      16218  ROW_BUFFER_MISS:      51555  FULL:          0

 AVG_CONGESTED_CYCLE: 5
 All warmup complete: 2
Channel 0 Bank busy for read cycles: 0
Channel 0 Bank busy for write cycles: 0
Channel 0
Rank 0
0banks busy for read cycles: 51029051
0banks busy for write cycles: 6745
1banks busy for read cycles: 4724052
1banks busy for write cycles: 844107
2banks busy for read cycles: 2522628
2banks busy for write cycles: 425775
3banks busy for read cycles: 920241
3banks busy for write cycles: 311004
4banks busy for read cycles: 391570
4banks busy for write cycles: 262211
5banks busy for read cycles: 201108
5banks busy for write cycles: 228266
6banks busy for read cycles: 195542
6banks busy for write cycles: 222493
7banks busy for read cycles: 278705
7banks busy for write cycles: 265378
8banks busy for read cycles: 289526
8banks busy for write cycles: 739125

CPU 0 Branch Prediction Accuracy: 97.2621% MPKI: 3.31844 Average ROB Occupancy at Mispredict: 27.8948
Branch types
NOT_BRANCH: 43939671 87.8793%
BRANCH_DIRECT_JUMP: 214980 0.42996%
BRANCH_INDIRECT: 2007 0.004014%
BRANCH_CONDITIONAL: 5640879 11.2818%
BRANCH_DIRECT_CALL: 101143 0.202286%
BRANCH_INDIRECT_CALL: 0 0%
BRANCH_RETURN: 101145 0.20229%
BRANCH_OTHER: 0 0%

@sumon_overall_L1D    481515      7939      7939    186627    668156   6294006   6601867
@Sumon_Early_by_class_L1D    472230      5338      1768         0
@Sumon_Late_by_class_L1D      3280        74        21         0

@Sumon_Early_by_cycle_L1D     18114     65399    138633     51322     51873    125234     13147      4244      4120      5069      3614       746
@Sumon_Late_by_cycle_L1D       914       798       318       618       908        19
@Sumon_Early_stream_L1D     16679     62298    137053     50552     51450    124280     12629      4056      3889      5013      3587       744
@Sumon_Early_CS_L1D       557      2164       837       426       147       513       340       142       165        23        22         2
@Sumon_Early_CPLX_L1D       208        29       335       222       272       420       178        27        52        22         3         0
@Sumon_Late_stream_L1D       821       714       280       591       855        19
@Sumon_Late_CS_L1D        12        38        12         8         4         0
@Sumon_Late_CPLX_L1D         4         7         6         2         2         0
@sumon_overall_L2C     20783       514         0    267911    289605   3045212   3150527
@Sumon_Early_by_class_L2C     18360       160        20         0
@Sumon_Late_by_class_L2C        93         0         0         0

@Sumon_Early_by_cycle_L2C       897       687       626       326       202       604       165       106       419       308      3243     13200
@Sumon_Late_by_cycle_L2C       105       170        80        31       128         0
@Sumon_Early_stream_L2C       240       279       236       141       122       533       141        96       343       259      3070     12900
@Sumon_Early_CS_L2C         0         0         0         0         0         0         0         0        30         1        45        84
@Sumon_Early_CPLX_L2C         0         0         0         0         0         0         0         0         2         2         4        12
@Sumon_Late_stream_L2C         0        43        16        15        19         0
@Sumon_Late_CS_L2C         0         0         0         0         0         0
@Sumon_Late_CPLX_L2C         0         0         0         0         0         0
DRAM PAGES: 1048576
Allocated PAGES: 5309
