
*** ChampSim Multicore Out-of-Order Simulator ***

Warmup Instructions: 10000000
Simulation Instructions: 50000000
Number of CPUs: 1
LLC sets: 2048
LLC ways: 16
Off-chip DRAM Size: 4096 MB Channels: 1 Width: 64-bit Data Rate: 6400 MT/s
CPU 0 runs traces/clientserver/server_031.champsimtrace.xz
.xz
CPU 0 Bimodal branch predictor
BTB has LRU replacement policy
ITLB has LRU replacement policy
DTLB has LRU replacement policy
STLB has LRU replacement policy
L1I has LRU replacement policy
IP Table Entries: 256
Initialize SRRIP state for L1D
IP_Table L2 entries: 256
L2C has LRU replacement policy
LLC has LRU replacement policy
Heartbeat CPU 0 instructions: 10000000 cycles: 2889983 heartbeat IPC: 3.46023 cumulative IPC: 3.46023 (Simulation time: 0 hr 18 min 34 sec) 

Warmup complete CPU 0 instructions: 10000004 cycles: 2889984 (Simulation time: 0 hr 18 min 35 sec) 

Heartbeat CPU 0 instructions: 20000003 cycles: 28344597 heartbeat IPC: 0.392856 cumulative IPC: 0.392856 (Simulation time: 0 hr 36 min 28 sec) 
Heartbeat CPU 0 instructions: 30000001 cycles: 53740768 heartbeat IPC: 0.39376 cumulative IPC: 0.393308 (Simulation time: 0 hr 54 min 20 sec) 
Heartbeat CPU 0 instructions: 40000002 cycles: 79079583 heartbeat IPC: 0.394651 cumulative IPC: 0.393755 (Simulation time: 1 hr 12 min 12 sec) 
Heartbeat CPU 0 instructions: 50000001 cycles: 104397129 heartbeat IPC: 0.394983 cumulative IPC: 0.394061 (Simulation time: 1 hr 29 min 49 sec) 
Heartbeat CPU 0 instructions: 60000002 cycles: 129821091 heartbeat IPC: 0.39333 cumulative IPC: 0.393914 (Simulation time: 1 hr 44 min 24 sec) 
Finished CPU 0 instructions: 50000002 cycles: 126931108 cumulative IPC: 0.393914 (Simulation time: 1 hr 44 min 24 sec) 

ChampSim completed all CPUs

Region of Interest Statistics

CPU 0 cumulative IPC: 0.393914 instructions: 50000002 cycles: 126931108
ITLB TOTAL     ACCESS:    8597632  HIT:    8045592  MISS:     552040  HIT %:    93.5792  MISS %:    6.42084   MPKI: 11.0408
ITLB LOAD TRANSLATION ACCESS:    8597632  HIT:    8045592  MISS:     552040  HIT %:    93.5792  MISS %:    6.42084   MPKI: 11.0408
ITLB PREFETCH  REQUESTED:          0  ISSUED:          0  USEFUL:          0  USELESS:          0
ITLB USEFUL LOAD PREFETCHES:          0 PREFETCH ISSUED TO LOWER LEVEL:          0  ACCURACY: -nan
ITLB TIMELY PREFETCHES:          0 LATE PREFETCHES: 0 DROPPED PREFETCHES: 0
ITLB PREFETCHES SAME FILL-ORIGIN LEVEL: 0 DIFFERENT FILL-ORIGIN LEVEL: 0
ITLB AVERAGE MISS LATENCY: 9.16332 cycles
ITLB RQ	ACCESS:   10317736	FORWARD:          0	MERGED:    1581017	TO_CACHE:    8736719

DTLB TOTAL     ACCESS:   12564731  HIT:   12004209  MISS:     560522  HIT %:    95.5389  MISS %:    4.46107   MPKI: 11.2104
DTLB LOAD TRANSLATION ACCESS:   12564731  HIT:   12004209  MISS:     560522  HIT %:    95.5389  MISS %:    4.46107   MPKI: 11.2104
DTLB PREFETCH  REQUESTED:          0  ISSUED:          0  USEFUL:          0  USELESS:          0
DTLB USEFUL LOAD PREFETCHES:          0 PREFETCH ISSUED TO LOWER LEVEL:          0  ACCURACY: -nan
DTLB TIMELY PREFETCHES:          0 LATE PREFETCHES: 0 DROPPED PREFETCHES: 0
DTLB PREFETCHES SAME FILL-ORIGIN LEVEL: 0 DIFFERENT FILL-ORIGIN LEVEL: 0
DTLB AVERAGE MISS LATENCY: 11.5035 cycles
DTLB RQ	ACCESS:   15697238	FORWARD:          0	MERGED:    3113889	TO_CACHE:   12583349

STLB TOTAL     ACCESS:    1491215  HIT:    1477236  MISS:      13979  HIT %:    99.0626  MISS %:   0.937424   MPKI: 0.27958
STLB LOAD TRANSLATION ACCESS:    1112562  HIT:    1098583  MISS:      13979  HIT %:    98.7435  MISS %:    1.25647   MPKI: 0.27958
STLB TRANSLATION FROM L1D PREFETCHER ACCESS:     378653  HIT:     378653  MISS:          0  HIT %:        100  MISS %:          0   MPKI: 0
STLB PREFETCH  REQUESTED:          0  ISSUED:          0  USEFUL:          0  USELESS:          0
STLB USEFUL LOAD PREFETCHES:          0 PREFETCH ISSUED TO LOWER LEVEL:          0  ACCURACY: -nan
STLB TIMELY PREFETCHES:          0 LATE PREFETCHES: 0 DROPPED PREFETCHES: 0
STLB PREFETCHES SAME FILL-ORIGIN LEVEL: 0 DIFFERENT FILL-ORIGIN LEVEL: 0
STLB AVERAGE MISS LATENCY: 105.834 cycles
STLB RQ	ACCESS:    1594432	FORWARD:          0	MERGED:     103217	TO_CACHE:    1491215

STLB Hit, L1D data hit: 0
STLB Hit, L2C data hit: 0
STLB Hit, LLC data hit: 0
STLB Hit, LLC data miss: 0
STLB STLB hints to L2: 0
L1D TOTAL     ACCESS:   15619161  HIT:   14204065  MISS:    1415096  HIT %:      90.94  MISS %:       9.06   MPKI: 28.3019
L1D LOAD      ACCESS:    8710751  HIT:    7798885  MISS:     911866  HIT %:    89.5317  MISS %:    10.4683   MPKI: 18.2373
L1D RFO       ACCESS:    6493342  HIT:    6190717  MISS:     302625  HIT %:    95.3395  MISS %:    4.66054   MPKI: 6.0525
L1D PREFETCH  ACCESS:     415068  HIT:     214463  MISS:     200605  HIT %:    51.6694  MISS %:    48.3306   MPKI: 4.0121
L1D PREFETCH  REQUESTED:     964030  ISSUED:     964028  USEFUL:      61521  USELESS:     139073
L1D USEFUL LOAD PREFETCHES:      61521 PREFETCH ISSUED TO LOWER LEVEL:     249212  ACCURACY: 24.6862
L1D TIMELY PREFETCHES:      61521 LATE PREFETCHES: 48498 DROPPED PREFETCHES: 0
L1D PREFETCHES SAME FILL-ORIGIN LEVEL: 249212 DIFFERENT FILL-ORIGIN LEVEL: 0
L1D AVERAGE MISS LATENCY: 2.19827e+06 cycles
L1D RQ	ACCESS:   11882599	FORWARD:          0	MERGED:    3007983	TO_CACHE:    8752992
L1D WQ	ACCESS:    6988846	FORWARD:     121912	MERGED:      44600	TO_CACHE:    6944246
L1D PQ	ACCESS:     482158	FORWARD:          0	MERGED:          0	TO_CACHE:     481870

L1D UNIQUE REGIONS ACCESSED: 0
L1D REGIONS CONFLICTS: 0
L1D Cross Page Prefetch Requests: 0
L1D Same Page Prefetch Requests: 572967
L1D ROI Sum of L1D PQ occupancy: 6221391
L1D PREFETCHES PUSHED FROM L2C: 0
L1I TOTAL     ACCESS:    9783256  HIT:    6775980  MISS:    3007276  HIT %:     69.261  MISS %:     30.739   MPKI: 60.1455
L1I LOAD      ACCESS:    9783256  HIT:    6775980  MISS:    3007276  HIT %:     69.261  MISS %:     30.739   MPKI: 60.1455
L1I PREFETCH  REQUESTED:          0  ISSUED:          0  USEFUL:          0  USELESS:          0
L1I USEFUL LOAD PREFETCHES:          0 PREFETCH ISSUED TO LOWER LEVEL:          0  ACCURACY: -nan
L1I TIMELY PREFETCHES:          0 LATE PREFETCHES: 0 DROPPED PREFETCHES: 0
L1I PREFETCHES SAME FILL-ORIGIN LEVEL: 0 DIFFERENT FILL-ORIGIN LEVEL: 0
L1I AVERAGE MISS LATENCY: 17.7084 cycles
L1I RQ	ACCESS:   14055353	FORWARD:          0	MERGED:    3737617	TO_CACHE:   10317736

BTB TOTAL     ACCESS:    6102276  HIT:    4206282  MISS:    1895994  HIT %:    68.9297  MISS %:    31.0703   MPKI: 37.9199
BTB BRANCH_DIRECT_JUMP	ACCESS:     546758  HIT:     394739  MISS:     152019
BTB BRANCH_INDIRECT	ACCESS:     172660  HIT:     135870  MISS:      36790
BTB BRANCH_CONDITIONAL	ACCESS:    2968197  HIT:    2446713  MISS:     521484
BTB BRANCH_DIRECT_CALL	ACCESS:    1018538  HIT:     647411  MISS:     371127
BTB BRANCH_INDIRECT_CALL	ACCESS:     188789  HIT:     117745  MISS:      71044
BTB BRANCH_RETURN	ACCESS:    1207334  HIT:     463804  MISS:     743530
BTB BRANCH_OTHER ACCESS:          0  HIT:          0  MISS:          0

L2C TOTAL     ACCESS:    5728294  HIT:    5033868  MISS:     694426  HIT %:    87.8773  MISS %:    12.1227   MPKI: 13.8885
L2C LOAD      ACCESS:    3870642  HIT:    3388043  MISS:     482599  HIT %:    87.5318  MISS %:    12.4682   MPKI: 9.65198
L2C DATA LOAD MPKI: 2.507
L2C INSTRUCTION LOAD MPKI: 7.14498
L2C RFO       ACCESS:     302513  HIT:     250195  MISS:      52318  HIT %:    82.7055  MISS %:    17.2945   MPKI: 1.04636
L2C PREFETCH  ACCESS:     960260  HIT:     821891  MISS:     138369  HIT %:    85.5905  MISS %:    14.4095   MPKI: 2.76738
L2C DATA PREFETCH MPKI: 2.76738
L2C INSTRUCTION PREFETCH MPKI: 0
L2C WRITEBACK ACCESS:     573688  HIT:     564856  MISS:       8832  HIT %:    98.4605  MISS %:    1.53951   MPKI: 0.17664
L2C LOAD TRANSLATION ACCESS:      21191  HIT:       8883  MISS:      12308  HIT %:    41.9187  MISS %:    58.0813   MPKI: 0.24616
L2C PREFETCH  REQUESTED:     728134  ISSUED:     728134  USEFUL:      18366  USELESS:     120330
L2C USEFUL LOAD PREFETCHES:      18366 PREFETCH ISSUED TO LOWER LEVEL:     141966  ACCURACY: 12.9369
L2C TIMELY PREFETCHES:      18366 LATE PREFETCHES: 3597 DROPPED PREFETCHES: 0
L2C PREFETCHES SAME FILL-ORIGIN LEVEL: 76440 DIFFERENT FILL-ORIGIN LEVEL: 0
L2C AVERAGE MISS LATENCY: 41.5072 cycles
L2C RQ	ACCESS:    4194350	FORWARD:          0	MERGED:          0	TO_CACHE:    4194346
L2C WQ	ACCESS:     573688	FORWARD:          7	MERGED:          0	TO_CACHE:     573688
L2C PQ	ACCESS:     977346	FORWARD:          0	MERGED:       6182	TO_CACHE:     971161

L2C Instructions Evicting Data 135102
L2C Translations Evicting Data 8331
L2C Data Evicting Data 178463
L2C Instructions Evicting Instructions 218802
L2C Translations Evicting Instructions 3192
L2C Data Evicting Instructions 129445
L2C Instructions Evicting Translations 3345
L2C Translations Evicting Translations 785
L2C Data Evicting Translations 8129
L2C Dense regions hint from L2: 0
PSCL5 TOTAL     ACCESS:      13979  HIT:      13979  MISS:          0  HIT %:        100  MISS %:          0   MPKI: 0
PSCL5 LOAD TRANSLATION ACCESS:      13979  HIT:      13979  MISS:          0  HIT %:        100  MISS %:          0   MPKI: 0
PSCL5 PREFETCH  REQUESTED:          0  ISSUED:          0  USEFUL:          0  USELESS:          0
PSCL5 USEFUL LOAD PREFETCHES:          0 PREFETCH ISSUED TO LOWER LEVEL:          0  ACCURACY: -nan
PSCL5 TIMELY PREFETCHES:          0 LATE PREFETCHES: 0 DROPPED PREFETCHES: 0
PSCL5 PREFETCHES SAME FILL-ORIGIN LEVEL: 0 DIFFERENT FILL-ORIGIN LEVEL: 0

PSCL4 TOTAL     ACCESS:      13319  HIT:      13150  MISS:        169  HIT %:    98.7311  MISS %:    1.26886   MPKI: 0.00338
PSCL4 LOAD TRANSLATION ACCESS:      13319  HIT:      13150  MISS:        169  HIT %:    98.7311  MISS %:    1.26886   MPKI: 0.00338
PSCL4 PREFETCH  REQUESTED:          0  ISSUED:          0  USEFUL:          0  USELESS:          0
PSCL4 USEFUL LOAD PREFETCHES:          0 PREFETCH ISSUED TO LOWER LEVEL:          0  ACCURACY: -nan
PSCL4 TIMELY PREFETCHES:          0 LATE PREFETCHES: 0 DROPPED PREFETCHES: 0
PSCL4 PREFETCHES SAME FILL-ORIGIN LEVEL: 0 DIFFERENT FILL-ORIGIN LEVEL: 0

PSCL3 TOTAL     ACCESS:      13946  HIT:      13777  MISS:        169  HIT %:    98.7882  MISS %:    1.21182   MPKI: 0.00338
PSCL3 LOAD TRANSLATION ACCESS:      13946  HIT:      13777  MISS:        169  HIT %:    98.7882  MISS %:    1.21182   MPKI: 0.00338
PSCL3 PREFETCH  REQUESTED:          0  ISSUED:          0  USEFUL:          0  USELESS:          0
PSCL3 USEFUL LOAD PREFETCHES:          0 PREFETCH ISSUED TO LOWER LEVEL:          0  ACCURACY: -nan
PSCL3 TIMELY PREFETCHES:          0 LATE PREFETCHES: 0 DROPPED PREFETCHES: 0
PSCL3 PREFETCHES SAME FILL-ORIGIN LEVEL: 0 DIFFERENT FILL-ORIGIN LEVEL: 0

PSCL2 TOTAL     ACCESS:      13979  HIT:       7099  MISS:       6880  HIT %:    50.7833  MISS %:    49.2167   MPKI: 0.1376
PSCL2 LOAD TRANSLATION ACCESS:      13979  HIT:       7099  MISS:       6880  HIT %:    50.7833  MISS %:    49.2167   MPKI: 0.1376
PSCL2 PREFETCH  REQUESTED:          0  ISSUED:          0  USEFUL:          0  USELESS:          0
PSCL2 USEFUL LOAD PREFETCHES:          0 PREFETCH ISSUED TO LOWER LEVEL:          0  ACCURACY: -nan
PSCL2 TIMELY PREFETCHES:          0 LATE PREFETCHES: 0 DROPPED PREFETCHES: 0
PSCL2 PREFETCHES SAME FILL-ORIGIN LEVEL: 0 DIFFERENT FILL-ORIGIN LEVEL: 0

LLC TOTAL     ACCESS:     776312  HIT:     719945  MISS:      56367  HIT %:    92.7391  MISS %:    7.26087   MPKI: 1.12734
LLC LOAD      ACCESS:     479083  HIT:     460501  MISS:      18582  HIT %:    96.1213  MISS %:    3.87866   MPKI: 0.37164
LLC RFO       ACCESS:      52237  HIT:      49564  MISS:       2673  HIT %:    94.8829  MISS %:    5.11706   MPKI: 0.05346
LLC PREFETCH  ACCESS:     141966  HIT:     109328  MISS:      32638  HIT %:      77.01  MISS %:      22.99   MPKI: 0.65276
LLC WRITEBACK ACCESS:      90718  HIT:      90465  MISS:        253  HIT %:    99.7211  MISS %:   0.278886   MPKI: 0.00506
LLC LOAD TRANSLATION ACCESS:      12308  HIT:      10087  MISS:       2221  HIT %:    81.9548  MISS %:    18.0452   MPKI: 0.04442
LLC PREFETCH  REQUESTED:          0  ISSUED:          0  USEFUL:       1506  USELESS:      26883
LLC USEFUL LOAD PREFETCHES:       1506 PREFETCH ISSUED TO LOWER LEVEL:      32638  ACCURACY: 4.61425
LLC TIMELY PREFETCHES:       1506 LATE PREFETCHES: 0 DROPPED PREFETCHES: 0
LLC PREFETCHES SAME FILL-ORIGIN LEVEL: 0 DIFFERENT FILL-ORIGIN LEVEL: 0
LLC AVERAGE MISS LATENCY: 146.05 cycles
LLC RQ	ACCESS:     543628	FORWARD:          0	MERGED:          0	TO_CACHE:     543628
LLC WQ	ACCESS:      90718	FORWARD:          0	MERGED:          0	TO_CACHE:      90718
LLC PQ	ACCESS:     141966	FORWARD:          0	MERGED:          0	TO_CACHE:     141966

LLC Dense regions hint to LLC: 0

RAW hits: 574385
Loads Generated: 12456984
Loads sent to L1D: 11882599
Stores Generated: 6988845
Stores sent to L1D: 6988846
Major fault: 0 Minor fault: 5588
Allocated PAGES: 5588

stream: 
stream:times selected: 848084
stream:pref_filled: 135198
stream:pref_useful: 22971
stream:pref_late: 42108
stream:misses: 11684
stream:misses_by_poll: 0

CS: 
CS:times selected: 102522
CS:pref_filled: 64994
CS:pref_useful: 45918
CS:pref_late: 2643
CS:misses: 6498
CS:misses_by_poll: 4

CPLX: 
CPLX:times selected: 743108
CPLX:pref_filled: 37756
CPLX:pref_useful: 5682
CPLX:pref_late: 2735
CPLX:misses: 132717
CPLX:misses_by_poll: 14

NL_L1: 
NL:times selected: 2619
NL:pref_filled: 1004
NL:pref_useful: 63
NL:pref_late: 21
NL:misses: 223
NL:misses_by_poll: 0

total selections: 1696333
total_filled: 200605
total_useful: 61521
total_late: 50547
total_polluted: 18
total_misses_after_warmup: 954106
conflicts: 3383757
Degree Incremented Times: 0
Degree Decremented Times: 119442

L1 IP Table Write Accesses: 5089406
L1 IP Table Read Accesses: 1705649
L1 RST Write Accesses: 716130
L1 RST Read Accesses: 1432260
L1 CSPT Write Accesses: 716130
L1 CSPT Read Accesses: 1342372
L1 RR Filter Tag Write Accesses: 482160
L1 RR Filter Tag Read Accesses: 34324465
L1 IP Table Tag Write Accesses: 8752991
L1 IP Table Tag Read Accesses: 8752991
L1 RST Tag Write Accesses: 0
L1 RST Tag Read Accesses: 7001140
L1 RR Filter Write Accesses: 0
L1 RR Filter Read Accesses: 1231789
test: 175254
L2 IP Table Read Accesses: 1478192
L2 IP Table Write Accesses: 1987890
L2 IP Table Tag Read Accesses: 1107240
L2 IP Table Tag Write Accesses: 1107240

DRAM Statistics
 CHANNEL 0
 RQ ROW_BUFFER_HIT:      16632  ROW_BUFFER_MISS:      39482
 DBUS_CONGESTED:         12
 WQ ROW_BUFFER_HIT:        410  ROW_BUFFER_MISS:       1217  FULL:          0

 AVG_CONGESTED_CYCLE: 3
 All warmup complete: 2
Channel 0 Bank busy for read cycles: 0
Channel 0 Bank busy for write cycles: 0
Channel 0
Rank 0
0banks busy for read cycles: 123127790
0banks busy for write cycles: 1126
1banks busy for read cycles: 1534035
1banks busy for write cycles: 213266
2banks busy for read cycles: 1217598
2banks busy for write cycles: 45168
3banks busy for read cycles: 472990
3banks busy for write cycles: 14501
4banks busy for read cycles: 188552
4banks busy for write cycles: 4594
5banks busy for read cycles: 69196
5banks busy for write cycles: 1114
6banks busy for read cycles: 19453
6banks busy for write cycles: 52
7banks busy for read cycles: 7161
7banks busy for write cycles: 1457
8banks busy for read cycles: 12344
8banks busy for write cycles: 712

CPU 0 Branch Prediction Accuracy: 91.8928% MPKI: 15.1591 Average ROB Occupancy at Mispredict: 19.2725
Branch types
NOT_BRANCH: 40650646 81.3013%
BRANCH_DIRECT_JUMP: 546758 1.09352%
BRANCH_INDIRECT: 172660 0.34532%
BRANCH_CONDITIONAL: 6215044 12.4301%
BRANCH_DIRECT_CALL: 1018538 2.03708%
BRANCH_INDIRECT_CALL: 188789 0.377578%
BRANCH_RETURN: 1207334 2.41467%
BRANCH_OTHER: 0 0%

@sumon_overall_L1D     61521     48498    139073    200605    964028    964030
@Sumon_Early_by_class_L1D     17238     39308      3799        16
@Sumon_Late_by_class_L1D     41025      2294      2310        16

@Sumon_Early_by_cycle_L1D     46399      4452      2568      1863       148      1359       786       890      1797      1003       254         2
@Sumon_Late_by_cycle_L1D     47051      1423        24         0         0         0         0         0         0         0         0         0
@Sumon_Early_stream_L1D      7108      2023      1748      1416       131      1158       658       801      1260       744       189         2
@Sumon_Early_CS_L1D     36742      1810       375       314         0        43         5         1         7        11         0         0
@Sumon_Early_CPLX_L1D      2297       216       422       122        12       133       119        85        80       248        65         0
@Sumon_Late_stream_L1D     39951      1051        23         0         0         0         0         0         0         0         0         0
@Sumon_Late_CS_L1D      2064       230         0         0         0         0         0         0         0         0         0         0
@Sumon_Late_CPLX_L1D      2235        75         0         0         0         0         0         0         0         0         0         0
@sumon_overall_L2C     18366      3597    120330    138369    728134    728134
@Sumon_Early_by_class_L2C       956        67       229         0
@Sumon_Late_by_class_L2C         0         0         0         0

@Sumon_Early_by_cycle_L2C      5217      2560       805       245      1150      2499       856      1077       949       603       414      1991
@Sumon_Late_by_cycle_L2C      2889       705         3         0         0         0         0         0         0         0         0         0
@Sumon_Early_stream_L2C         0         0         0         0         0         0         0         0         5        15        42       894
@Sumon_Early_CS_L2C         0         0         0         0         0         0         0         0         2         0         1        64
@Sumon_Early_CPLX_L2C         0         0         1         0         0         0         5         2         0         3        20       198
@Sumon_Late_stream_L2C         0         0         0         0         0         0         0         0         0         0         0         0
@Sumon_Late_CS_L2C         0         0         0         0         0         0         0         0         0         0         0         0
@Sumon_Late_CPLX_L2C         0         0         0         0         0         0         0         0         0         0         0         0
DRAM PAGES: 1048576
Allocated PAGES: 5588
