
*** ChampSim Multicore Out-of-Order Simulator ***

Warmup Instructions: 10000000
Simulation Instructions: 50000000
Number of CPUs: 1
LLC sets: 2048
LLC ways: 16
Off-chip DRAM Size: 4096 MB Channels: 1 Width: 64-bit Data Rate: 6400 MT/s
CPU 0 runs traces/clientserver/server_024.champsimtrace.xz
.xz
CPU 0 Bimodal branch predictor
BTB has LRU replacement policy
ITLB has LRU replacement policy
DTLB has LRU replacement policy
STLB has LRU replacement policy
L1I has LRU replacement policy
IP Table Entries: 256
Initialize SRRIP state for L1D
IP_Table L2 entries: 256
L2C has LRU replacement policy
LLC has LRU replacement policy
Heartbeat CPU 0 instructions: 10000000 cycles: 2875412 heartbeat IPC: 3.47776 cumulative IPC: 3.47776 (Simulation time: 0 hr 18 min 16 sec) 

Warmup complete CPU 0 instructions: 10000004 cycles: 2875418 (Simulation time: 0 hr 18 min 16 sec) 

Heartbeat CPU 0 instructions: 20000002 cycles: 26518190 heartbeat IPC: 0.422962 cumulative IPC: 0.422962 (Simulation time: 0 hr 35 min 35 sec) 
Heartbeat CPU 0 instructions: 30000001 cycles: 50742959 heartbeat IPC: 0.412801 cumulative IPC: 0.41782 (Simulation time: 0 hr 53 min 10 sec) 
Heartbeat CPU 0 instructions: 40000002 cycles: 74477499 heartbeat IPC: 0.421327 cumulative IPC: 0.418982 (Simulation time: 1 hr 10 min 35 sec) 
Heartbeat CPU 0 instructions: 50000001 cycles: 97790481 heartbeat IPC: 0.428946 cumulative IPC: 0.421429 (Simulation time: 1 hr 28 min 3 sec) 
Heartbeat CPU 0 instructions: 60000001 cycles: 121396735 heartbeat IPC: 0.423617 cumulative IPC: 0.421865 (Simulation time: 1 hr 43 min 31 sec) 
Finished CPU 0 instructions: 50000000 cycles: 118521326 cumulative IPC: 0.421865 (Simulation time: 1 hr 43 min 31 sec) 

ChampSim completed all CPUs

Region of Interest Statistics

CPU 0 cumulative IPC: 0.421865 instructions: 50000000 cycles: 118521326
ITLB TOTAL     ACCESS:    8429368  HIT:    7985774  MISS:     443594  HIT %:    94.7375  MISS %:    5.26248   MPKI: 8.87188
ITLB LOAD TRANSLATION ACCESS:    8429368  HIT:    7985774  MISS:     443594  HIT %:    94.7375  MISS %:    5.26248   MPKI: 8.87188
ITLB PREFETCH  REQUESTED:          0  ISSUED:          0  USEFUL:          0  USELESS:          0
ITLB USEFUL LOAD PREFETCHES:          0 PREFETCH ISSUED TO LOWER LEVEL:          0  ACCURACY: -nan
ITLB TIMELY PREFETCHES:          0 LATE PREFETCHES: 0 DROPPED PREFETCHES: 0
ITLB PREFETCHES SAME FILL-ORIGIN LEVEL: 0 DIFFERENT FILL-ORIGIN LEVEL: 0
ITLB AVERAGE MISS LATENCY: 9.06795 cycles
ITLB RQ	ACCESS:    9933383	FORWARD:          0	MERGED:    1393798	TO_CACHE:    8539585

DTLB TOTAL     ACCESS:   12309017  HIT:   11843186  MISS:     465831  HIT %:    96.2155  MISS %:    3.78447   MPKI: 9.31662
DTLB LOAD TRANSLATION ACCESS:   12309017  HIT:   11843186  MISS:     465831  HIT %:    96.2155  MISS %:    3.78447   MPKI: 9.31662
DTLB PREFETCH  REQUESTED:          0  ISSUED:          0  USEFUL:          0  USELESS:          0
DTLB USEFUL LOAD PREFETCHES:          0 PREFETCH ISSUED TO LOWER LEVEL:          0  ACCURACY: -nan
DTLB TIMELY PREFETCHES:          0 LATE PREFETCHES: 0 DROPPED PREFETCHES: 0
DTLB PREFETCHES SAME FILL-ORIGIN LEVEL: 0 DIFFERENT FILL-ORIGIN LEVEL: 0
DTLB AVERAGE MISS LATENCY: 9.43536 cycles
DTLB RQ	ACCESS:   15411020	FORWARD:          0	MERGED:    3082161	TO_CACHE:   12328859

STLB TOTAL     ACCESS:    1397073  HIT:    1394203  MISS:       2870  HIT %:    99.7946  MISS %:   0.205429   MPKI: 0.0574
STLB LOAD TRANSLATION ACCESS:     909425  HIT:     906555  MISS:       2870  HIT %:    99.6844  MISS %:   0.315584   MPKI: 0.0574
STLB TRANSLATION FROM L1D PREFETCHER ACCESS:     487648  HIT:     487648  MISS:          0  HIT %:        100  MISS %:          0   MPKI: 0
STLB PREFETCH  REQUESTED:          0  ISSUED:          0  USEFUL:          0  USELESS:          0
STLB USEFUL LOAD PREFETCHES:          0 PREFETCH ISSUED TO LOWER LEVEL:          0  ACCURACY: -nan
STLB TIMELY PREFETCHES:          0 LATE PREFETCHES: 0 DROPPED PREFETCHES: 0
STLB PREFETCHES SAME FILL-ORIGIN LEVEL: 0 DIFFERENT FILL-ORIGIN LEVEL: 0
STLB AVERAGE MISS LATENCY: 77.5098 cycles
STLB RQ	ACCESS:    1547635	FORWARD:          0	MERGED:     150562	TO_CACHE:    1397073

STLB Hit, L1D data hit: 0
STLB Hit, L2C data hit: 0
STLB Hit, LLC data hit: 0
STLB Hit, LLC data miss: 0
STLB STLB hints to L2: 0
L1D TOTAL     ACCESS:   15522474  HIT:   14398325  MISS:    1124149  HIT %:    92.7579  MISS %:    7.24207   MPKI: 22.483
L1D LOAD      ACCESS:    8650536  HIT:    7974374  MISS:     676162  HIT %:    92.1836  MISS %:    7.81642   MPKI: 13.5232
L1D RFO       ACCESS:    6304016  HIT:    6032663  MISS:     271353  HIT %:    95.6956  MISS %:    4.30445   MPKI: 5.42706
L1D PREFETCH  ACCESS:     567922  HIT:     391288  MISS:     176634  HIT %:    68.8982  MISS %:    31.1018   MPKI: 3.53268
L1D PREFETCH  REQUESTED:    1276735  ISSUED:    1276735  USEFUL:      62194  USELESS:     114461
L1D USEFUL LOAD PREFETCHES:      62194 PREFETCH ISSUED TO LOWER LEVEL:     229894  ACCURACY: 27.0533
L1D TIMELY PREFETCHES:      62194 LATE PREFETCHES: 52901 DROPPED PREFETCHES: 0
L1D PREFETCHES SAME FILL-ORIGIN LEVEL: 229894 DIFFERENT FILL-ORIGIN LEVEL: 0
L1D AVERAGE MISS LATENCY: 2.87552e+06 cycles
L1D RQ	ACCESS:   11943202	FORWARD:          0	MERGED:    3152856	TO_CACHE:    8688400
L1D WQ	ACCESS:    6767682	FORWARD:     102261	MERGED:      45062	TO_CACHE:    6722620
L1D PQ	ACCESS:     638525	FORWARD:          0	MERGED:          0	TO_CACHE:     638210

L1D UNIQUE REGIONS ACCESSED: 0
L1D REGIONS CONFLICTS: 0
L1D Cross Page Prefetch Requests: 0
L1D Same Page Prefetch Requests: 760374
L1D ROI Sum of L1D PQ occupancy: 8195040
L1D PREFETCHES PUSHED FROM L2C: 0
L1I TOTAL     ACCESS:    9503622  HIT:    6997677  MISS:    2505945  HIT %:    73.6317  MISS %:    26.3683   MPKI: 50.1189
L1I LOAD      ACCESS:    9503622  HIT:    6997677  MISS:    2505945  HIT %:    73.6317  MISS %:    26.3683   MPKI: 50.1189
L1I PREFETCH  REQUESTED:          0  ISSUED:          0  USEFUL:          0  USELESS:          0
L1I USEFUL LOAD PREFETCHES:          0 PREFETCH ISSUED TO LOWER LEVEL:          0  ACCURACY: -nan
L1I TIMELY PREFETCHES:          0 LATE PREFETCHES: 0 DROPPED PREFETCHES: 0
L1I PREFETCHES SAME FILL-ORIGIN LEVEL: 0 DIFFERENT FILL-ORIGIN LEVEL: 0
L1I AVERAGE MISS LATENCY: 18.7361 cycles
L1I RQ	ACCESS:   13797196	FORWARD:          0	MERGED:    3863813	TO_CACHE:    9933383

BTB TOTAL     ACCESS:    6211076  HIT:    4460021  MISS:    1751055  HIT %:    71.8075  MISS %:    28.1925   MPKI: 35.0211
BTB BRANCH_DIRECT_JUMP	ACCESS:     566002  HIT:     416323  MISS:     149679
BTB BRANCH_INDIRECT	ACCESS:     196710  HIT:     163369  MISS:      33341
BTB BRANCH_CONDITIONAL	ACCESS:    3364802  HIT:    2900073  MISS:     464729
BTB BRANCH_DIRECT_CALL	ACCESS:     880330  HIT:     533921  MISS:     346409
BTB BRANCH_INDIRECT_CALL	ACCESS:     161449  HIT:      91032  MISS:      70417
BTB BRANCH_RETURN	ACCESS:    1041783  HIT:     355303  MISS:     686480
BTB BRANCH_OTHER ACCESS:          0  HIT:          0  MISS:          0

L2C TOTAL     ACCESS:    4610987  HIT:    3845060  MISS:     765927  HIT %:    83.3891  MISS %:    16.6109   MPKI: 15.3185
L2C LOAD      ACCESS:    3129198  HIT:    2633031  MISS:     496167  HIT %:     84.144  MISS %:     15.856   MPKI: 9.92334
L2C DATA LOAD MPKI: 2.251
L2C INSTRUCTION LOAD MPKI: 7.67234
L2C RFO       ACCESS:     270985  HIT:     172707  MISS:      98278  HIT %:     63.733  MISS %:     36.267   MPKI: 1.96556
L2C PREFETCH  ACCESS:     747991  HIT:     591654  MISS:     156337  HIT %:    79.0991  MISS %:    20.9009   MPKI: 3.12674
L2C DATA PREFETCH MPKI: 3.12674
L2C INSTRUCTION PREFETCH MPKI: 0
L2C WRITEBACK ACCESS:     459665  HIT:     446560  MISS:      13105  HIT %:     97.149  MISS %:    2.85099   MPKI: 0.2621
L2C LOAD TRANSLATION ACCESS:       3148  HIT:       1108  MISS:       2040  HIT %:     35.197  MISS %:     64.803   MPKI: 0.0408
L2C PREFETCH  REQUESTED:     532851  ISSUED:     532851  USEFUL:      25846  USELESS:     130459
L2C USEFUL LOAD PREFETCHES:      25846 PREFETCH ISSUED TO LOWER LEVEL:     158706  ACCURACY: 16.2855
L2C TIMELY PREFETCHES:      25846 LATE PREFETCHES: 2369 DROPPED PREFETCHES: 0
L2C PREFETCHES SAME FILL-ORIGIN LEVEL: 80404 DIFFERENT FILL-ORIGIN LEVEL: 0
L2C AVERAGE MISS LATENCY: 36.9249 cycles
L2C RQ	ACCESS:    3403348	FORWARD:          0	MERGED:          0	TO_CACHE:    3403331
L2C WQ	ACCESS:     459666	FORWARD:         30	MERGED:          0	TO_CACHE:     459666
L2C PQ	ACCESS:     762745	FORWARD:          0	MERGED:       5771	TO_CACHE:     756961

L2C Instructions Evicting Data 176223
L2C Translations Evicting Data 1307
L2C Data Evicting Data 197543
L2C Instructions Evicting Instructions 206713
L2C Translations Evicting Instructions 709
L2C Data Evicting Instructions 168300
L2C Instructions Evicting Translations 681
L2C Translations Evicting Translations 24
L2C Data Evicting Translations 1322
L2C Dense regions hint from L2: 0
PSCL5 TOTAL     ACCESS:       2870  HIT:       2870  MISS:          0  HIT %:        100  MISS %:          0   MPKI: 0
PSCL5 LOAD TRANSLATION ACCESS:       2870  HIT:       2870  MISS:          0  HIT %:        100  MISS %:          0   MPKI: 0
PSCL5 PREFETCH  REQUESTED:          0  ISSUED:          0  USEFUL:          0  USELESS:          0
PSCL5 USEFUL LOAD PREFETCHES:          0 PREFETCH ISSUED TO LOWER LEVEL:          0  ACCURACY: -nan
PSCL5 TIMELY PREFETCHES:          0 LATE PREFETCHES: 0 DROPPED PREFETCHES: 0
PSCL5 PREFETCHES SAME FILL-ORIGIN LEVEL: 0 DIFFERENT FILL-ORIGIN LEVEL: 0

PSCL4 TOTAL     ACCESS:       2652  HIT:       2640  MISS:         12  HIT %:    99.5475  MISS %:   0.452489   MPKI: 0.00024
PSCL4 LOAD TRANSLATION ACCESS:       2652  HIT:       2640  MISS:         12  HIT %:    99.5475  MISS %:   0.452489   MPKI: 0.00024
PSCL4 PREFETCH  REQUESTED:          0  ISSUED:          0  USEFUL:          0  USELESS:          0
PSCL4 USEFUL LOAD PREFETCHES:          0 PREFETCH ISSUED TO LOWER LEVEL:          0  ACCURACY: -nan
PSCL4 TIMELY PREFETCHES:          0 LATE PREFETCHES: 0 DROPPED PREFETCHES: 0
PSCL4 PREFETCHES SAME FILL-ORIGIN LEVEL: 0 DIFFERENT FILL-ORIGIN LEVEL: 0

PSCL3 TOTAL     ACCESS:       2842  HIT:       2830  MISS:         12  HIT %:    99.5778  MISS %:   0.422238   MPKI: 0.00024
PSCL3 LOAD TRANSLATION ACCESS:       2842  HIT:       2830  MISS:         12  HIT %:    99.5778  MISS %:   0.422238   MPKI: 0.00024
PSCL3 PREFETCH  REQUESTED:          0  ISSUED:          0  USEFUL:          0  USELESS:          0
PSCL3 USEFUL LOAD PREFETCHES:          0 PREFETCH ISSUED TO LOWER LEVEL:          0  ACCURACY: -nan
PSCL3 TIMELY PREFETCHES:          0 LATE PREFETCHES: 0 DROPPED PREFETCHES: 0
PSCL3 PREFETCHES SAME FILL-ORIGIN LEVEL: 0 DIFFERENT FILL-ORIGIN LEVEL: 0

PSCL2 TOTAL     ACCESS:       2870  HIT:       2613  MISS:        257  HIT %:    91.0453  MISS %:     8.9547   MPKI: 0.00514
PSCL2 LOAD TRANSLATION ACCESS:       2870  HIT:       2613  MISS:        257  HIT %:    91.0453  MISS %:     8.9547   MPKI: 0.00514
PSCL2 PREFETCH  REQUESTED:          0  ISSUED:          0  USEFUL:          0  USELESS:          0
PSCL2 USEFUL LOAD PREFETCHES:          0 PREFETCH ISSUED TO LOWER LEVEL:          0  ACCURACY: -nan
PSCL2 TIMELY PREFETCHES:          0 LATE PREFETCHES: 0 DROPPED PREFETCHES: 0
PSCL2 PREFETCHES SAME FILL-ORIGIN LEVEL: 0 DIFFERENT FILL-ORIGIN LEVEL: 0

LLC TOTAL     ACCESS:     905128  HIT:     865209  MISS:      39919  HIT %:    95.5897  MISS %:    4.41032   MPKI: 0.79838
LLC LOAD      ACCESS:     493927  HIT:     488548  MISS:       5379  HIT %:     98.911  MISS %:    1.08903   MPKI: 0.10758
LLC RFO       ACCESS:      98149  HIT:      79141  MISS:      19008  HIT %:    80.6335  MISS %:    19.3665   MPKI: 0.38016
LLC PREFETCH  ACCESS:     158691  HIT:     143444  MISS:      15247  HIT %:     90.392  MISS %:    9.60798   MPKI: 0.30494
LLC WRITEBACK ACCESS:     152321  HIT:     152259  MISS:         62  HIT %:    99.9593  MISS %:  0.0407035   MPKI: 0.00124
LLC LOAD TRANSLATION ACCESS:       2040  HIT:       1817  MISS:        223  HIT %:    89.0686  MISS %:    10.9314   MPKI: 0.00446
LLC PREFETCH  REQUESTED:          0  ISSUED:          0  USEFUL:       1514  USELESS:      12269
LLC USEFUL LOAD PREFETCHES:       1514 PREFETCH ISSUED TO LOWER LEVEL:      15247  ACCURACY: 9.92982
LLC TIMELY PREFETCHES:       1514 LATE PREFETCHES: 0 DROPPED PREFETCHES: 0
LLC PREFETCHES SAME FILL-ORIGIN LEVEL: 0 DIFFERENT FILL-ORIGIN LEVEL: 0
LLC AVERAGE MISS LATENCY: 142.293 cycles
LLC RQ	ACCESS:     594116	FORWARD:          0	MERGED:          0	TO_CACHE:     594116
LLC WQ	ACCESS:     152321	FORWARD:         15	MERGED:          0	TO_CACHE:     152321
LLC PQ	ACCESS:     158706	FORWARD:          0	MERGED:          0	TO_CACHE:     158691

LLC Dense regions hint to LLC: 0

RAW hits: 514221
Loads Generated: 12457424
Loads sent to L1D: 11943202
Stores Generated: 6767677
Stores sent to L1D: 6767682
Major fault: 0 Minor fault: 2253
Allocated PAGES: 2253

stream: 
stream:times selected: 1227461
stream:pref_filled: 108884
stream:pref_useful: 18319
stream:pref_late: 44346
stream:misses: 13161
stream:misses_by_poll: 0

CS: 
CS:times selected: 168948
CS:pref_filled: 71332
CS:pref_useful: 51833
CS:pref_late: 4606
CS:misses: 9486
CS:misses_by_poll: 9

CPLX: 
CPLX:times selected: 1056267
CPLX:pref_filled: 31071
CPLX:pref_useful: 8359
CPLX:pref_late: 3049
CPLX:misses: 117986
CPLX:misses_by_poll: 9

NL_L1: 
NL:times selected: 6909
NL:pref_filled: 729
NL:pref_useful: 96
NL:pref_late: 13
NL:misses: 462
NL:misses_by_poll: 0

total selections: 2459585
total_filled: 176634
total_useful: 62194
total_late: 54261
total_polluted: 18
total_misses_after_warmup: 714032
conflicts: 3041675
Degree Incremented Times: 0
Degree Decremented Times: 124403

L1 IP Table Write Accesses: 5355557
L1 IP Table Read Accesses: 2313882
L1 RST Write Accesses: 1026595
L1 RST Read Accesses: 2053190
L1 CSPT Write Accesses: 1026595
L1 CSPT Read Accesses: 1909750
L1 RR Filter Tag Write Accesses: 638525
L1 RR Filter Tag Read Accesses: 45985696
L1 IP Table Tag Write Accesses: 8688406
L1 IP Table Tag Read Accesses: 8688406
L1 RST Tag Write Accesses: 0
L1 RST Tag Read Accesses: 7804288
L1 RR Filter Write Accesses: 0
L1 RR Filter Read Accesses: 1686024
test: 205630
L2 IP Table Read Accesses: 1158665
L2 IP Table Write Accesses: 1527122
L2 IP Table Tag Read Accesses: 847957
L2 IP Table Tag Write Accesses: 847957

DRAM Statistics
 CHANNEL 0
 RQ ROW_BUFFER_HIT:      17486  ROW_BUFFER_MISS:      22369
 DBUS_CONGESTED:         24
 WQ ROW_BUFFER_HIT:       1348  ROW_BUFFER_MISS:      12540  FULL:          0

 AVG_CONGESTED_CYCLE: 4
 All warmup complete: 2
Channel 0 Bank busy for read cycles: 0
Channel 0 Bank busy for write cycles: 0
Channel 0
Rank 0
0banks busy for read cycles: 115726267
0banks busy for write cycles: 3572
1banks busy for read cycles: 851530
1banks busy for write cycles: 404380
2banks busy for read cycles: 596797
2banks busy for write cycles: 162705
3banks busy for read cycles: 145251
3banks busy for write cycles: 74087
4banks busy for read cycles: 100714
4banks busy for write cycles: 56182
5banks busy for read cycles: 48221
5banks busy for write cycles: 45596
6banks busy for read cycles: 36299
6banks busy for write cycles: 38696
7banks busy for read cycles: 32918
7banks busy for write cycles: 37108
8banks busy for read cycles: 83152
8banks busy for write cycles: 77852

CPU 0 Branch Prediction Accuracy: 91.9303% MPKI: 14.7766 Average ROB Occupancy at Mispredict: 18.2959
Branch types
NOT_BRANCH: 40843974 81.6879%
BRANCH_DIRECT_JUMP: 566002 1.132%
BRANCH_INDIRECT: 196710 0.39342%
BRANCH_CONDITIONAL: 6309385 12.6188%
BRANCH_DIRECT_CALL: 880330 1.76066%
BRANCH_INDIRECT_CALL: 161449 0.322898%
BRANCH_RETURN: 1041783 2.08357%
BRANCH_OTHER: 0 0%

@sumon_overall_L1D     62194     52901    114461    176634   1276735   1276735
@Sumon_Early_by_class_L1D     12403     44093      4861         8
@Sumon_Late_by_class_L1D     43613      4421      2762         8

@Sumon_Early_by_cycle_L1D     48686      3411      1862      1164       416      1545       778      1957       892      1185       185       113
@Sumon_Late_by_cycle_L1D     51833      1047        15         4         2         0         0         0         0         0         0         0
@Sumon_Early_stream_L1D      4955      1010      1163       913       298       575       605      1194       488       917       173       112
@Sumon_Early_CS_L1D     39822      2225       532       163        32       863        43       367        18        27         0         1
@Sumon_Early_CPLX_L1D      3620       129       135        63        27        74       126       378       150       149        10         0
@Sumon_Late_stream_L1D     43272       340         0         1         0         0         0         0         0         0         0         0
@Sumon_Late_CS_L1D      3789       612        15         3         2         0         0         0         0         0         0         0
@Sumon_Late_CPLX_L1D      2737        25         0         0         0         0         0         0         0         0         0         0
@sumon_overall_L2C     25846      2369    130459    156337    532851    532851
@Sumon_Early_by_class_L2C      2969       223       501         0
@Sumon_Late_by_class_L2C         0         0         0         0

@Sumon_Early_by_cycle_L2C      4607      1898      1563      1509       689      3324      2166      1549       782       948      1299      5512
@Sumon_Late_by_cycle_L2C      1815       554         0         0         0         0         0         0         0         0         0         0
@Sumon_Early_stream_L2C         0         0         0         0         0         6         3         6        19        60       351      2524
@Sumon_Early_CS_L2C         0         0         0         0         0         0         0         0         1         0         1       221
@Sumon_Early_CPLX_L2C         0         0         0         0         0         0         0         1         1         9        57       433
@Sumon_Late_stream_L2C         0         0         0         0         0         0         0         0         0         0         0         0
@Sumon_Late_CS_L2C         0         0         0         0         0         0         0         0         0         0         0         0
@Sumon_Late_CPLX_L2C         0         0         0         0         0         0         0         0         0         0         0         0
DRAM PAGES: 1048576
Allocated PAGES: 2253
