
*** ChampSim Multicore Out-of-Order Simulator ***

Warmup Instructions: 10000000
Simulation Instructions: 50000000
Number of CPUs: 1
LLC sets: 2048
LLC ways: 16
Off-chip DRAM Size: 4096 MB Channels: 1 Width: 64-bit Data Rate: 6400 MT/s
CPU 0 runs traces/clientserver/server_017.champsimtrace.xz
.xz
CPU 0 Bimodal branch predictor
BTB has LRU replacement policy
ITLB has LRU replacement policy
DTLB has LRU replacement policy
STLB has LRU replacement policy
L1I has LRU replacement policy
IP Table Entries: 256
Initialize SRRIP state for L1D
IP_Table L2 entries: 256
L2C has LRU replacement policy
LLC has LRU replacement policy
Heartbeat CPU 0 instructions: 10000000 cycles: 3152264 heartbeat IPC: 3.17232 cumulative IPC: 3.17232 (Simulation time: 0 hr 19 min 30 sec) 

Warmup complete CPU 0 instructions: 10000004 cycles: 3152265 (Simulation time: 0 hr 19 min 30 sec) 

Heartbeat CPU 0 instructions: 20000000 cycles: 27722432 heartbeat IPC: 0.406998 cumulative IPC: 0.406997 (Simulation time: 0 hr 45 min 27 sec) 
Heartbeat CPU 0 instructions: 30000001 cycles: 52154946 heartbeat IPC: 0.409291 cumulative IPC: 0.408141 (Simulation time: 1 hr 11 min 8 sec) 
Heartbeat CPU 0 instructions: 40000003 cycles: 76621827 heartbeat IPC: 0.408716 cumulative IPC: 0.408332 (Simulation time: 1 hr 36 min 56 sec) 
Heartbeat CPU 0 instructions: 50000001 cycles: 100967183 heartbeat IPC: 0.410756 cumulative IPC: 0.408936 (Simulation time: 1 hr 47 min 23 sec) 
Heartbeat CPU 0 instructions: 60000000 cycles: 125398295 heartbeat IPC: 0.409314 cumulative IPC: 0.409011 (Simulation time: 1 hr 51 min 20 sec) 
Finished CPU 0 instructions: 50000002 cycles: 122246045 cumulative IPC: 0.409011 (Simulation time: 1 hr 51 min 20 sec) 

ChampSim completed all CPUs

Region of Interest Statistics

CPU 0 cumulative IPC: 0.409011 instructions: 50000002 cycles: 122246045
ITLB TOTAL     ACCESS:    8942336  HIT:    8571069  MISS:     371267  HIT %:    95.8482  MISS %:    4.15179   MPKI: 7.42534
ITLB LOAD TRANSLATION ACCESS:    8942336  HIT:    8571069  MISS:     371267  HIT %:    95.8482  MISS %:    4.15179   MPKI: 7.42534
ITLB PREFETCH  REQUESTED:          0  ISSUED:          0  USEFUL:          0  USELESS:          0
ITLB USEFUL LOAD PREFETCHES:          0 PREFETCH ISSUED TO LOWER LEVEL:          0  ACCURACY: -nan
ITLB TIMELY PREFETCHES:          0 LATE PREFETCHES: 0 DROPPED PREFETCHES: 0
ITLB PREFETCHES SAME FILL-ORIGIN LEVEL: 0 DIFFERENT FILL-ORIGIN LEVEL: 0
ITLB AVERAGE MISS LATENCY: 9.52964 cycles
ITLB RQ	ACCESS:   10525938	FORWARD:          0	MERGED:    1463615	TO_CACHE:    9062323

DTLB TOTAL     ACCESS:   11643387  HIT:   11216436  MISS:     426951  HIT %:    96.3331  MISS %:     3.6669   MPKI: 8.53902
DTLB LOAD TRANSLATION ACCESS:   11643387  HIT:   11216436  MISS:     426951  HIT %:    96.3331  MISS %:     3.6669   MPKI: 8.53902
DTLB PREFETCH  REQUESTED:          0  ISSUED:          0  USEFUL:          0  USELESS:          0
DTLB USEFUL LOAD PREFETCHES:          0 PREFETCH ISSUED TO LOWER LEVEL:          0  ACCURACY: -nan
DTLB TIMELY PREFETCHES:          0 LATE PREFETCHES: 0 DROPPED PREFETCHES: 0
DTLB PREFETCHES SAME FILL-ORIGIN LEVEL: 0 DIFFERENT FILL-ORIGIN LEVEL: 0
DTLB AVERAGE MISS LATENCY: 23.9949 cycles
DTLB RQ	ACCESS:   16630859	FORWARD:          0	MERGED:    4915078	TO_CACHE:   11715781

STLB TOTAL     ACCESS:    1470507  HIT:    1431789  MISS:      38718  HIT %:     97.367  MISS %:    2.63297   MPKI: 0.77436
STLB LOAD TRANSLATION ACCESS:     798218  HIT:     759500  MISS:      38718  HIT %:    95.1494  MISS %:    4.85055   MPKI: 0.77436
STLB TRANSLATION FROM L1D PREFETCHER ACCESS:     672289  HIT:     672289  MISS:          0  HIT %:        100  MISS %:          0   MPKI: 0
STLB PREFETCH  REQUESTED:          0  ISSUED:          0  USEFUL:          0  USELESS:          0
STLB USEFUL LOAD PREFETCHES:          0 PREFETCH ISSUED TO LOWER LEVEL:          0  ACCURACY: -nan
STLB TIMELY PREFETCHES:          0 LATE PREFETCHES: 0 DROPPED PREFETCHES: 0
STLB PREFETCHES SAME FILL-ORIGIN LEVEL: 0 DIFFERENT FILL-ORIGIN LEVEL: 0
STLB AVERAGE MISS LATENCY: 170.165 cycles
STLB RQ	ACCESS:    1559738	FORWARD:          0	MERGED:      89230	TO_CACHE:    1470508

STLB Hit, L1D data hit: 0
STLB Hit, L2C data hit: 0
STLB Hit, LLC data hit: 0
STLB Hit, LLC data miss: 0
STLB STLB hints to L2: 0
L1D TOTAL     ACCESS:   14639474  HIT:   12686612  MISS:    1952862  HIT %:    86.6603  MISS %:    13.3397   MPKI: 39.0572
L1D LOAD      ACCESS:    7966478  HIT:    7364679  MISS:     601799  HIT %:    92.4459  MISS %:    7.55414   MPKI: 12.036
L1D RFO       ACCESS:    5982102  HIT:    5023636  MISS:     958466  HIT %:    83.9778  MISS %:    16.0222   MPKI: 19.1693
L1D PREFETCH  ACCESS:     690894  HIT:     298297  MISS:     392597  HIT %:    43.1755  MISS %:    56.8245   MPKI: 7.85194
L1D PREFETCH  REQUESTED:    1524763  ISSUED:    1523066  USEFUL:     275243  USELESS:     117357
L1D USEFUL LOAD PREFETCHES:     275243 PREFETCH ISSUED TO LOWER LEVEL:     447211  ACCURACY: 61.5466
L1D TIMELY PREFETCHES:     275243 LATE PREFETCHES: 54575 DROPPED PREFETCHES: 0
L1D PREFETCHES SAME FILL-ORIGIN LEVEL: 447211 DIFFERENT FILL-ORIGIN LEVEL: 0
L1D AVERAGE MISS LATENCY: 1.79211e+06 cycles
L1D RQ	ACCESS:   11498782	FORWARD:          0	MERGED:    3366863	TO_CACHE:    8008488
L1D WQ	ACCESS:    8685053	FORWARD:     123457	MERGED:      62682	TO_CACHE:    8622371
L1D PQ	ACCESS:     761546	FORWARD:          0	MERGED:          0	TO_CACHE:     761520

L1D UNIQUE REGIONS ACCESSED: 0
L1D REGIONS CONFLICTS: 0
L1D Cross Page Prefetch Requests: 0
L1D Same Page Prefetch Requests: 915807
L1D ROI Sum of L1D PQ occupancy: 12205319
L1D PREFETCHES PUSHED FROM L2C: 0
L1I TOTAL     ACCESS:    9809078  HIT:    7421104  MISS:    2387974  HIT %:    75.6555  MISS %:    24.3445   MPKI: 47.7595
L1I LOAD      ACCESS:    9809078  HIT:    7421104  MISS:    2387974  HIT %:    75.6555  MISS %:    24.3445   MPKI: 47.7595
L1I PREFETCH  REQUESTED:          0  ISSUED:          0  USEFUL:          0  USELESS:          0
L1I USEFUL LOAD PREFETCHES:          0 PREFETCH ISSUED TO LOWER LEVEL:          0  ACCURACY: -nan
L1I TIMELY PREFETCHES:          0 LATE PREFETCHES: 0 DROPPED PREFETCHES: 0
L1I PREFETCHES SAME FILL-ORIGIN LEVEL: 0 DIFFERENT FILL-ORIGIN LEVEL: 0
L1I AVERAGE MISS LATENCY: 16.9856 cycles
L1I RQ	ACCESS:   14490308	FORWARD:          0	MERGED:    3964370	TO_CACHE:   10525938

BTB TOTAL     ACCESS:    5360496  HIT:    5095937  MISS:     264559  HIT %:    95.0647  MISS %:    4.93535   MPKI: 5.29118
BTB BRANCH_DIRECT_JUMP	ACCESS:     456444  HIT:     454688  MISS:       1756
BTB BRANCH_INDIRECT	ACCESS:      50083  HIT:      49903  MISS:        180
BTB BRANCH_CONDITIONAL	ACCESS:    3033031  HIT:    3027406  MISS:       5625
BTB BRANCH_DIRECT_CALL	ACCESS:     742789  HIT:     739175  MISS:       3614
BTB BRANCH_INDIRECT_CALL	ACCESS:     167677  HIT:     138914  MISS:      28763
BTB BRANCH_RETURN	ACCESS:     910472  HIT:     685851  MISS:     224621
BTB BRANCH_OTHER ACCESS:          0  HIT:          0  MISS:          0

L2C TOTAL     ACCESS:    6011415  HIT:    4130335  MISS:    1881080  HIT %:    68.7082  MISS %:    31.2918   MPKI: 37.6216
L2C LOAD      ACCESS:    2935175  HIT:    2506811  MISS:     428364  HIT %:    85.4058  MISS %:    14.5942   MPKI: 8.56728
L2C DATA LOAD MPKI: 5.80708
L2C INSTRUCTION LOAD MPKI: 2.7602
L2C RFO       ACCESS:     958452  HIT:      28872  MISS:     929580  HIT %:    3.01236  MISS %:    96.9876   MPKI: 18.5916
L2C PREFETCH  ACCESS:     928116  HIT:     438459  MISS:     489657  HIT %:    47.2418  MISS %:    52.7582   MPKI: 9.79314
L2C DATA PREFETCH MPKI: 9.79314
L2C INSTRUCTION PREFETCH MPKI: 0
L2C WRITEBACK ACCESS:    1138332  HIT:    1135137  MISS:       3195  HIT %:    99.7193  MISS %:   0.280674   MPKI: 0.0639
L2C LOAD TRANSLATION ACCESS:      51340  HIT:      21056  MISS:      30284  HIT %:    41.0129  MISS %:    58.9871   MPKI: 0.60568
L2C PREFETCH  REQUESTED:     757475  ISSUED:     757473  USEFUL:      59833  USELESS:     429816
L2C USEFUL LOAD PREFETCHES:      59833 PREFETCH ISSUED TO LOWER LEVEL:     492548  ACCURACY: 12.1476
L2C TIMELY PREFETCHES:      59833 LATE PREFETCHES: 2892 DROPPED PREFETCHES: 0
L2C PREFETCHES SAME FILL-ORIGIN LEVEL: 372069 DIFFERENT FILL-ORIGIN LEVEL: 0
L2C AVERAGE MISS LATENCY: 196.161 cycles
L2C RQ	ACCESS:    3944999	FORWARD:          0	MERGED:          0	TO_CACHE:    3944970
L2C WQ	ACCESS:    1138333	FORWARD:         30	MERGED:          0	TO_CACHE:    1138333
L2C PQ	ACCESS:    1204653	FORWARD:          0	MERGED:      54963	TO_CACHE:    1149689

L2C Instructions Evicting Data 127504
L2C Translations Evicting Data 27518
L2C Data Evicting Data 1555123
L2C Instructions Evicting Instructions 8120
L2C Translations Evicting Instructions 2344
L2C Data Evicting Instructions 127076
L2C Instructions Evicting Translations 2386
L2C Translations Evicting Translations 422
L2C Data Evicting Translations 27392
L2C Dense regions hint from L2: 0
PSCL5 TOTAL     ACCESS:      38718  HIT:      38718  MISS:          0  HIT %:        100  MISS %:          0   MPKI: 0
PSCL5 LOAD TRANSLATION ACCESS:      38718  HIT:      38718  MISS:          0  HIT %:        100  MISS %:          0   MPKI: 0
PSCL5 PREFETCH  REQUESTED:          0  ISSUED:          0  USEFUL:          0  USELESS:          0
PSCL5 USEFUL LOAD PREFETCHES:          0 PREFETCH ISSUED TO LOWER LEVEL:          0  ACCURACY: -nan
PSCL5 TIMELY PREFETCHES:          0 LATE PREFETCHES: 0 DROPPED PREFETCHES: 0
PSCL5 PREFETCHES SAME FILL-ORIGIN LEVEL: 0 DIFFERENT FILL-ORIGIN LEVEL: 0

PSCL4 TOTAL     ACCESS:      37698  HIT:      37575  MISS:        123  HIT %:    99.6737  MISS %:   0.326277   MPKI: 0.00246
PSCL4 LOAD TRANSLATION ACCESS:      37698  HIT:      37575  MISS:        123  HIT %:    99.6737  MISS %:   0.326277   MPKI: 0.00246
PSCL4 PREFETCH  REQUESTED:          0  ISSUED:          0  USEFUL:          0  USELESS:          0
PSCL4 USEFUL LOAD PREFETCHES:          0 PREFETCH ISSUED TO LOWER LEVEL:          0  ACCURACY: -nan
PSCL4 TIMELY PREFETCHES:          0 LATE PREFETCHES: 0 DROPPED PREFETCHES: 0
PSCL4 PREFETCHES SAME FILL-ORIGIN LEVEL: 0 DIFFERENT FILL-ORIGIN LEVEL: 0

PSCL3 TOTAL     ACCESS:      38396  HIT:      37872  MISS:        524  HIT %:    98.6353  MISS %:    1.36473   MPKI: 0.01048
PSCL3 LOAD TRANSLATION ACCESS:      38396  HIT:      37872  MISS:        524  HIT %:    98.6353  MISS %:    1.36473   MPKI: 0.01048
PSCL3 PREFETCH  REQUESTED:          0  ISSUED:          0  USEFUL:          0  USELESS:          0
PSCL3 USEFUL LOAD PREFETCHES:          0 PREFETCH ISSUED TO LOWER LEVEL:          0  ACCURACY: -nan
PSCL3 TIMELY PREFETCHES:          0 LATE PREFETCHES: 0 DROPPED PREFETCHES: 0
PSCL3 PREFETCHES SAME FILL-ORIGIN LEVEL: 0 DIFFERENT FILL-ORIGIN LEVEL: 0

PSCL2 TOTAL     ACCESS:      38718  HIT:      26711  MISS:      12007  HIT %:    68.9886  MISS %:    31.0114   MPKI: 0.24014
PSCL2 LOAD TRANSLATION ACCESS:      38718  HIT:      26711  MISS:      12007  HIT %:    68.9886  MISS %:    31.0114   MPKI: 0.24014
PSCL2 PREFETCH  REQUESTED:          0  ISSUED:          0  USEFUL:          0  USELESS:          0
PSCL2 USEFUL LOAD PREFETCHES:          0 PREFETCH ISSUED TO LOWER LEVEL:          0  ACCURACY: -nan
PSCL2 TIMELY PREFETCHES:          0 LATE PREFETCHES: 0 DROPPED PREFETCHES: 0
PSCL2 PREFETCHES SAME FILL-ORIGIN LEVEL: 0 DIFFERENT FILL-ORIGIN LEVEL: 0

LLC TOTAL     ACCESS:    2972680  HIT:    1656524  MISS:    1316156  HIT %:    55.7249  MISS %:    44.2751   MPKI: 26.3231
LLC LOAD      ACCESS:     425851  HIT:     292261  MISS:     133590  HIT %:    68.6299  MISS %:    31.3701   MPKI: 2.6718
LLC RFO       ACCESS:     929196  HIT:     139080  MISS:     790116  HIT %:    14.9678  MISS %:    85.0322   MPKI: 15.8023
LLC PREFETCH  ACCESS:     492549  HIT:     118323  MISS:     374226  HIT %:    24.0226  MISS %:    75.9774   MPKI: 7.48452
LLC WRITEBACK ACCESS:    1094800  HIT:    1093208  MISS:       1592  HIT %:    99.8546  MISS %:   0.145415   MPKI: 0.03184
LLC LOAD TRANSLATION ACCESS:      30284  HIT:      13652  MISS:      16632  HIT %:    45.0799  MISS %:    54.9201   MPKI: 0.33264
LLC PREFETCH  REQUESTED:          0  ISSUED:          0  USEFUL:       8564  USELESS:     365959
LLC USEFUL LOAD PREFETCHES:       8564 PREFETCH ISSUED TO LOWER LEVEL:     374225  ACCURACY: 2.28846
LLC TIMELY PREFETCHES:       8564 LATE PREFETCHES: 0 DROPPED PREFETCHES: 0
LLC PREFETCHES SAME FILL-ORIGIN LEVEL: 0 DIFFERENT FILL-ORIGIN LEVEL: 0
LLC AVERAGE MISS LATENCY: 236 cycles
LLC RQ	ACCESS:    1385337	FORWARD:          0	MERGED:          0	TO_CACHE:    1385332
LLC WQ	ACCESS:    1094801	FORWARD:          5	MERGED:          0	TO_CACHE:    1094801
LLC PQ	ACCESS:     492548	FORWARD:          0	MERGED:          0	TO_CACHE:     492548

LLC Dense regions hint to LLC: 0

RAW hits: 887187
Loads Generated: 12385973
Loads sent to L1D: 11498782
Stores Generated: 8685032
Stores sent to L1D: 8685053
Major fault: 0 Minor fault: 17732
Allocated PAGES: 17732

stream: 
stream:times selected: 2323459
stream:pref_filled: 103802
stream:pref_useful: 13238
stream:pref_late: 2594
stream:misses: 20001
stream:misses_by_poll: 0

CS: 
CS:times selected: 2001038
CS:pref_filled: 336454
CS:pref_useful: 322530
CS:pref_late: 50740
CS:misses: 58986
CS:misses_by_poll: 530

CPLX: 
CPLX:times selected: 315298
CPLX:pref_filled: 34515
CPLX:pref_useful: 1334
CPLX:pref_late: 158
CPLX:misses: 59043
CPLX:misses_by_poll: 29

NL_L1: 
NL:times selected: 986
NL:pref_filled: 361
NL:pref_useful: 17
NL:pref_late: 14
NL:misses: 448
NL:misses_by_poll: 0

total selections: 4640781
total_filled: 392597
total_useful: 275243
total_late: 55196
total_polluted: 559
total_misses_after_warmup: 643810
conflicts: 2651301
Degree Incremented Times: 22750
Degree Decremented Times: 80545

L1 IP Table Write Accesses: 5183904
L1 IP Table Read Accesses: 2532603
L1 RST Write Accesses: 1931368
L1 RST Read Accesses: 3862736
L1 CSPT Write Accesses: 1931368
L1 CSPT Read Accesses: 2191696
L1 RR Filter Tag Write Accesses: 763243
L1 RR Filter Tag Read Accesses: 213065151
L1 IP Table Tag Write Accesses: 8008489
L1 IP Table Tag Read Accesses: 8008489
L1 RST Tag Write Accesses: 0
L1 RST Tag Read Accesses: 17714901
L1 RR Filter Write Accesses: 0
L1 RR Filter Read Accesses: 6944252
test: 163321
L2 IP Table Read Accesses: 1219123
L2 IP Table Write Accesses: 1321899
L2 IP Table Tag Read Accesses: 790949
L2 IP Table Tag Write Accesses: 790949

DRAM Statistics
 CHANNEL 0
 RQ ROW_BUFFER_HIT:     429569  ROW_BUFFER_MISS:     884902
 DBUS_CONGESTED:        482
 WQ ROW_BUFFER_HIT:     276746  ROW_BUFFER_MISS:     598510  FULL:          0

 AVG_CONGESTED_CYCLE: 3
 All warmup complete: 2
Channel 0 Bank busy for read cycles: 0
Channel 0 Bank busy for write cycles: 0
Channel 0
Rank 0
0banks busy for read cycles: 40508346
0banks busy for write cycles: 50567
1banks busy for read cycles: 15916067
1banks busy for write cycles: 6439308
2banks busy for read cycles: 9972185
2banks busy for write cycles: 3821840
3banks busy for read cycles: 6453225
3banks busy for write cycles: 2631864
4banks busy for read cycles: 6780277
4banks busy for write cycles: 2057798
5banks busy for read cycles: 2221361
5banks busy for write cycles: 1661855
6banks busy for read cycles: 1966940
6banks busy for write cycles: 1457567
7banks busy for read cycles: 1636508
7banks busy for write cycles: 2047500
8banks busy for read cycles: 5103520
8banks busy for write cycles: 11519318

CPU 0 Branch Prediction Accuracy: 96.293% MPKI: 6.14724 Average ROB Occupancy at Mispredict: 52.9102
Branch types
NOT_BRANCH: 41708620 83.4172%
BRANCH_DIRECT_JUMP: 456444 0.912888%
BRANCH_INDIRECT: 50083 0.100166%
BRANCH_CONDITIONAL: 5963860 11.9277%
BRANCH_DIRECT_CALL: 742789 1.48558%
BRANCH_INDIRECT_CALL: 167677 0.335354%
BRANCH_RETURN: 910472 1.82094%
BRANCH_OTHER: 0 0%

@sumon_overall_L1D    275243     54575    117357    392597   1523066   1524763
@Sumon_Early_by_class_L1D     10376    262487      1039        13
@Sumon_Late_by_class_L1D      2062     50716       106        13

@Sumon_Early_by_cycle_L1D    114232    143064     13304      1205       202       865       344       201       746      1040        23        17
@Sumon_Late_by_cycle_L1D     34764     15547      4074       190         0         0         0         0         0         0         0         0
@Sumon_Early_stream_L1D      8289       341       107        23        39       547       107        61        42       783        20        17
@Sumon_Early_CS_L1D    104553    142497     13123      1102       113        75        91        60       688       185         0         0
@Sumon_Early_CPLX_L1D       330        95        35        69        44       218       128        43        13        61         3         0
@Sumon_Late_stream_L1D       827      1231         4         0         0         0         0         0         0         0         0         0
@Sumon_Late_CS_L1D     32663     13793      4070       190         0         0         0         0         0         0         0         0
@Sumon_Late_CPLX_L1D        45        61         0         0         0         0         0         0         0         0         0         0
@sumon_overall_L2C     59833      2892    429816    489657    757473    757475
@Sumon_Early_by_class_L2C      1979      2103       485         0
@Sumon_Late_by_class_L2C         0       498         0         0

@Sumon_Early_by_cycle_L2C      7627      6686      5583      2220      1714     11089      2730       689      5801      2844      3037      9813
@Sumon_Late_by_cycle_L2C      1852      1034         6         0         0         0         0         0         0         0         0         0
@Sumon_Early_stream_L2C         0         0         0         0         0         0         5        11        25       404       473      1061
@Sumon_Early_CS_L2C       711       181        54        16        11        42        27        84       329       160       168       320
@Sumon_Early_CPLX_L2C         0         0         0         0         0         2        16       136         6        29        37       259
@Sumon_Late_stream_L2C         0         0         0         0         0         0         0         0         0         0         0         0
@Sumon_Late_CS_L2C       305       190         3         0         0         0         0         0         0         0         0         0
@Sumon_Late_CPLX_L2C         0         0         0         0         0         0         0         0         0         0         0         0
DRAM PAGES: 1048576
Allocated PAGES: 17732
