
*** ChampSim Multicore Out-of-Order Simulator ***

Warmup Instructions: 10000000
Simulation Instructions: 50000000
Number of CPUs: 1
LLC sets: 2048
LLC ways: 16
Off-chip DRAM Size: 4096 MB Channels: 1 Width: 64-bit Data Rate: 6400 MT/s
CPU 0 runs traces/clientserver/server_026.champsimtrace.xz
.xz
CPU 0 Bimodal branch predictor
BTB has LRU replacement policy
ITLB has LRU replacement policy
DTLB has LRU replacement policy
STLB has LRU replacement policy
L1I has LRU replacement policy
IP Table Entries: 256
Initialize SRRIP state for L1D
IP_Table L2 entries: 256
L2C has LRU replacement policy
LLC has LRU replacement policy
Heartbeat CPU 0 instructions: 10000000 cycles: 2886460 heartbeat IPC: 3.46445 cumulative IPC: 3.46445 (Simulation time: 0 hr 18 min 50 sec) 

Warmup complete CPU 0 instructions: 10000001 cycles: 2886461 (Simulation time: 0 hr 18 min 50 sec) 

Heartbeat CPU 0 instructions: 20000002 cycles: 28037652 heartbeat IPC: 0.397596 cumulative IPC: 0.397596 (Simulation time: 0 hr 36 min 36 sec) 
Heartbeat CPU 0 instructions: 30000000 cycles: 53155760 heartbeat IPC: 0.398119 cumulative IPC: 0.397857 (Simulation time: 0 hr 54 min 20 sec) 
Heartbeat CPU 0 instructions: 40000002 cycles: 78264075 heartbeat IPC: 0.398275 cumulative IPC: 0.397996 (Simulation time: 1 hr 11 min 57 sec) 
Heartbeat CPU 0 instructions: 50000000 cycles: 103285133 heartbeat IPC: 0.399663 cumulative IPC: 0.398412 (Simulation time: 1 hr 29 min 45 sec) 
*** Reached end of trace for Core: 0 Repeating trace: traces/clientserver/server_026.champsimtrace.xz
Heartbeat CPU 0 instructions: 60000000 cycles: 128460101 heartbeat IPC: 0.39722 cumulative IPC: 0.398173 (Simulation time: 1 hr 44 min 19 sec) 
Finished CPU 0 instructions: 50000001 cycles: 125573648 cumulative IPC: 0.398173 (Simulation time: 1 hr 44 min 19 sec) 

ChampSim completed all CPUs

Region of Interest Statistics

CPU 0 cumulative IPC: 0.398173 instructions: 50000001 cycles: 125573648
ITLB TOTAL     ACCESS:    8443144  HIT:    7955997  MISS:     487147  HIT %:    94.2303  MISS %:    5.76973   MPKI: 9.74294
ITLB LOAD TRANSLATION ACCESS:    8443144  HIT:    7955997  MISS:     487147  HIT %:    94.2303  MISS %:    5.76973   MPKI: 9.74294
ITLB PREFETCH  REQUESTED:          0  ISSUED:          0  USEFUL:          0  USELESS:          0
ITLB USEFUL LOAD PREFETCHES:          0 PREFETCH ISSUED TO LOWER LEVEL:          0  ACCURACY: -nan
ITLB TIMELY PREFETCHES:          0 LATE PREFETCHES: 0 DROPPED PREFETCHES: 0
ITLB PREFETCHES SAME FILL-ORIGIN LEVEL: 0 DIFFERENT FILL-ORIGIN LEVEL: 0
ITLB AVERAGE MISS LATENCY: 9.06547 cycles
ITLB RQ	ACCESS:   10070867	FORWARD:          0	MERGED:    1504208	TO_CACHE:    8566659

DTLB TOTAL     ACCESS:   12582621  HIT:   12105647  MISS:     476974  HIT %:    96.2093  MISS %:    3.79074   MPKI: 9.53948
DTLB LOAD TRANSLATION ACCESS:   12582621  HIT:   12105647  MISS:     476974  HIT %:    96.2093  MISS %:    3.79074   MPKI: 9.53948
DTLB PREFETCH  REQUESTED:          0  ISSUED:          0  USEFUL:          0  USELESS:          0
DTLB USEFUL LOAD PREFETCHES:          0 PREFETCH ISSUED TO LOWER LEVEL:          0  ACCURACY: -nan
DTLB TIMELY PREFETCHES:          0 LATE PREFETCHES: 0 DROPPED PREFETCHES: 0
DTLB PREFETCHES SAME FILL-ORIGIN LEVEL: 0 DIFFERENT FILL-ORIGIN LEVEL: 0
DTLB AVERAGE MISS LATENCY: 9.38721 cycles
DTLB RQ	ACCESS:   15693502	FORWARD:          0	MERGED:    3090453	TO_CACHE:   12603049

STLB TOTAL     ACCESS:    1396674  HIT:    1394438  MISS:       2236  HIT %:    99.8399  MISS %:   0.160095   MPKI: 0.04472
STLB LOAD TRANSLATION ACCESS:     964121  HIT:     961885  MISS:       2236  HIT %:    99.7681  MISS %:   0.231921   MPKI: 0.04472
STLB TRANSLATION FROM L1D PREFETCHER ACCESS:     432553  HIT:     432553  MISS:          0  HIT %:        100  MISS %:          0   MPKI: 0
STLB PREFETCH  REQUESTED:          0  ISSUED:          0  USEFUL:          0  USELESS:          0
STLB USEFUL LOAD PREFETCHES:          0 PREFETCH ISSUED TO LOWER LEVEL:          0  ACCURACY: -nan
STLB TIMELY PREFETCHES:          0 LATE PREFETCHES: 0 DROPPED PREFETCHES: 0
STLB PREFETCHES SAME FILL-ORIGIN LEVEL: 0 DIFFERENT FILL-ORIGIN LEVEL: 0
STLB AVERAGE MISS LATENCY: 92.3904 cycles
STLB RQ	ACCESS:    1526154	FORWARD:          0	MERGED:     129480	TO_CACHE:    1396674

STLB Hit, L1D data hit: 0
STLB Hit, L2C data hit: 0
STLB Hit, LLC data hit: 0
STLB Hit, LLC data miss: 0
STLB STLB hints to L2: 0
L1D TOTAL     ACCESS:   15716985  HIT:   14518086  MISS:    1198899  HIT %:     92.372  MISS %:    7.62805   MPKI: 23.978
L1D LOAD      ACCESS:    8808011  HIT:    8063441  MISS:     744570  HIT %:    91.5467  MISS %:    8.45333   MPKI: 14.8914
L1D RFO       ACCESS:    6401701  HIT:    6115312  MISS:     286389  HIT %:    95.5264  MISS %:    4.47364   MPKI: 5.72778
L1D PREFETCH  ACCESS:     507273  HIT:     339333  MISS:     167940  HIT %:    66.8936  MISS %:    33.1064   MPKI: 3.3588
L1D PREFETCH  REQUESTED:    1124321  ISSUED:    1124321  USEFUL:      57798  USELESS:     110147
L1D USEFUL LOAD PREFETCHES:      57798 PREFETCH ISSUED TO LOWER LEVEL:     208021  ACCURACY: 27.7847
L1D TIMELY PREFETCHES:      57798 LATE PREFETCHES: 39753 DROPPED PREFETCHES: 0
L1D PREFETCHES SAME FILL-ORIGIN LEVEL: 208021 DIFFERENT FILL-ORIGIN LEVEL: 0
L1D AVERAGE MISS LATENCY: 2.19869e+06 cycles
L1D RQ	ACCESS:   12101132	FORWARD:          0	MERGED:    3147429	TO_CACHE:    8840694
L1D WQ	ACCESS:    6899106	FORWARD:     113264	MERGED:      46298	TO_CACHE:    6852808
L1D PQ	ACCESS:     562288	FORWARD:          0	MERGED:          0	TO_CACHE:     562033

L1D UNIQUE REGIONS ACCESSED: 0
L1D REGIONS CONFLICTS: 0
L1D Cross Page Prefetch Requests: 0
L1D Same Page Prefetch Requests: 666803
L1D ROI Sum of L1D PQ occupancy: 7214991
L1D PREFETCHES PUSHED FROM L2C: 0
L1I TOTAL     ACCESS:    9609901  HIT:    6875390  MISS:    2734511  HIT %:    71.5449  MISS %:    28.4551   MPKI: 54.6902
L1I LOAD      ACCESS:    9609901  HIT:    6875390  MISS:    2734511  HIT %:    71.5449  MISS %:    28.4551   MPKI: 54.6902
L1I PREFETCH  REQUESTED:          0  ISSUED:          0  USEFUL:          0  USELESS:          0
L1I USEFUL LOAD PREFETCHES:          0 PREFETCH ISSUED TO LOWER LEVEL:          0  ACCURACY: -nan
L1I TIMELY PREFETCHES:          0 LATE PREFETCHES: 0 DROPPED PREFETCHES: 0
L1I PREFETCHES SAME FILL-ORIGIN LEVEL: 0 DIFFERENT FILL-ORIGIN LEVEL: 0
L1I AVERAGE MISS LATENCY: 18.915 cycles
L1I RQ	ACCESS:   13813594	FORWARD:          0	MERGED:    3742727	TO_CACHE:   10070867

BTB TOTAL     ACCESS:    5982230  HIT:    3991090  MISS:    1991140  HIT %:    66.7158  MISS %:    33.2842   MPKI: 39.8228
BTB BRANCH_DIRECT_JUMP	ACCESS:     522633  HIT:     348042  MISS:     174591
BTB BRANCH_INDIRECT	ACCESS:     204723  HIT:     167232  MISS:      37491
BTB BRANCH_CONDITIONAL	ACCESS:    3049093  HIT:    2491585  MISS:     557508
BTB BRANCH_DIRECT_CALL	ACCESS:     929734  HIT:     525672  MISS:     404062
BTB BRANCH_INDIRECT_CALL	ACCESS:     173167  HIT:      95072  MISS:      78095
BTB BRANCH_RETURN	ACCESS:    1102880  HIT:     363487  MISS:     739393
BTB BRANCH_OTHER ACCESS:          0  HIT:          0  MISS:          0

L2C TOTAL     ACCESS:    5036690  HIT:    4207653  MISS:     829037  HIT %:      83.54  MISS %:      16.46   MPKI: 16.5807
L2C LOAD      ACCESS:    3439281  HIT:    2885546  MISS:     553735  HIT %:    83.8997  MISS %:    16.1003   MPKI: 11.0747
L2C DATA LOAD MPKI: 2.37582
L2C INSTRUCTION LOAD MPKI: 8.69888
L2C RFO       ACCESS:     286056  HIT:     186357  MISS:      99699  HIT %:     65.147  MISS %:     34.853   MPKI: 1.99398
L2C PREFETCH  ACCESS:     803841  HIT:     642149  MISS:     161692  HIT %:    79.8851  MISS %:    20.1149   MPKI: 3.23384
L2C DATA PREFETCH MPKI: 3.23384
L2C INSTRUCTION PREFETCH MPKI: 0
L2C WRITEBACK ACCESS:     505125  HIT:     492852  MISS:      12273  HIT %:    97.5703  MISS %:     2.4297   MPKI: 0.24546
L2C LOAD TRANSLATION ACCESS:       2387  HIT:        749  MISS:       1638  HIT %:    31.3783  MISS %:    68.6217   MPKI: 0.03276
L2C PREFETCH  REQUESTED:     611820  ISSUED:     611820  USEFUL:      31457  USELESS:     130176
L2C USEFUL LOAD PREFETCHES:      31457 PREFETCH ISSUED TO LOWER LEVEL:     164149  ACCURACY: 19.1637
L2C TIMELY PREFETCHES:      31457 LATE PREFETCHES: 2457 DROPPED PREFETCHES: 0
L2C PREFETCHES SAME FILL-ORIGIN LEVEL: 97360 DIFFERENT FILL-ORIGIN LEVEL: 0
L2C AVERAGE MISS LATENCY: 34.6589 cycles
L2C RQ	ACCESS:    3727776	FORWARD:          0	MERGED:          0	TO_CACHE:    3727724
L2C WQ	ACCESS:     505125	FORWARD:         53	MERGED:          0	TO_CACHE:     505125
L2C PQ	ACCESS:     819841	FORWARD:          0	MERGED:       6110	TO_CACHE:     813730

L2C Instructions Evicting Data 188025
L2C Translations Evicting Data 1198
L2C Data Evicting Data 198947
L2C Instructions Evicting Instructions 246438
L2C Translations Evicting Instructions 395
L2C Data Evicting Instructions 180111
L2C Instructions Evicting Translations 480
L2C Translations Evicting Translations 45
L2C Data Evicting Translations 1106
L2C Dense regions hint from L2: 0
PSCL5 TOTAL     ACCESS:       2236  HIT:       2236  MISS:          0  HIT %:        100  MISS %:          0   MPKI: 0
PSCL5 LOAD TRANSLATION ACCESS:       2236  HIT:       2236  MISS:          0  HIT %:        100  MISS %:          0   MPKI: 0
PSCL5 PREFETCH  REQUESTED:          0  ISSUED:          0  USEFUL:          0  USELESS:          0
PSCL5 USEFUL LOAD PREFETCHES:          0 PREFETCH ISSUED TO LOWER LEVEL:          0  ACCURACY: -nan
PSCL5 TIMELY PREFETCHES:          0 LATE PREFETCHES: 0 DROPPED PREFETCHES: 0
PSCL5 PREFETCHES SAME FILL-ORIGIN LEVEL: 0 DIFFERENT FILL-ORIGIN LEVEL: 0

PSCL4 TOTAL     ACCESS:       2081  HIT:       2069  MISS:         12  HIT %:    99.4234  MISS %:   0.576646   MPKI: 0.00024
PSCL4 LOAD TRANSLATION ACCESS:       2081  HIT:       2069  MISS:         12  HIT %:    99.4234  MISS %:   0.576646   MPKI: 0.00024
PSCL4 PREFETCH  REQUESTED:          0  ISSUED:          0  USEFUL:          0  USELESS:          0
PSCL4 USEFUL LOAD PREFETCHES:          0 PREFETCH ISSUED TO LOWER LEVEL:          0  ACCURACY: -nan
PSCL4 TIMELY PREFETCHES:          0 LATE PREFETCHES: 0 DROPPED PREFETCHES: 0
PSCL4 PREFETCHES SAME FILL-ORIGIN LEVEL: 0 DIFFERENT FILL-ORIGIN LEVEL: 0

PSCL3 TOTAL     ACCESS:       2120  HIT:       2107  MISS:         13  HIT %:    99.3868  MISS %:   0.613208   MPKI: 0.00026
PSCL3 LOAD TRANSLATION ACCESS:       2120  HIT:       2107  MISS:         13  HIT %:    99.3868  MISS %:   0.613208   MPKI: 0.00026
PSCL3 PREFETCH  REQUESTED:          0  ISSUED:          0  USEFUL:          0  USELESS:          0
PSCL3 USEFUL LOAD PREFETCHES:          0 PREFETCH ISSUED TO LOWER LEVEL:          0  ACCURACY: -nan
PSCL3 TIMELY PREFETCHES:          0 LATE PREFETCHES: 0 DROPPED PREFETCHES: 0
PSCL3 PREFETCHES SAME FILL-ORIGIN LEVEL: 0 DIFFERENT FILL-ORIGIN LEVEL: 0

PSCL2 TOTAL     ACCESS:       2236  HIT:       2101  MISS:        135  HIT %:    93.9624  MISS %:    6.03757   MPKI: 0.0027
PSCL2 LOAD TRANSLATION ACCESS:       2236  HIT:       2101  MISS:        135  HIT %:    93.9624  MISS %:    6.03757   MPKI: 0.0027
PSCL2 PREFETCH  REQUESTED:          0  ISSUED:          0  USEFUL:          0  USELESS:          0
PSCL2 USEFUL LOAD PREFETCHES:          0 PREFETCH ISSUED TO LOWER LEVEL:          0  ACCURACY: -nan
PSCL2 TIMELY PREFETCHES:          0 LATE PREFETCHES: 0 DROPPED PREFETCHES: 0
PSCL2 PREFETCHES SAME FILL-ORIGIN LEVEL: 0 DIFFERENT FILL-ORIGIN LEVEL: 0

LLC TOTAL     ACCESS:     979014  HIT:     946654  MISS:      32360  HIT %:    96.6946  MISS %:    3.30537   MPKI: 0.6472
LLC LOAD      ACCESS:     551381  HIT:     546597  MISS:       4784  HIT %:    99.1324  MISS %:    0.86764   MPKI: 0.09568
LLC RFO       ACCESS:      99592  HIT:      84042  MISS:      15550  HIT %:    84.3863  MISS %:    15.6137   MPKI: 0.311
LLC PREFETCH  ACCESS:     164149  HIT:     152385  MISS:      11764  HIT %:    92.8333  MISS %:    7.16666   MPKI: 0.23528
LLC WRITEBACK ACCESS:     162254  HIT:     162177  MISS:         77  HIT %:    99.9525  MISS %:  0.0474565   MPKI: 0.00154
LLC LOAD TRANSLATION ACCESS:       1638  HIT:       1453  MISS:        185  HIT %:    88.7057  MISS %:    11.2943   MPKI: 0.0037
LLC PREFETCH  REQUESTED:          0  ISSUED:          0  USEFUL:        938  USELESS:       6552
LLC USEFUL LOAD PREFETCHES:        938 PREFETCH ISSUED TO LOWER LEVEL:      11764  ACCURACY: 7.97348
LLC TIMELY PREFETCHES:        938 LATE PREFETCHES: 0 DROPPED PREFETCHES: 0
LLC PREFETCHES SAME FILL-ORIGIN LEVEL: 0 DIFFERENT FILL-ORIGIN LEVEL: 0
LLC AVERAGE MISS LATENCY: 130.079 cycles
LLC RQ	ACCESS:     652615	FORWARD:          0	MERGED:          0	TO_CACHE:     652611
LLC WQ	ACCESS:     162254	FORWARD:          4	MERGED:          0	TO_CACHE:     162254
LLC PQ	ACCESS:     164149	FORWARD:          0	MERGED:          0	TO_CACHE:     164149

LLC Dense regions hint to LLC: 0

RAW hits: 516371
Loads Generated: 12617505
Loads sent to L1D: 12101132
Stores Generated: 6899109
Stores sent to L1D: 6899106
Major fault: 0 Minor fault: 2264
Allocated PAGES: 2264

stream: 
stream:times selected: 1051359
stream:pref_filled: 107960
stream:pref_useful: 18570
stream:pref_late: 32336
stream:misses: 7051
stream:misses_by_poll: 0

CS: 
CS:times selected: 143233
CS:pref_filled: 63390
CS:pref_useful: 45035
CS:pref_late: 4296
CS:misses: 9419
CS:misses_by_poll: 8

CPLX: 
CPLX:times selected: 906330
CPLX:pref_filled: 24913
CPLX:pref_useful: 5119
CPLX:pref_late: 2541
CPLX:misses: 88612
CPLX:misses_by_poll: 0

NL_L1: 
NL:times selected: 6088
NL:pref_filled: 508
NL:pref_useful: 79
NL:pref_late: 23
NL:misses: 357
NL:misses_by_poll: 0

total selections: 2107010
total_filled: 167940
total_useful: 57798
total_late: 41274
total_polluted: 8
total_misses_after_warmup: 777251
conflicts: 3241406
Degree Incremented Times: 0
Degree Decremented Times: 124798

L1 IP Table Write Accesses: 5304859
L1 IP Table Read Accesses: 2063453
L1 RST Write Accesses: 888415
L1 RST Read Accesses: 1776830
L1 CSPT Write Accesses: 888415
L1 CSPT Read Accesses: 1652670
L1 RR Filter Tag Write Accesses: 562288
L1 RR Filter Tag Read Accesses: 40515504
L1 IP Table Tag Write Accesses: 8840692
L1 IP Table Tag Read Accesses: 8840692
L1 RST Tag Write Accesses: 0
L1 RST Tag Read Accesses: 7616620
L1 RR Filter Write Accesses: 0
L1 RR Filter Read Accesses: 1483086
test: 146806
L2 IP Table Read Accesses: 1195675
L2 IP Table Write Accesses: 1638310
L2 IP Table Tag Read Accesses: 907092
L2 IP Table Tag Write Accesses: 907092

DRAM Statistics
 CHANNEL 0
 RQ ROW_BUFFER_HIT:      16759  ROW_BUFFER_MISS:      15518
 DBUS_CONGESTED:          5
 WQ ROW_BUFFER_HIT:        660  ROW_BUFFER_MISS:       6074  FULL:          0

 AVG_CONGESTED_CYCLE: 3
 All warmup complete: 2
Channel 0 Bank busy for read cycles: 0
Channel 0 Bank busy for write cycles: 0
Channel 0
Rank 0
0banks busy for read cycles: 123669887
0banks busy for write cycles: 1948
1banks busy for read cycles: 645773
1banks busy for write cycles: 226175
2banks busy for read cycles: 476887
2banks busy for write cycles: 80960
3banks busy for read cycles: 97030
3banks busy for write cycles: 38059
4banks busy for read cycles: 75936
4banks busy for write cycles: 23388
5banks busy for read cycles: 36426
5banks busy for write cycles: 17482
6banks busy for read cycles: 31412
6banks busy for write cycles: 18949
7banks busy for read cycles: 26140
7banks busy for write cycles: 18933
8banks busy for read cycles: 52955
8banks busy for write cycles: 35309

CPU 0 Branch Prediction Accuracy: 91.6417% MPKI: 15.2922 Average ROB Occupancy at Mispredict: 17.3995
Branch types
NOT_BRANCH: 40851764 81.7035%
BRANCH_DIRECT_JUMP: 522633 1.04527%
BRANCH_INDIRECT: 204723 0.409446%
BRANCH_CONDITIONAL: 6214815 12.4296%
BRANCH_DIRECT_CALL: 929734 1.85947%
BRANCH_INDIRECT_CALL: 173167 0.346334%
BRANCH_RETURN: 1102880 2.20576%
BRANCH_OTHER: 0 0%

@sumon_overall_L1D     57798     39753    110147    167940   1124321   1124321
@Sumon_Early_by_class_L1D     14290     39000      3794         7
@Sumon_Late_by_class_L1D     31549      4080      2196         7

@Sumon_Early_by_cycle_L1D     44308      3551      1711      1019       310      1800       841      1465       938      1434       384        37
@Sumon_Late_by_cycle_L1D     38893       833        23         4         0         0         0         0         0         0         0         0
@Sumon_Early_stream_L1D      6228      1480       960       890       249       844       582       868       736      1093       333        27
@Sumon_Early_CS_L1D     35609      1804       582        47        16       623        11       265         7        36         0         0
@Sumon_Early_CPLX_L1D      2183       173       136        58        39       320       200       271       159       196        49        10
@Sumon_Late_stream_L1D     31212       336         1         0         0         0         0         0         0         0         0         0
@Sumon_Late_CS_L1D      3567       487        22         4         0         0         0         0         0         0         0         0
@Sumon_Late_CPLX_L1D      2188         8         0         0         0         0         0         0         0         0         0         0
@sumon_overall_L2C     31457      2457    130176    161692    611820    611820
@Sumon_Early_by_class_L2C      2234       223       495         0
@Sumon_Late_by_class_L2C         0         0         0         0

@Sumon_Early_by_cycle_L2C      5531      2577      2449      2032       860      3626      2826      1890      1082      2127       976      5481
@Sumon_Late_by_cycle_L2C      2132       325         0         0         0         0         0         0         0         0         0         0
@Sumon_Early_stream_L2C         0         0         0         0         0         0         7        12         3       113       316      1783
@Sumon_Early_CS_L2C         0         0         0         0         0         0         0         0         2         1         3       217
@Sumon_Early_CPLX_L2C         0         0         0         0         0         0         0         0         5        37        70       383
@Sumon_Late_stream_L2C         0         0         0         0         0         0         0         0         0         0         0         0
@Sumon_Late_CS_L2C         0         0         0         0         0         0         0         0         0         0         0         0
@Sumon_Late_CPLX_L2C         0         0         0         0         0         0         0         0         0         0         0         0
DRAM PAGES: 1048576
Allocated PAGES: 2264
