
*** ChampSim Multicore Out-of-Order Simulator ***

Warmup Instructions: 10000000
Simulation Instructions: 50000000
Number of CPUs: 1
LLC sets: 2048
LLC ways: 16
Off-chip DRAM Size: 4096 MB Channels: 1 Width: 64-bit Data Rate: 6400 MT/s
CPU 0 runs traces/clientserver/server_003.champsimtrace.xz
.xz
CPU 0 Bimodal branch predictor
BTB has LRU replacement policy
ITLB has LRU replacement policy
DTLB has LRU replacement policy
STLB has LRU replacement policy
L1I has LRU replacement policy
IP Table Entries: 256
Initialize SRRIP state for L1D
IP_Table L2 entries: 256
L2C has LRU replacement policy
LLC has LRU replacement policy
Heartbeat CPU 0 instructions: 10000002 cycles: 2782565 heartbeat IPC: 3.59381 cumulative IPC: 3.59381 (Simulation time: 0 hr 16 min 27 sec) 

Warmup complete CPU 0 instructions: 10000002 cycles: 2782565 (Simulation time: 0 hr 16 min 27 sec) 

Heartbeat CPU 0 instructions: 20000003 cycles: 27326076 heartbeat IPC: 0.40744 cumulative IPC: 0.40744 (Simulation time: 0 hr 33 min 54 sec) 
Heartbeat CPU 0 instructions: 30000001 cycles: 48340562 heartbeat IPC: 0.475862 cumulative IPC: 0.439001 (Simulation time: 0 hr 50 min 51 sec) 
Heartbeat CPU 0 instructions: 40000001 cycles: 70651231 heartbeat IPC: 0.448216 cumulative IPC: 0.44203 (Simulation time: 1 hr 8 min 30 sec) 
Heartbeat CPU 0 instructions: 50000003 cycles: 89527159 heartbeat IPC: 0.529775 cumulative IPC: 0.461124 (Simulation time: 1 hr 27 min 4 sec) 
Heartbeat CPU 0 instructions: 60000000 cycles: 111396283 heartbeat IPC: 0.457266 cumulative IPC: 0.460347 (Simulation time: 1 hr 43 min 23 sec) 
Finished CPU 0 instructions: 50000003 cycles: 108613726 cumulative IPC: 0.460347 (Simulation time: 1 hr 43 min 23 sec) 

ChampSim completed all CPUs

Region of Interest Statistics

CPU 0 cumulative IPC: 0.460347 instructions: 50000003 cycles: 108613726
ITLB TOTAL     ACCESS:    8522303  HIT:    8378854  MISS:     143449  HIT %:    98.3168  MISS %:    1.68322   MPKI: 2.86898
ITLB LOAD TRANSLATION ACCESS:    8522303  HIT:    8378854  MISS:     143449  HIT %:    98.3168  MISS %:    1.68322   MPKI: 2.86898
ITLB PREFETCH  REQUESTED:          0  ISSUED:          0  USEFUL:          0  USELESS:          0
ITLB USEFUL LOAD PREFETCHES:          0 PREFETCH ISSUED TO LOWER LEVEL:          0  ACCURACY: -nan
ITLB TIMELY PREFETCHES:          0 LATE PREFETCHES: 0 DROPPED PREFETCHES: 0
ITLB PREFETCHES SAME FILL-ORIGIN LEVEL: 0 DIFFERENT FILL-ORIGIN LEVEL: 0
ITLB AVERAGE MISS LATENCY: 16.7593 cycles
ITLB RQ	ACCESS:   10163137	FORWARD:          0	MERGED:    1603624	TO_CACHE:    8559513

DTLB TOTAL     ACCESS:   11261901  HIT:   10821369  MISS:     440532  HIT %:    96.0883  MISS %:     3.9117   MPKI: 8.81064
DTLB LOAD TRANSLATION ACCESS:   11261901  HIT:   10821369  MISS:     440532  HIT %:    96.0883  MISS %:     3.9117   MPKI: 8.81064
DTLB PREFETCH  REQUESTED:          0  ISSUED:          0  USEFUL:          0  USELESS:          0
DTLB USEFUL LOAD PREFETCHES:          0 PREFETCH ISSUED TO LOWER LEVEL:          0  ACCURACY: -nan
DTLB TIMELY PREFETCHES:          0 LATE PREFETCHES: 0 DROPPED PREFETCHES: 0
DTLB PREFETCHES SAME FILL-ORIGIN LEVEL: 0 DIFFERENT FILL-ORIGIN LEVEL: 0
DTLB AVERAGE MISS LATENCY: 15.519 cycles
DTLB RQ	ACCESS:   13820233	FORWARD:          0	MERGED:    2532090	TO_CACHE:   11288143

STLB TOTAL     ACCESS:    1238656  HIT:    1173753  MISS:      64903  HIT %:    94.7602  MISS %:    5.23979   MPKI: 1.29806
STLB LOAD TRANSLATION ACCESS:     583981  HIT:     519078  MISS:      64903  HIT %:    88.8861  MISS %:    11.1139   MPKI: 1.29806
STLB TRANSLATION FROM L1D PREFETCHER ACCESS:     654675  HIT:     654675  MISS:          0  HIT %:        100  MISS %:          0   MPKI: 0
STLB PREFETCH  REQUESTED:          0  ISSUED:          0  USEFUL:          0  USELESS:          0
STLB USEFUL LOAD PREFETCHES:          0 PREFETCH ISSUED TO LOWER LEVEL:          0  ACCURACY: -nan
STLB TIMELY PREFETCHES:          0 LATE PREFETCHES: 0 DROPPED PREFETCHES: 0
STLB PREFETCHES SAME FILL-ORIGIN LEVEL: 0 DIFFERENT FILL-ORIGIN LEVEL: 0
STLB AVERAGE MISS LATENCY: 61.216 cycles
STLB RQ	ACCESS:    1361173	FORWARD:          0	MERGED:     122517	TO_CACHE:    1238656

STLB Hit, L1D data hit: 0
STLB Hit, L2C data hit: 0
STLB Hit, LLC data hit: 0
STLB Hit, LLC data miss: 0
STLB STLB hints to L2: 0
L1D TOTAL     ACCESS:   14344028  HIT:   13385869  MISS:     958159  HIT %:    93.3202  MISS %:    6.67985   MPKI: 19.1632
L1D LOAD      ACCESS:    8827127  HIT:    8270997  MISS:     556130  HIT %:    93.6998  MISS %:    6.30024   MPKI: 11.1226
L1D RFO       ACCESS:    4775740  HIT:    4642193  MISS:     133547  HIT %:    97.2036  MISS %:    2.79636   MPKI: 2.67094
L1D PREFETCH  ACCESS:     741161  HIT:     472679  MISS:     268482  HIT %:    63.7755  MISS %:    36.2245   MPKI: 5.36964
L1D PREFETCH  REQUESTED:    1554770  ISSUED:    1554667  USEFUL:      76728  USELESS:     191609
L1D USEFUL LOAD PREFETCHES:      76728 PREFETCH ISSUED TO LOWER LEVEL:     278894  ACCURACY: 27.5115
L1D TIMELY PREFETCHES:      76728 LATE PREFETCHES: 9324 DROPPED PREFETCHES: 0
L1D PREFETCHES SAME FILL-ORIGIN LEVEL: 278894 DIFFERENT FILL-ORIGIN LEVEL: 0
L1D AVERAGE MISS LATENCY: 692459 cycles
L1D RQ	ACCESS:   12775834	FORWARD:          0	MERGED:    3814128	TO_CACHE:    8867751
L1D WQ	ACCESS:    5046710	FORWARD:      94238	MERGED:      94228	TO_CACHE:    4952482
L1D PQ	ACCESS:     777475	FORWARD:          0	MERGED:          0	TO_CACHE:     777192

L1D UNIQUE REGIONS ACCESSED: 0
L1D REGIONS CONFLICTS: 0
L1D Cross Page Prefetch Requests: 0
L1D Same Page Prefetch Requests: 830065
L1D ROI Sum of L1D PQ occupancy: 10110841
L1D PREFETCHES PUSHED FROM L2C: 0
L1I TOTAL     ACCESS:    9906451  HIT:    8946103  MISS:     960348  HIT %:    90.3058  MISS %:    9.69417   MPKI: 19.207
L1I LOAD      ACCESS:    9906451  HIT:    8946103  MISS:     960348  HIT %:    90.3058  MISS %:    9.69417   MPKI: 19.207
L1I PREFETCH  REQUESTED:          0  ISSUED:          0  USEFUL:          0  USELESS:          0
L1I USEFUL LOAD PREFETCHES:          0 PREFETCH ISSUED TO LOWER LEVEL:          0  ACCURACY: -nan
L1I TIMELY PREFETCHES:          0 LATE PREFETCHES: 0 DROPPED PREFETCHES: 0
L1I PREFETCHES SAME FILL-ORIGIN LEVEL: 0 DIFFERENT FILL-ORIGIN LEVEL: 0
L1I AVERAGE MISS LATENCY: 33.8206 cycles
L1I RQ	ACCESS:   14501692	FORWARD:          0	MERGED:    4338555	TO_CACHE:   10163137

BTB TOTAL     ACCESS:    6627006  HIT:    5675347  MISS:     951659  HIT %:    85.6397  MISS %:    14.3603   MPKI: 19.0332
BTB BRANCH_DIRECT_JUMP	ACCESS:     520041  HIT:     471770  MISS:      48271
BTB BRANCH_INDIRECT	ACCESS:     160003  HIT:     129661  MISS:      30342
BTB BRANCH_CONDITIONAL	ACCESS:    3703093  HIT:    3527095  MISS:     175998
BTB BRANCH_DIRECT_CALL	ACCESS:     672992  HIT:     580422  MISS:      92570
BTB BRANCH_INDIRECT_CALL	ACCESS:     440371  HIT:     281129  MISS:     159242
BTB BRANCH_RETURN	ACCESS:    1130506  HIT:     685270  MISS:     445236
BTB BRANCH_OTHER ACCESS:          0  HIT:          0  MISS:          0

L2C TOTAL     ACCESS:    2565886  HIT:    1676154  MISS:     889732  HIT %:    65.3246  MISS %:    34.6754   MPKI: 17.7946
L2C LOAD      ACCESS:    1507137  HIT:     951632  MISS:     555505  HIT %:    63.1417  MISS %:    36.8583   MPKI: 11.1101
L2C DATA LOAD MPKI: 3.46818
L2C INSTRUCTION LOAD MPKI: 7.64192
L2C RFO       ACCESS:     132445  HIT:      45808  MISS:      86637  HIT %:    34.5864  MISS %:    65.4136   MPKI: 1.73274
L2C PREFETCH  ACCESS:     590491  HIT:     383063  MISS:     207428  HIT %:    64.8719  MISS %:    35.1281   MPKI: 4.14856
L2C DATA PREFETCH MPKI: 4.14856
L2C INSTRUCTION PREFETCH MPKI: 0
L2C WRITEBACK ACCESS:     254963  HIT:     251717  MISS:       3246  HIT %:    98.7269  MISS %:    1.27313   MPKI: 0.06492
L2C LOAD TRANSLATION ACCESS:      80850  HIT:      43934  MISS:      36916  HIT %:    54.3401  MISS %:    45.6599   MPKI: 0.73832
L2C PREFETCH  REQUESTED:     329353  ISSUED:     329353  USEFUL:      52416  USELESS:     154934
L2C USEFUL LOAD PREFETCHES:      52416 PREFETCH ISSUED TO LOWER LEVEL:     210611  ACCURACY: 24.8876
L2C TIMELY PREFETCHES:      52416 LATE PREFETCHES: 3183 DROPPED PREFETCHES: 0
L2C PREFETCHES SAME FILL-ORIGIN LEVEL: 128032 DIFFERENT FILL-ORIGIN LEVEL: 0
L2C AVERAGE MISS LATENCY: 63.6634 cycles
L2C RQ	ACCESS:    1720463	FORWARD:          0	MERGED:          0	TO_CACHE:    1720432
L2C WQ	ACCESS:     254963	FORWARD:         37	MERGED:          0	TO_CACHE:     254963
L2C PQ	ACCESS:     608247	FORWARD:          0	MERGED:       4899	TO_CACHE:     603342

L2C Instructions Evicting Data 187115
L2C Translations Evicting Data 18214
L2C Data Evicting Data 261332
L2C Instructions Evicting Instructions 177233
L2C Translations Evicting Instructions 17327
L2C Data Evicting Instructions 188115
L2C Instructions Evicting Translations 17748
L2C Translations Evicting Translations 1375
L2C Data Evicting Translations 18027
L2C Dense regions hint from L2: 0
PSCL5 TOTAL     ACCESS:      64903  HIT:      64903  MISS:          0  HIT %:        100  MISS %:          0   MPKI: 0
PSCL5 LOAD TRANSLATION ACCESS:      64903  HIT:      64903  MISS:          0  HIT %:        100  MISS %:          0   MPKI: 0
PSCL5 PREFETCH  REQUESTED:          0  ISSUED:          0  USEFUL:          0  USELESS:          0
PSCL5 USEFUL LOAD PREFETCHES:          0 PREFETCH ISSUED TO LOWER LEVEL:          0  ACCURACY: -nan
PSCL5 TIMELY PREFETCHES:          0 LATE PREFETCHES: 0 DROPPED PREFETCHES: 0
PSCL5 PREFETCHES SAME FILL-ORIGIN LEVEL: 0 DIFFERENT FILL-ORIGIN LEVEL: 0

PSCL4 TOTAL     ACCESS:      63355  HIT:      63195  MISS:        160  HIT %:    99.7475  MISS %:   0.252545   MPKI: 0.0032
PSCL4 LOAD TRANSLATION ACCESS:      63355  HIT:      63195  MISS:        160  HIT %:    99.7475  MISS %:   0.252545   MPKI: 0.0032
PSCL4 PREFETCH  REQUESTED:          0  ISSUED:          0  USEFUL:          0  USELESS:          0
PSCL4 USEFUL LOAD PREFETCHES:          0 PREFETCH ISSUED TO LOWER LEVEL:          0  ACCURACY: -nan
PSCL4 TIMELY PREFETCHES:          0 LATE PREFETCHES: 0 DROPPED PREFETCHES: 0
PSCL4 PREFETCHES SAME FILL-ORIGIN LEVEL: 0 DIFFERENT FILL-ORIGIN LEVEL: 0

PSCL3 TOTAL     ACCESS:      64342  HIT:      63873  MISS:        469  HIT %:    99.2711  MISS %:   0.728917   MPKI: 0.00938
PSCL3 LOAD TRANSLATION ACCESS:      64342  HIT:      63873  MISS:        469  HIT %:    99.2711  MISS %:   0.728917   MPKI: 0.00938
PSCL3 PREFETCH  REQUESTED:          0  ISSUED:          0  USEFUL:          0  USELESS:          0
PSCL3 USEFUL LOAD PREFETCHES:          0 PREFETCH ISSUED TO LOWER LEVEL:          0  ACCURACY: -nan
PSCL3 TIMELY PREFETCHES:          0 LATE PREFETCHES: 0 DROPPED PREFETCHES: 0
PSCL3 PREFETCHES SAME FILL-ORIGIN LEVEL: 0 DIFFERENT FILL-ORIGIN LEVEL: 0

PSCL2 TOTAL     ACCESS:      64903  HIT:      49526  MISS:      15377  HIT %:    76.3077  MISS %:    23.6923   MPKI: 0.30754
PSCL2 LOAD TRANSLATION ACCESS:      64903  HIT:      49526  MISS:      15377  HIT %:    76.3077  MISS %:    23.6923   MPKI: 0.30754
PSCL2 PREFETCH  REQUESTED:          0  ISSUED:          0  USEFUL:          0  USELESS:          0
PSCL2 USEFUL LOAD PREFETCHES:          0 PREFETCH ISSUED TO LOWER LEVEL:          0  ACCURACY: -nan
PSCL2 TIMELY PREFETCHES:          0 LATE PREFETCHES: 0 DROPPED PREFETCHES: 0
PSCL2 PREFETCHES SAME FILL-ORIGIN LEVEL: 0 DIFFERENT FILL-ORIGIN LEVEL: 0

LLC TOTAL     ACCESS:    1042795  HIT:     856602  MISS:     186193  HIT %:    82.1448  MISS %:    17.8552   MPKI: 3.72386
LLC LOAD      ACCESS:     552452  HIT:     477241  MISS:      75211  HIT %:     86.386  MISS %:     13.614   MPKI: 1.50422
LLC RFO       ACCESS:      86505  HIT:      34152  MISS:      52353  HIT %:    39.4798  MISS %:    60.5202   MPKI: 1.04706
LLC PREFETCH  ACCESS:     210610  HIT:     156590  MISS:      54020  HIT %:    74.3507  MISS %:    25.6493   MPKI: 1.0804
LLC WRITEBACK ACCESS:     156312  HIT:     156027  MISS:        285  HIT %:    99.8177  MISS %:   0.182328   MPKI: 0.0057
LLC LOAD TRANSLATION ACCESS:      36916  HIT:      32592  MISS:       4324  HIT %:    88.2869  MISS %:    11.7131   MPKI: 0.08648
LLC PREFETCH  REQUESTED:          0  ISSUED:          0  USEFUL:       5742  USELESS:      54222
LLC USEFUL LOAD PREFETCHES:       5742 PREFETCH ISSUED TO LOWER LEVEL:      54020  ACCURACY: 10.6294
LLC TIMELY PREFETCHES:       5742 LATE PREFETCHES: 0 DROPPED PREFETCHES: 0
LLC PREFETCHES SAME FILL-ORIGIN LEVEL: 0 DIFFERENT FILL-ORIGIN LEVEL: 0
LLC AVERAGE MISS LATENCY: 161.124 cycles
LLC RQ	ACCESS:     675875	FORWARD:          0	MERGED:          0	TO_CACHE:     675873
LLC WQ	ACCESS:     156312	FORWARD:          3	MERGED:          0	TO_CACHE:     156312
LLC PQ	ACCESS:     210611	FORWARD:          0	MERGED:          0	TO_CACHE:     210610

LLC Dense regions hint to LLC: 0

RAW hits: 897307
Loads Generated: 13673141
Loads sent to L1D: 12775834
Stores Generated: 5046706
Stores sent to L1D: 5046710
Major fault: 0 Minor fault: 7349
Allocated PAGES: 7349

stream: 
stream:times selected: 1366012
stream:pref_filled: 221551
stream:pref_useful: 67112
stream:pref_late: 7716
stream:misses: 34456
stream:misses_by_poll: 0

CS: 
CS:times selected: 67685
CS:pref_filled: 6904
CS:pref_useful: 4934
CS:pref_late: 881
CS:misses: 711
CS:misses_by_poll: 16

CPLX: 
CPLX:times selected: 1355935
CPLX:pref_filled: 54512
CPLX:pref_useful: 8269
CPLX:pref_late: 548
CPLX:misses: 156808
CPLX:misses_by_poll: 75

NL_L1: 
NL:times selected: 15296
NL:pref_filled: 2839
NL:pref_useful: 698
NL:pref_late: 58
NL:misses: 2220
NL:misses_by_poll: 3

total selections: 2804928
total_filled: 268482
total_useful: 76728
total_late: 10623
total_polluted: 94
total_misses_after_warmup: 596752
conflicts: 2263668
Degree Incremented Times: 0
Degree Decremented Times: 192306

L1 IP Table Write Accesses: 5992937
L1 IP Table Read Accesses: 3729269
L1 RST Write Accesses: 1292270
L1 RST Read Accesses: 2584540
L1 CSPT Write Accesses: 1292270
L1 CSPT Read Accesses: 2575939
L1 RR Filter Tag Write Accesses: 777578
L1 RR Filter Tag Read Accesses: 42879340
L1 IP Table Tag Write Accesses: 8867749
L1 IP Table Tag Read Accesses: 8867749
L1 RST Tag Write Accesses: 0
L1 RST Tag Read Accesses: 11918271
L1 RR Filter Write Accesses: 0
L1 RR Filter Read Accesses: 1539610
test: 550797
L2 IP Table Read Accesses: 1306615
L2 IP Table Write Accesses: 1341942
L2 IP Table Tag Read Accesses: 820532
L2 IP Table Tag Write Accesses: 820532

DRAM Statistics
 CHANNEL 0
 RQ ROW_BUFFER_HIT:      51722  ROW_BUFFER_MISS:     134183
 DBUS_CONGESTED:        178
 WQ ROW_BUFFER_HIT:      21945  ROW_BUFFER_MISS:      53857  FULL:          0

 AVG_CONGESTED_CYCLE: 4
 All warmup complete: 2
Channel 0 Bank busy for read cycles: 0
Channel 0 Bank busy for write cycles: 0
Channel 0
Rank 0
0banks busy for read cycles: 85574586
0banks busy for write cycles: 27318
1banks busy for read cycles: 11024852
1banks busy for write cycles: 4080991
2banks busy for read cycles: 3077537
2banks busy for write cycles: 1409761
3banks busy for read cycles: 779598
3banks busy for write cycles: 640581
4banks busy for read cycles: 244981
4banks busy for write cycles: 363027
5banks busy for read cycles: 82159
5banks busy for write cycles: 238380
6banks busy for read cycles: 53596
6banks busy for write cycles: 186522
7banks busy for read cycles: 61169
7banks busy for write cycles: 200097
8banks busy for read cycles: 137777
8banks busy for write cycles: 430795

CPU 0 Branch Prediction Accuracy: 92.2411% MPKI: 15.9118 Average ROB Occupancy at Mispredict: 27.6871
Branch types
NOT_BRANCH: 39745997 79.492%
BRANCH_DIRECT_JUMP: 520041 1.04008%
BRANCH_INDIRECT: 160003 0.320006%
BRANCH_CONDITIONAL: 7330065 14.6601%
BRANCH_DIRECT_CALL: 672992 1.34598%
BRANCH_INDIRECT_CALL: 440371 0.880742%
BRANCH_RETURN: 1130506 2.26101%
BRANCH_OTHER: 0 0%

@sumon_overall_L1D     76728      9324    191609    268482   1554667   1554770
@Sumon_Early_by_class_L1D     62204      4654      7656        56
@Sumon_Late_by_class_L1D      6639       762       487        56

@Sumon_Early_by_cycle_L1D     25069     10211      8646      4752      3011      7571      4179      4147      4084      3433      1139       486
@Sumon_Late_by_cycle_L1D      8682       625        17         0         0         0         0         0         0         0         0         0
@Sumon_Early_stream_L1D     21492      8330      7086      3558      2111      5519      3224      3411      3300      2819       923       431
@Sumon_Early_CS_L1D      1180       952       583       498       434       671       168        73        50        25        17         3
@Sumon_Early_CPLX_L1D      1681       608       745       547       374      1137       710       569       594       478       175        38
@Sumon_Late_stream_L1D      6106       519        14         0         0         0         0         0         0         0         0         0
@Sumon_Late_CS_L1D       728        33         1         0         0         0         0         0         0         0         0         0
@Sumon_Late_CPLX_L1D       446        39         2         0         0         0         0         0         0         0         0         0
@sumon_overall_L2C     52416      3183    154934    207428    329353    329353
@Sumon_Early_by_class_L2C      8058       497      2084         0
@Sumon_Late_by_class_L2C         0         0         0         0

@Sumon_Early_by_cycle_L2C      6497      4204      4658      2969      1979      5997      3110      2325      1765      2422      2160     14330
@Sumon_Late_by_cycle_L2C      2290       880        13         0         0         0         0         0         0         0         0         0
@Sumon_Early_stream_L2C         0         0         0         0         1         5         7        34       118       451       718      6724
@Sumon_Early_CS_L2C         0         0         0         0         0         0         0         2         2        10        52       431
@Sumon_Early_CPLX_L2C         0         0         0         0         0         0         1         8        34       124       194      1723
@Sumon_Late_stream_L2C         0         0         0         0         0         0         0         0         0         0         0         0
@Sumon_Late_CS_L2C         0         0         0         0         0         0         0         0         0         0         0         0
@Sumon_Late_CPLX_L2C         0         0         0         0         0         0         0         0         0         0         0         0
DRAM PAGES: 1048576
Allocated PAGES: 7349
