
*** ChampSim Multicore Out-of-Order Simulator ***

Warmup Instructions: 10000000
Simulation Instructions: 50000000
Number of CPUs: 1
LLC sets: 2048
LLC ways: 16
Off-chip DRAM Size: 4096 MB Channels: 1 Width: 64-bit Data Rate: 6400 MT/s
CPU 0 runs traces/SPEC2017/603.bwaves_s-2609B.champsimtrace.xz
.xz
CPU 0 Bimodal branch predictor
BTB has LRU replacement policy
ITLB has LRU replacement policy
DTLB has LRU replacement policy
STLB has LRU replacement policy
L1I has LRU replacement policy
IP Table Entries: 256
L1D has LRU replacement policy
IP_Table L2 entries: 256
L2C has LRU replacement policy
LLC has LRU replacement policy
Heartbeat CPU 0 instructions: 10000002 cycles: 3308708 heartbeat IPC: 3.02233 cumulative IPC: 3.02233 (Simulation time: 0 hr 30 min 19 sec) 

Warmup complete CPU 0 instructions: 10000002 cycles: 3308708 (Simulation time: 0 hr 30 min 19 sec) 

Heartbeat CPU 0 instructions: 20000000 cycles: 13725573 heartbeat IPC: 0.959982 cumulative IPC: 0.959982 (Simulation time: 0 hr 48 min 16 sec) 
Heartbeat CPU 0 instructions: 30000001 cycles: 24137848 heartbeat IPC: 0.960405 cumulative IPC: 0.960193 (Simulation time: 1 hr 6 min 25 sec) 
Heartbeat CPU 0 instructions: 40000000 cycles: 34555217 heartbeat IPC: 0.959935 cumulative IPC: 0.960107 (Simulation time: 1 hr 24 min 37 sec) 
Heartbeat CPU 0 instructions: 50000002 cycles: 44966247 heartbeat IPC: 0.96052 cumulative IPC: 0.96021 (Simulation time: 1 hr 42 min 44 sec) 
Heartbeat CPU 0 instructions: 60000000 cycles: 55381272 heartbeat IPC: 0.960151 cumulative IPC: 0.960199 (Simulation time: 1 hr 59 min 23 sec) 
Finished CPU 0 instructions: 50000000 cycles: 52072565 cumulative IPC: 0.960199 (Simulation time: 1 hr 59 min 23 sec) 

ChampSim completed all CPUs

Region of Interest Statistics

CPU 0 cumulative IPC: 0.960199 instructions: 50000000 cycles: 52072565
ITLB TOTAL     ACCESS:    6356553  HIT:    6356553  MISS:          0  HIT %:        100  MISS %:          0   MPKI: 0
ITLB LOAD TRANSLATION ACCESS:    6356553  HIT:    6356553  MISS:          0  HIT %:        100  MISS %:          0   MPKI: 0
ITLB PREFETCH  REQUESTED:          0  ISSUED:          0  USEFUL:          0  USELESS:          0
ITLB USEFUL LOAD PREFETCHES:          0 PREFETCH ISSUED TO LOWER LEVEL:          0  ACCURACY: -nan
ITLB TIMELY PREFETCHES:          0 LATE PREFETCHES: 0 DROPPED PREFETCHES: 0
ITLB PREFETCHES SAME FILL-ORIGIN LEVEL: 0 DIFFERENT FILL-ORIGIN LEVEL: 0
ITLB AVERAGE MISS LATENCY: -nan cycles
ITLB RQ	ACCESS:    8463150	FORWARD:          0	MERGED:    2106597	TO_CACHE:    6356553

DTLB TOTAL     ACCESS:   17197373  HIT:   17161082  MISS:      36291  HIT %:     99.789  MISS %:   0.211026   MPKI: 0.72582
DTLB LOAD TRANSLATION ACCESS:   17197373  HIT:   17161082  MISS:      36291  HIT %:     99.789  MISS %:   0.211026   MPKI: 0.72582
DTLB PREFETCH  REQUESTED:          0  ISSUED:          0  USEFUL:          0  USELESS:          0
DTLB USEFUL LOAD PREFETCHES:          0 PREFETCH ISSUED TO LOWER LEVEL:          0  ACCURACY: -nan
DTLB TIMELY PREFETCHES:          0 LATE PREFETCHES: 0 DROPPED PREFETCHES: 0
DTLB PREFETCHES SAME FILL-ORIGIN LEVEL: 0 DIFFERENT FILL-ORIGIN LEVEL: 0
DTLB AVERAGE MISS LATENCY: 212.08 cycles
DTLB RQ	ACCESS:   19657131	FORWARD:          0	MERGED:    2455526	TO_CACHE:   17201605

STLB TOTAL     ACCESS:    3756222  HIT:    3741379  MISS:      14843  HIT %:    99.6048  MISS %:   0.395158   MPKI: 0.29686
STLB LOAD TRANSLATION ACCESS:      36291  HIT:      21448  MISS:      14843  HIT %:    59.1001  MISS %:    40.8999   MPKI: 0.29686
STLB TRANSLATION FROM L1D PREFETCHER ACCESS:    3719931  HIT:    3719931  MISS:          0  HIT %:        100  MISS %:          0   MPKI: 0
STLB PREFETCH  REQUESTED:          0  ISSUED:          0  USEFUL:          0  USELESS:          0
STLB USEFUL LOAD PREFETCHES:          0 PREFETCH ISSUED TO LOWER LEVEL:          0  ACCURACY: -nan
STLB TIMELY PREFETCHES:          0 LATE PREFETCHES: 0 DROPPED PREFETCHES: 0
STLB PREFETCHES SAME FILL-ORIGIN LEVEL: 0 DIFFERENT FILL-ORIGIN LEVEL: 0
STLB AVERAGE MISS LATENCY: 468.873 cycles
STLB RQ	ACCESS:   17444652	FORWARD:          0	MERGED:   13688431	TO_CACHE:    3756221

STLB Hit, L1D data hit: 0
STLB Hit, L2C data hit: 0
STLB Hit, LLC data hit: 0
STLB Hit, LLC data miss: 0
STLB STLB hints to L2: 0
L1D TOTAL     ACCESS:   37033110  HIT:   36029464  MISS:    1003646  HIT %:    97.2899  MISS %:    2.71013   MPKI: 20.0729
L1D LOAD      ACCESS:   16837566  HIT:   16787959  MISS:      49607  HIT %:    99.7054  MISS %:   0.294621   MPKI: 0.99214
L1D RFO       ACCESS:    2807638  HIT:    2783276  MISS:      24362  HIT %:    99.1323  MISS %:   0.867704   MPKI: 0.48724
L1D PREFETCH  ACCESS:   17387906  HIT:   16458229  MISS:     929677  HIT %:    94.6533  MISS %:    5.34669   MPKI: 18.5935
L1D PREFETCH  REQUESTED:   49498334  ISSUED:   34848121  USEFUL:     925621  USELESS:       4052
L1D USEFUL LOAD PREFETCHES:     925621 PREFETCH ISSUED TO LOWER LEVEL:     979591  ACCURACY: 94.4906
L1D TIMELY PREFETCHES:     925621 LATE PREFETCHES: 2031 DROPPED PREFETCHES: 0
L1D PREFETCHES SAME FILL-ORIGIN LEVEL: 979591 DIFFERENT FILL-ORIGIN LEVEL: 0
L1D AVERAGE MISS LATENCY: 59708.3 cycles
L1D RQ	ACCESS:   21266426	FORWARD:          0	MERGED:    4358644	TO_CACHE:   16840476
L1D WQ	ACCESS:    2816699	FORWARD:      67306	MERGED:         44	TO_CACHE:    2816655
L1D PQ	ACCESS:   17439760	FORWARD:          0	MERGED:      31399	TO_CACHE:   17408361

L1D UNIQUE REGIONS ACCESSED: 0
L1D REGIONS CONFLICTS: 0
L1D Cross Page Prefetch Requests: 0
L1D Same Page Prefetch Requests: 20198213
L1D ROI Sum of L1D PQ occupancy: 264157709
L1D PREFETCHES PUSHED FROM L2C: 0
L1I TOTAL     ACCESS:    8463150  HIT:    8463150  MISS:          0  HIT %:        100  MISS %:          0   MPKI: 0
L1I LOAD      ACCESS:    8463150  HIT:    8463150  MISS:          0  HIT %:        100  MISS %:          0   MPKI: 0
L1I PREFETCH  REQUESTED:          0  ISSUED:          0  USEFUL:          0  USELESS:          0
L1I USEFUL LOAD PREFETCHES:          0 PREFETCH ISSUED TO LOWER LEVEL:          0  ACCURACY: -nan
L1I TIMELY PREFETCHES:          0 LATE PREFETCHES: 0 DROPPED PREFETCHES: 0
L1I PREFETCHES SAME FILL-ORIGIN LEVEL: 0 DIFFERENT FILL-ORIGIN LEVEL: 0
L1I AVERAGE MISS LATENCY: -nan cycles
L1I RQ	ACCESS:   11737573	FORWARD:          0	MERGED:    3274423	TO_CACHE:    8463150

BTB TOTAL     ACCESS:    1208719  HIT:    1208714  MISS:          5  HIT %:    99.9996  MISS %: 0.000413661   MPKI: 0.0001
BTB BRANCH_DIRECT_JUMP	ACCESS:          0  HIT:          0  MISS:          0
BTB BRANCH_INDIRECT	ACCESS:          0  HIT:          0  MISS:          0
BTB BRANCH_CONDITIONAL	ACCESS:    1208719  HIT:    1208714  MISS:          5
BTB BRANCH_DIRECT_CALL	ACCESS:          0  HIT:          0  MISS:          0
BTB BRANCH_INDIRECT_CALL	ACCESS:          0  HIT:          0  MISS:          0
BTB BRANCH_RETURN	ACCESS:          0  HIT:          0  MISS:          0
BTB BRANCH_OTHER ACCESS:          0  HIT:          0  MISS:          0

L2C TOTAL     ACCESS:    4028151  HIT:    3076144  MISS:     952007  HIT %:    76.3662  MISS %:    23.6338   MPKI: 19.0401
L2C LOAD      ACCESS:      47576  HIT:      27658  MISS:      19918  HIT %:    58.1344  MISS %:    41.8656   MPKI: 0.39836
L2C DATA LOAD MPKI: 0.39836
L2C INSTRUCTION LOAD MPKI: 0
L2C RFO       ACCESS:      24362  HIT:          0  MISS:      24362  HIT %:          0  MISS %:        100   MPKI: 0.48724
L2C PREFETCH  ACCESS:    3916627  HIT:    3010787  MISS:     905840  HIT %:    76.8719  MISS %:    23.1281   MPKI: 18.1168
L2C DATA PREFETCH MPKI: 18.1168
L2C INSTRUCTION PREFETCH MPKI: 0
L2C WRITEBACK ACCESS:      24741  HIT:      24741  MISS:          0  HIT %:        100  MISS %:          0   MPKI: 0
L2C LOAD TRANSLATION ACCESS:      14845  HIT:      12958  MISS:       1887  HIT %:    87.2886  MISS %:    12.7114   MPKI: 0.03774
L2C PREFETCH  REQUESTED:    4910681  ISSUED:    4529256  USEFUL:      26175  USELESS:     879864
L2C USEFUL LOAD PREFETCHES:      26175 PREFETCH ISSUED TO LOWER LEVEL:     906539  ACCURACY: 2.88736
L2C TIMELY PREFETCHES:      26175 LATE PREFETCHES: 692 DROPPED PREFETCHES: 0
L2C PREFETCHES SAME FILL-ORIGIN LEVEL: 814406 DIFFERENT FILL-ORIGIN LEVEL: 0
L2C AVERAGE MISS LATENCY: 174.995 cycles
L2C RQ	ACCESS:      86783	FORWARD:          0	MERGED:          0	TO_CACHE:      86783
L2C WQ	ACCESS:      24741	FORWARD:          0	MERGED:          0	TO_CACHE:      24741
L2C PQ	ACCESS:    5460962	FORWARD:          0	MERGED:    1357228	TO_CACHE:    4103734

L2C Instructions Evicting Data 0
L2C Translations Evicting Data 1886
L2C Data Evicting Data 948235
L2C Instructions Evicting Instructions 0
L2C Translations Evicting Instructions 0
L2C Data Evicting Instructions 0
L2C Instructions Evicting Translations 0
L2C Translations Evicting Translations 1
L2C Data Evicting Translations 1885
L2C Dense regions hint from L2: 0
PSCL5 TOTAL     ACCESS:      14843  HIT:      14843  MISS:          0  HIT %:        100  MISS %:          0   MPKI: 0
PSCL5 LOAD TRANSLATION ACCESS:      14843  HIT:      14843  MISS:          0  HIT %:        100  MISS %:          0   MPKI: 0
PSCL5 PREFETCH  REQUESTED:          0  ISSUED:          0  USEFUL:          0  USELESS:          0
PSCL5 USEFUL LOAD PREFETCHES:          0 PREFETCH ISSUED TO LOWER LEVEL:          0  ACCURACY: -nan
PSCL5 TIMELY PREFETCHES:          0 LATE PREFETCHES: 0 DROPPED PREFETCHES: 0
PSCL5 PREFETCHES SAME FILL-ORIGIN LEVEL: 0 DIFFERENT FILL-ORIGIN LEVEL: 0

PSCL4 TOTAL     ACCESS:      14843  HIT:      14843  MISS:          0  HIT %:        100  MISS %:          0   MPKI: 0
PSCL4 LOAD TRANSLATION ACCESS:      14843  HIT:      14843  MISS:          0  HIT %:        100  MISS %:          0   MPKI: 0
PSCL4 PREFETCH  REQUESTED:          0  ISSUED:          0  USEFUL:          0  USELESS:          0
PSCL4 USEFUL LOAD PREFETCHES:          0 PREFETCH ISSUED TO LOWER LEVEL:          0  ACCURACY: -nan
PSCL4 TIMELY PREFETCHES:          0 LATE PREFETCHES: 0 DROPPED PREFETCHES: 0
PSCL4 PREFETCHES SAME FILL-ORIGIN LEVEL: 0 DIFFERENT FILL-ORIGIN LEVEL: 0

PSCL3 TOTAL     ACCESS:      14843  HIT:      14843  MISS:          0  HIT %:        100  MISS %:          0   MPKI: 0
PSCL3 LOAD TRANSLATION ACCESS:      14843  HIT:      14843  MISS:          0  HIT %:        100  MISS %:          0   MPKI: 0
PSCL3 PREFETCH  REQUESTED:          0  ISSUED:          0  USEFUL:          0  USELESS:          0
PSCL3 USEFUL LOAD PREFETCHES:          0 PREFETCH ISSUED TO LOWER LEVEL:          0  ACCURACY: -nan
PSCL3 TIMELY PREFETCHES:          0 LATE PREFETCHES: 0 DROPPED PREFETCHES: 0
PSCL3 PREFETCHES SAME FILL-ORIGIN LEVEL: 0 DIFFERENT FILL-ORIGIN LEVEL: 0

PSCL2 TOTAL     ACCESS:      14843  HIT:      14812  MISS:         31  HIT %:    99.7911  MISS %:   0.208853   MPKI: 0.00062
PSCL2 LOAD TRANSLATION ACCESS:      14843  HIT:      14812  MISS:         31  HIT %:    99.7911  MISS %:   0.208853   MPKI: 0.00062
PSCL2 PREFETCH  REQUESTED:          0  ISSUED:          0  USEFUL:          0  USELESS:          0
PSCL2 USEFUL LOAD PREFETCHES:          0 PREFETCH ISSUED TO LOWER LEVEL:          0  ACCURACY: -nan
PSCL2 TIMELY PREFETCHES:          0 LATE PREFETCHES: 0 DROPPED PREFETCHES: 0
PSCL2 PREFETCHES SAME FILL-ORIGIN LEVEL: 0 DIFFERENT FILL-ORIGIN LEVEL: 0

LLC TOTAL     ACCESS:     976372  HIT:      24365  MISS:     952007  HIT %:    2.49546  MISS %:    97.5045   MPKI: 19.0401
LLC LOAD      ACCESS:      19226  HIT:          0  MISS:      19226  HIT %:          0  MISS %:        100   MPKI: 0.38452
LLC RFO       ACCESS:      24362  HIT:          0  MISS:      24362  HIT %:          0  MISS %:        100   MPKI: 0.48724
LLC PREFETCH  ACCESS:     906532  HIT:          0  MISS:     906532  HIT %:          0  MISS %:        100   MPKI: 18.1306
LLC WRITEBACK ACCESS:      24365  HIT:      24365  MISS:          0  HIT %:        100  MISS %:          0   MPKI: 0
LLC LOAD TRANSLATION ACCESS:       1887  HIT:          0  MISS:       1887  HIT %:          0  MISS %:        100   MPKI: 0.03774
LLC PREFETCH  REQUESTED:          0  ISSUED:          0  USEFUL:          0  USELESS:     906482
LLC USEFUL LOAD PREFETCHES:          0 PREFETCH ISSUED TO LOWER LEVEL:     906539  ACCURACY: 0
LLC TIMELY PREFETCHES:          0 LATE PREFETCHES: 0 DROPPED PREFETCHES: 0
LLC PREFETCHES SAME FILL-ORIGIN LEVEL: 0 DIFFERENT FILL-ORIGIN LEVEL: 0
LLC AVERAGE MISS LATENCY: 143.291 cycles
LLC RQ	ACCESS:      45475	FORWARD:          0	MERGED:          0	TO_CACHE:      45475
LLC WQ	ACCESS:      24365	FORWARD:          0	MERGED:          0	TO_CACHE:      24365
LLC PQ	ACCESS:     906539	FORWARD:          0	MERGED:          0	TO_CACHE:     906539

LLC Dense regions hint to LLC: 0

RAW hits: 223593
Loads Generated: 21490017
Loads sent to L1D: 21266426
Stores Generated: 2816699
Stores sent to L1D: 2816699
Major fault: 0 Minor fault: 17250
Allocated PAGES: 17250

stream: 
stream:times selected: 6905421
stream:pref_filled: 1100761
stream:pref_useful: 1100563
stream:pref_late: 2185
stream:misses: 107
stream:misses_by_poll: 0

CS: 
CS:times selected: 6686573
CS:pref_filled: 4934
CS:pref_useful: 4934
CS:pref_late: 31
CS:misses: 55766
CS:misses_by_poll: 34

CPLX: 
CPLX:times selected: 218685
CPLX:pref_filled: 14860
CPLX:pref_useful: 10053
CPLX:pref_late: 6
CPLX:misses: 560
CPLX:misses_by_poll: 14

NL_L1: 
NL:times selected: 1895
NL:pref_filled: 2
NL:pref_useful: 2
NL:pref_late: 0
NL:misses: 2
NL:misses_by_poll: 0

total selections: 13812574
total_filled: 929677
total_useful: 925621
total_late: 2518
total_polluted: 48
total_misses_after_warmup: 52522
conflicts: 8
Degree Incremented Times: 161980
Degree Decremented Times: 0

L1 IP Table Write Accesses: 16839615
L1 IP Table Read Accesses: 16839607
L1 RST Write Accesses: 5776433
L1 RST Read Accesses: 11552866
L1 CSPT Write Accesses: 5776433
L1 CSPT Read Accesses: 6278770
L1 RR Filter Tag Write Accesses: 32089973
L1 RR Filter Tag Read Accesses: 1487631852
L1 IP Table Tag Write Accesses: 16840481
L1 IP Table Tag Read Accesses: 16840481
L1 RST Tag Write Accesses: 0
L1 RST Tag Read Accesses: 51989503
L1 RR Filter Write Accesses: 0
L1 RR Filter Read Accesses: 49400534
test: 136689
L2 IP Table Read Accesses: 1770942
L2 IP Table Write Accesses: 1723366
L2 IP Table Tag Read Accesses: 885471
L2 IP Table Tag Write Accesses: 885471

DRAM Statistics
 CHANNEL 0
 RQ ROW_BUFFER_HIT:     672202  ROW_BUFFER_MISS:     279808
 DBUS_CONGESTED:        211
 WQ ROW_BUFFER_HIT:       3964  ROW_BUFFER_MISS:      20426  FULL:          0

 AVG_CONGESTED_CYCLE: 3
 All warmup complete: 2
Channel 0 Bank busy for read cycles: 0
Channel 0 Bank busy for write cycles: 0
Channel 0
Rank 0
0banks busy for read cycles: 23747308
0banks busy for write cycles: 6580
1banks busy for read cycles: 9041230
1banks busy for write cycles: 425130
2banks busy for read cycles: 5571117
2banks busy for write cycles: 288523
3banks busy for read cycles: 4338111
3banks busy for write cycles: 328254
4banks busy for read cycles: 2801551
4banks busy for write cycles: 128972
5banks busy for read cycles: 1860913
5banks busy for write cycles: 98397
6banks busy for read cycles: 1225340
6banks busy for write cycles: 60451
7banks busy for read cycles: 1235380
7banks busy for write cycles: 77841
8banks busy for read cycles: 735044
8banks busy for write cycles: 102424

CPU 0 Branch Prediction Accuracy: 81.2317% MPKI: 4.6848 Average ROB Occupancy at Mispredict: 36.1619
Branch types
NOT_BRANCH: 48751584 97.5032%
BRANCH_DIRECT_JUMP: 0 0%
BRANCH_INDIRECT: 0 0%
BRANCH_CONDITIONAL: 1248062 2.49612%
BRANCH_DIRECT_CALL: 0 0%
BRANCH_INDIRECT_CALL: 0 0%
BRANCH_RETURN: 0 0%
BRANCH_OTHER: 0 0%

@sumon_overall_L1D    925621      2031      4052    929677  34848121  49498334
@Sumon_Early_by_class_L1D    913376      3702      8543         0
@Sumon_Late_by_class_L1D      1717        18         0         0

@Sumon_Early_by_cycle_L1D     11570      6209     18221     22516     38398    529904    179429     19695     99646        26         7         0
@Sumon_Late_by_cycle_L1D       593       180       109       161       988         0
@Sumon_Early_stream_L1D     11540      6166     18025     22214     37798    527342    179276     18975     92040         0         0         0
@Sumon_Early_CS_L1D        26        26       159       255       481      2440       110       205         0         0         0         0
@Sumon_Early_CPLX_L1D         4        17        37        47       119       122        43       515      7606        26         7         0
@Sumon_Late_stream_L1D       297       173       108       160       979         0
@Sumon_Late_CS_L1D         0         7         1         1         9         0
@Sumon_Late_CPLX_L1D         0         0         0         0         0         0
@sumon_overall_L2C     26175       692    879864    905840   4529256   4910681
@Sumon_Early_by_class_L2C     26006       166         3         0
@Sumon_Late_by_class_L2C       470         3         0         0

@Sumon_Early_by_cycle_L2C        77        53        81        81       273      9564     15802        66        63       106         0         9
@Sumon_Late_by_cycle_L2C        75        97        44        80       395         1
@Sumon_Early_stream_L2C        76        53        77        73       247      9442     15800        65        58       106         0         9
@Sumon_Early_CS_L2C         1         0         4         8        26       122         2         1         2         0         0         0
@Sumon_Early_CPLX_L2C         0         0         0         0         0         0         0         0         3         0         0         0
@Sumon_Late_stream_L2C         0        15        44        78       332         1
@Sumon_Late_CS_L2C         0         0         0         2         1         0
@Sumon_Late_CPLX_L2C         0         0         0         0         0         0
DRAM PAGES: 1048576
Allocated PAGES: 17250
