
*** ChampSim Multicore Out-of-Order Simulator ***

Warmup Instructions: 10000000
Simulation Instructions: 50000000
Number of CPUs: 1
LLC sets: 2048
LLC ways: 16
Off-chip DRAM Size: 4096 MB Channels: 1 Width: 64-bit Data Rate: 6400 MT/s
CPU 0 runs traces/SPEC2017/620.omnetpp_s-141B.champsimtrace.xz
.xz
CPU 0 Bimodal branch predictor
BTB has LRU replacement policy
ITLB has LRU replacement policy
DTLB has LRU replacement policy
STLB has LRU replacement policy
L1I has LRU replacement policy
IP Table Entries: 256
L1D has LRU replacement policy
IP_Table L2 entries: 256
L2C has LRU replacement policy
LLC has LRU replacement policy
Heartbeat CPU 0 instructions: 10000001 cycles: 3919490 heartbeat IPC: 2.55135 cumulative IPC: 2.55135 (Simulation time: 0 hr 29 min 35 sec) 

Warmup complete CPU 0 instructions: 10000001 cycles: 3919490 (Simulation time: 0 hr 29 min 35 sec) 

Heartbeat CPU 0 instructions: 20000003 cycles: 53777334 heartbeat IPC: 0.20057 cumulative IPC: 0.20057 (Simulation time: 0 hr 58 min 21 sec) 
Heartbeat CPU 0 instructions: 30000000 cycles: 103232957 heartbeat IPC: 0.202201 cumulative IPC: 0.201383 (Simulation time: 1 hr 26 min 38 sec) 
Heartbeat CPU 0 instructions: 40000002 cycles: 153026823 heartbeat IPC: 0.200828 cumulative IPC: 0.201197 (Simulation time: 1 hr 55 min 3 sec) 
Heartbeat CPU 0 instructions: 50000001 cycles: 202751898 heartbeat IPC: 0.201106 cumulative IPC: 0.201174 (Simulation time: 2 hr 15 min 5 sec) 
Heartbeat CPU 0 instructions: 60000001 cycles: 251348925 heartbeat IPC: 0.205774 cumulative IPC: 0.202078 (Simulation time: 2 hr 26 min 36 sec) 
Finished CPU 0 instructions: 50000000 cycles: 247429435 cumulative IPC: 0.202078 (Simulation time: 2 hr 26 min 36 sec) 

ChampSim completed all CPUs

Region of Interest Statistics

CPU 0 cumulative IPC: 0.202078 instructions: 50000000 cycles: 247429435
ITLB TOTAL     ACCESS:    8422778  HIT:    8343322  MISS:      79456  HIT %:    99.0567  MISS %:   0.943347   MPKI: 1.58912
ITLB LOAD TRANSLATION ACCESS:    8422778  HIT:    8343322  MISS:      79456  HIT %:    99.0567  MISS %:   0.943347   MPKI: 1.58912
ITLB PREFETCH  REQUESTED:          0  ISSUED:          0  USEFUL:          0  USELESS:          0
ITLB USEFUL LOAD PREFETCHES:          0 PREFETCH ISSUED TO LOWER LEVEL:          0  ACCURACY: -nan
ITLB TIMELY PREFETCHES:          0 LATE PREFETCHES: 0 DROPPED PREFETCHES: 0
ITLB PREFETCHES SAME FILL-ORIGIN LEVEL: 0 DIFFERENT FILL-ORIGIN LEVEL: 0
ITLB AVERAGE MISS LATENCY: 9.9709 cycles
ITLB RQ	ACCESS:    9471802	FORWARD:          0	MERGED:    1027550	TO_CACHE:    8444252

DTLB TOTAL     ACCESS:   19776772  HIT:   18740670  MISS:    1036102  HIT %:     94.761  MISS %:    5.23898   MPKI: 20.722
DTLB LOAD TRANSLATION ACCESS:   19776772  HIT:   18740670  MISS:    1036102  HIT %:     94.761  MISS %:    5.23898   MPKI: 20.722
DTLB PREFETCH  REQUESTED:          0  ISSUED:          0  USEFUL:          0  USELESS:          0
DTLB USEFUL LOAD PREFETCHES:          0 PREFETCH ISSUED TO LOWER LEVEL:          0  ACCURACY: -nan
DTLB TIMELY PREFETCHES:          0 LATE PREFETCHES: 0 DROPPED PREFETCHES: 0
DTLB PREFETCHES SAME FILL-ORIGIN LEVEL: 0 DIFFERENT FILL-ORIGIN LEVEL: 0
DTLB AVERAGE MISS LATENCY: 36.6621 cycles
DTLB RQ	ACCESS:   22316889	FORWARD:          0	MERGED:    2520156	TO_CACHE:   19796733

STLB TOTAL     ACCESS:    2931890  HIT:    2687053  MISS:     244837  HIT %:    91.6492  MISS %:    8.35082   MPKI: 4.89674
STLB LOAD TRANSLATION ACCESS:    1115558  HIT:     870721  MISS:     244837  HIT %:    78.0525  MISS %:    21.9475   MPKI: 4.89674
STLB TRANSLATION FROM L1D PREFETCHER ACCESS:    1816332  HIT:    1816332  MISS:          0  HIT %:        100  MISS %:          0   MPKI: 0
STLB PREFETCH  REQUESTED:          0  ISSUED:          0  USEFUL:          0  USELESS:          0
STLB USEFUL LOAD PREFETCHES:          0 PREFETCH ISSUED TO LOWER LEVEL:          0  ACCURACY: -nan
STLB TIMELY PREFETCHES:          0 LATE PREFETCHES: 0 DROPPED PREFETCHES: 0
STLB PREFETCHES SAME FILL-ORIGIN LEVEL: 0 DIFFERENT FILL-ORIGIN LEVEL: 0
STLB AVERAGE MISS LATENCY: 117.095 cycles
STLB RQ	ACCESS:    3296795	FORWARD:          0	MERGED:     364903	TO_CACHE:    2931892

STLB Hit, L1D data hit: 0
STLB Hit, L2C data hit: 0
STLB Hit, LLC data hit: 0
STLB Hit, LLC data miss: 0
STLB STLB hints to L2: 0
L1D TOTAL     ACCESS:   24139651  HIT:   22471967  MISS:    1667684  HIT %:    93.0915  MISS %:    6.90848   MPKI: 33.3537
L1D LOAD      ACCESS:   13055625  HIT:   12273009  MISS:     782616  HIT %:    94.0055  MISS %:    5.99447   MPKI: 15.6523
L1D RFO       ACCESS:    8972351  HIT:    8868471  MISS:     103880  HIT %:    98.8422  MISS %:    1.15778   MPKI: 2.0776
L1D PREFETCH  ACCESS:    2111675  HIT:    1330487  MISS:     781188  HIT %:    63.0062  MISS %:    36.9938   MPKI: 15.6238
L1D PREFETCH  REQUESTED:    4362814  ISSUED:    4362813  USEFUL:     108809  USELESS:     672411
L1D USEFUL LOAD PREFETCHES:     108809 PREFETCH ISSUED TO LOWER LEVEL:     794276  ACCURACY: 13.6991
L1D TIMELY PREFETCHES:     108809 LATE PREFETCHES: 11142 DROPPED PREFETCHES: 0
L1D PREFETCHES SAME FILL-ORIGIN LEVEL: 794276 DIFFERENT FILL-ORIGIN LEVEL: 0
L1D AVERAGE MISS LATENCY: 992949 cycles
L1D RQ	ACCESS:   16099992	FORWARD:          0	MERGED:    2335472	TO_CACHE:   13149780
L1D WQ	ACCESS:    9244293	FORWARD:     615079	MERGED:      77184	TO_CACHE:    9167109
L1D PQ	ACCESS:    2181576	FORWARD:          0	MERGED:          0	TO_CACHE:    2181237

L1D UNIQUE REGIONS ACCESSED: 0
L1D REGIONS CONFLICTS: 0
L1D Cross Page Prefetch Requests: 0
L1D Same Page Prefetch Requests: 2592197
L1D ROI Sum of L1D PQ occupancy: 28274703
L1D PREFETCHES PUSHED FROM L2C: 0
L1I TOTAL     ACCESS:    9462637  HIT:    9434507  MISS:      28130  HIT %:    99.7027  MISS %:   0.297274   MPKI: 0.5626
L1I LOAD      ACCESS:    9462637  HIT:    9434507  MISS:      28130  HIT %:    99.7027  MISS %:   0.297274   MPKI: 0.5626
L1I PREFETCH  REQUESTED:          0  ISSUED:          0  USEFUL:          0  USELESS:          0
L1I USEFUL LOAD PREFETCHES:          0 PREFETCH ISSUED TO LOWER LEVEL:          0  ACCURACY: -nan
L1I TIMELY PREFETCHES:          0 LATE PREFETCHES: 0 DROPPED PREFETCHES: 0
L1I PREFETCHES SAME FILL-ORIGIN LEVEL: 0 DIFFERENT FILL-ORIGIN LEVEL: 0
L1I AVERAGE MISS LATENCY: 33.2568 cycles
L1I RQ	ACCESS:   14252102	FORWARD:          0	MERGED:    4780300	TO_CACHE:    9471802

BTB TOTAL     ACCESS:    8225391  HIT:    7750603  MISS:     474788  HIT %:    94.2278  MISS %:    5.77222   MPKI: 9.49576
BTB BRANCH_DIRECT_JUMP	ACCESS:     579052  HIT:     578930  MISS:        122
BTB BRANCH_INDIRECT	ACCESS:     167557  HIT:     143171  MISS:      24386
BTB BRANCH_CONDITIONAL	ACCESS:    4432757  HIT:    4432296  MISS:        461
BTB BRANCH_DIRECT_CALL	ACCESS:     933677  HIT:     933435  MISS:        242
BTB BRANCH_INDIRECT_CALL	ACCESS:     589336  HIT:     587040  MISS:       2296
BTB BRANCH_RETURN	ACCESS:    1523012  HIT:    1075731  MISS:     447281
BTB BRANCH_OTHER ACCESS:          0  HIT:          0  MISS:          0

L2C TOTAL     ACCESS:    2612831  HIT:    1219788  MISS:    1393043  HIT %:    46.6845  MISS %:    53.3155   MPKI: 27.8609
L2C LOAD      ACCESS:     799576  HIT:     261741  MISS:     537835  HIT %:     32.735  MISS %:     67.265   MPKI: 10.7567
L2C DATA LOAD MPKI: 10.6143
L2C INSTRUCTION LOAD MPKI: 0.14244
L2C RFO       ACCESS:     101929  HIT:      18385  MISS:      83544  HIT %:    18.0371  MISS %:    81.9629   MPKI: 1.67088
L2C PREFETCH  ACCESS:     882156  HIT:     280372  MISS:     601784  HIT %:    31.7826  MISS %:    68.2174   MPKI: 12.0357
L2C DATA PREFETCH MPKI: 12.0357
L2C INSTRUCTION PREFETCH MPKI: 0
L2C WRITEBACK ACCESS:     478830  HIT:     476898  MISS:       1932  HIT %:    99.5965  MISS %:   0.403483   MPKI: 0.03864
L2C LOAD TRANSLATION ACCESS:     350340  HIT:     182392  MISS:     167948  HIT %:    52.0614  MISS %:    47.9386   MPKI: 3.35896
L2C PREFETCH  REQUESTED:      95368  ISSUED:      95368  USEFUL:      34014  USELESS:     567736
L2C USEFUL LOAD PREFETCHES:      34014 PREFETCH ISSUED TO LOWER LEVEL:     602628  ACCURACY: 5.64428
L2C TIMELY PREFETCHES:      34014 LATE PREFETCHES: 843 DROPPED PREFETCHES: 0
L2C PREFETCHES SAME FILL-ORIGIN LEVEL: 49097 DIFFERENT FILL-ORIGIN LEVEL: 0
L2C AVERAGE MISS LATENCY: 150.406 cycles
L2C RQ	ACCESS:    1251879	FORWARD:          0	MERGED:          0	TO_CACHE:    1251845
L2C WQ	ACCESS:     478830	FORWARD:         51	MERGED:          0	TO_CACHE:     478830
L2C PQ	ACCESS:     889644	FORWARD:          0	MERGED:       2345	TO_CACHE:     887282

L2C Instructions Evicting Data 6305
L2C Translations Evicting Data 147022
L2C Data Evicting Data 1062925
L2C Instructions Evicting Instructions 109
L2C Translations Evicting Instructions 718
L2C Data Evicting Instructions 6269
L2C Instructions Evicting Translations 708
L2C Translations Evicting Translations 20208
L2C Data Evicting Translations 146847
L2C Dense regions hint from L2: 0
PSCL5 TOTAL     ACCESS:     244837  HIT:     244837  MISS:          0  HIT %:        100  MISS %:          0   MPKI: 0
PSCL5 LOAD TRANSLATION ACCESS:     244837  HIT:     244837  MISS:          0  HIT %:        100  MISS %:          0   MPKI: 0
PSCL5 PREFETCH  REQUESTED:          0  ISSUED:          0  USEFUL:          0  USELESS:          0
PSCL5 USEFUL LOAD PREFETCHES:          0 PREFETCH ISSUED TO LOWER LEVEL:          0  ACCURACY: -nan
PSCL5 TIMELY PREFETCHES:          0 LATE PREFETCHES: 0 DROPPED PREFETCHES: 0
PSCL5 PREFETCHES SAME FILL-ORIGIN LEVEL: 0 DIFFERENT FILL-ORIGIN LEVEL: 0

PSCL4 TOTAL     ACCESS:     244837  HIT:     244837  MISS:          0  HIT %:        100  MISS %:          0   MPKI: 0
PSCL4 LOAD TRANSLATION ACCESS:     244837  HIT:     244837  MISS:          0  HIT %:        100  MISS %:          0   MPKI: 0
PSCL4 PREFETCH  REQUESTED:          0  ISSUED:          0  USEFUL:          0  USELESS:          0
PSCL4 USEFUL LOAD PREFETCHES:          0 PREFETCH ISSUED TO LOWER LEVEL:          0  ACCURACY: -nan
PSCL4 TIMELY PREFETCHES:          0 LATE PREFETCHES: 0 DROPPED PREFETCHES: 0
PSCL4 PREFETCHES SAME FILL-ORIGIN LEVEL: 0 DIFFERENT FILL-ORIGIN LEVEL: 0

PSCL3 TOTAL     ACCESS:     244837  HIT:     244837  MISS:          0  HIT %:        100  MISS %:          0   MPKI: 0
PSCL3 LOAD TRANSLATION ACCESS:     244837  HIT:     244837  MISS:          0  HIT %:        100  MISS %:          0   MPKI: 0
PSCL3 PREFETCH  REQUESTED:          0  ISSUED:          0  USEFUL:          0  USELESS:          0
PSCL3 USEFUL LOAD PREFETCHES:          0 PREFETCH ISSUED TO LOWER LEVEL:          0  ACCURACY: -nan
PSCL3 TIMELY PREFETCHES:          0 LATE PREFETCHES: 0 DROPPED PREFETCHES: 0
PSCL3 PREFETCHES SAME FILL-ORIGIN LEVEL: 0 DIFFERENT FILL-ORIGIN LEVEL: 0

PSCL2 TOTAL     ACCESS:     244837  HIT:     139334  MISS:     105503  HIT %:    56.9089  MISS %:    43.0911   MPKI: 2.11006
PSCL2 LOAD TRANSLATION ACCESS:     244837  HIT:     139334  MISS:     105503  HIT %:    56.9089  MISS %:    43.0911   MPKI: 2.11006
PSCL2 PREFETCH  REQUESTED:          0  ISSUED:          0  USEFUL:          0  USELESS:          0
PSCL2 USEFUL LOAD PREFETCHES:          0 PREFETCH ISSUED TO LOWER LEVEL:          0  ACCURACY: -nan
PSCL2 TIMELY PREFETCHES:          0 LATE PREFETCHES: 0 DROPPED PREFETCHES: 0
PSCL2 PREFETCHES SAME FILL-ORIGIN LEVEL: 0 DIFFERENT FILL-ORIGIN LEVEL: 0

LLC TOTAL     ACCESS:    1759747  HIT:     748812  MISS:    1010935  HIT %:    42.5523  MISS %:    57.4477   MPKI: 20.2187
LLC LOAD      ACCESS:     537050  HIT:     133371  MISS:     403679  HIT %:     24.834  MISS %:     75.166   MPKI: 8.07358
LLC RFO       ACCESS:      83484  HIT:      27285  MISS:      56199  HIT %:    32.6829  MISS %:    67.3171   MPKI: 1.12398
LLC PREFETCH  ACCESS:     602627  HIT:     123725  MISS:     478902  HIT %:    20.5309  MISS %:    79.4691   MPKI: 9.57804
LLC WRITEBACK ACCESS:     368638  HIT:     366003  MISS:       2635  HIT %:    99.2852  MISS %:   0.714793   MPKI: 0.0527
LLC LOAD TRANSLATION ACCESS:     167948  HIT:      98428  MISS:      69520  HIT %:    58.6062  MISS %:    41.3938   MPKI: 1.3904
LLC PREFETCH  REQUESTED:          0  ISSUED:          0  USEFUL:      20574  USELESS:     458065
LLC USEFUL LOAD PREFETCHES:      20574 PREFETCH ISSUED TO LOWER LEVEL:     478903  ACCURACY: 4.29607
LLC TIMELY PREFETCHES:      20574 LATE PREFETCHES: 0 DROPPED PREFETCHES: 0
LLC PREFETCHES SAME FILL-ORIGIN LEVEL: 0 DIFFERENT FILL-ORIGIN LEVEL: 0
LLC AVERAGE MISS LATENCY: 165.667 cycles
LLC RQ	ACCESS:     788484	FORWARD:          0	MERGED:          0	TO_CACHE:     788482
LLC WQ	ACCESS:     368638	FORWARD:          2	MERGED:          0	TO_CACHE:     368638
LLC PQ	ACCESS:     602628	FORWARD:          0	MERGED:          0	TO_CACHE:     602628

LLC Dense regions hint to LLC: 0

RAW hits: 607787
Loads Generated: 16707774
Loads sent to L1D: 16099992
Stores Generated: 9244296
Stores sent to L1D: 9244293
Major fault: 0 Minor fault: 47196
Allocated PAGES: 47196

stream: 
stream:times selected: 4093188
stream:pref_filled: 635145
stream:pref_useful: 110020
stream:pref_late: 13130
stream:misses: 148709
stream:misses_by_poll: 0

CS: 
CS:times selected: 21767
CS:pref_filled: 7110
CS:pref_useful: 1728
CS:pref_late: 0
CS:misses: 429
CS:misses_by_poll: 0

CPLX: 
CPLX:times selected: 4064709
CPLX:pref_filled: 274556
CPLX:pref_useful: 13418
CPLX:pref_late: 569
CPLX:misses: 479163
CPLX:misses_by_poll: 583

NL_L1: 
NL:times selected: 21090
NL:pref_filled: 6673
NL:pref_useful: 1241
NL:pref_late: 172
NL:misses: 5572
NL:misses_by_poll: 2

total selections: 8200754
total_filled: 781188
total_useful: 108809
total_late: 14135
total_polluted: 585
total_misses_after_warmup: 876776
conflicts: 1901406
Degree Incremented Times: 0
Degree Decremented Times: 293457

L1 IP Table Write Accesses: 9729532
L1 IP Table Read Accesses: 7828126
L1 RST Write Accesses: 3523723
L1 RST Read Accesses: 7047446
L1 CSPT Write Accesses: 3523723
L1 CSPT Read Accesses: 7024338
L1 RR Filter Tag Write Accesses: 2181577
L1 RR Filter Tag Read Accesses: 126558476
L1 IP Table Tag Write Accesses: 13149785
L1 IP Table Tag Read Accesses: 13149785
L1 RST Tag Write Accesses: 0
L1 RST Tag Read Accesses: 38490424
L1 RR Filter Write Accesses: 0
L1 RR Filter Read Accesses: 4384028
test: 1915397
L2 IP Table Read Accesses: 3027321
L2 IP Table Write Accesses: 2372705
L2 IP Table Tag Read Accesses: 1561873
L2 IP Table Tag Write Accesses: 1561873

DRAM Statistics
 CHANNEL 0
 RQ ROW_BUFFER_HIT:      94955  ROW_BUFFER_MISS:     913340
 DBUS_CONGESTED:        208
 WQ ROW_BUFFER_HIT:      62997  ROW_BUFFER_MISS:     207351  FULL:          0

 AVG_CONGESTED_CYCLE: 4
 All warmup complete: 2
Channel 0 Bank busy for read cycles: 0
Channel 0 Bank busy for write cycles: 0
Channel 0
Rank 0
0banks busy for read cycles: 125374235
0banks busy for write cycles: 142609
1banks busy for read cycles: 48445051
1banks busy for write cycles: 21649724
2banks busy for read cycles: 26354078
2banks busy for write cycles: 8633806
3banks busy for read cycles: 8070476
3banks busy for write cycles: 3207215
4banks busy for read cycles: 2834312
4banks busy for write cycles: 1136788
5banks busy for read cycles: 783583
5banks busy for write cycles: 417051
6banks busy for read cycles: 161242
6banks busy for write cycles: 148632
7banks busy for read cycles: 21182
7banks busy for write cycles: 43655
8banks busy for read cycles: 1804
8banks busy for write cycles: 3993

CPU 0 Branch Prediction Accuracy: 94.7385% MPKI: 11.0762 Average ROB Occupancy at Mispredict: 24.6442
Branch types
NOT_BRANCH: 39473974 78.9479%
BRANCH_DIRECT_JUMP: 579052 1.1581%
BRANCH_INDIRECT: 167557 0.335114%
BRANCH_CONDITIONAL: 6733127 13.4663%
BRANCH_DIRECT_CALL: 933677 1.86735%
BRANCH_INDIRECT_CALL: 589336 1.17867%
BRANCH_RETURN: 1523012 3.04602%
BRANCH_OTHER: 0 0%

@sumon_overall_L1D    108809     11142    672411    781188   4362813   4362814
@Sumon_Early_by_class_L1D     93651      1325     11483       129
@Sumon_Late_by_class_L1D     10303         0       488       129

@Sumon_Early_by_cycle_L1D     17874      7880      5717      3478      2889     15360     13805      9059      4896     11979      9315      6557
@Sumon_Late_by_cycle_L1D       399       603       400       790      8950         0
@Sumon_Early_stream_L1D     16640      6891      5020      2975      2562     13611     11891      7539      3966      9716      7388      5452
@Sumon_Early_CS_L1D         0         6         4         6         7         7       709       381        84        67        22        32
@Sumon_Early_CPLX_L1D       530       451       612       411       273      1490      1023      1032       773      2047      1820      1021
@Sumon_Late_stream_L1D       189       539       330       715      8530         0
@Sumon_Late_CS_L1D         0         0         0         0         0         0
@Sumon_Late_CPLX_L1D        20        60        51        48       309         0
@sumon_overall_L2C     34014       843    567736    601784     95368     95368
@Sumon_Early_by_class_L2C     15866        19      6284         0
@Sumon_Late_by_class_L2C         0         0         0         0

@Sumon_Early_by_cycle_L2C      1518       972       311       402       771      2461      2858       775       533       418      1530     21465
@Sumon_Late_by_cycle_L2C        24        40       253       229       297         0
@Sumon_Early_stream_L2C         0         0         0         0         0         0         0         0         1       117       866     14882
@Sumon_Early_CS_L2C         0         0         0         0         0         0         0         0         1         0         3        15
@Sumon_Early_CPLX_L2C         0         0         0         0         0         0         0         0         1        29       356      5898
@Sumon_Late_stream_L2C         0         0         0         0         0         0
@Sumon_Late_CS_L2C         0         0         0         0         0         0
@Sumon_Late_CPLX_L2C         0         0         0         0         0         0
DRAM PAGES: 1048576
Allocated PAGES: 47196
