
*** ChampSim Multicore Out-of-Order Simulator ***

Warmup Instructions: 10000000
Simulation Instructions: 50000000
Number of CPUs: 1
LLC sets: 2048
LLC ways: 16
Off-chip DRAM Size: 4096 MB Channels: 1 Width: 64-bit Data Rate: 6400 MT/s
CPU 0 runs traces/SPEC2017/649.fotonik3d_s-8225B.champsimtrace.xz
.xz
CPU 0 Bimodal branch predictor
BTB has LRU replacement policy
ITLB has LRU replacement policy
DTLB has LRU replacement policy
STLB has LRU replacement policy
L1I has LRU replacement policy
IP Table Entries: 256
L1D has LRU replacement policy
IP_Table L2 entries: 256
L2C has LRU replacement policy
LLC has LRU replacement policy
Heartbeat CPU 0 instructions: 10000001 cycles: 2903770 heartbeat IPC: 3.4438 cumulative IPC: 3.4438 (Simulation time: 0 hr 24 min 0 sec) 

Warmup complete CPU 0 instructions: 10000001 cycles: 2903770 (Simulation time: 0 hr 24 min 0 sec) 

Heartbeat CPU 0 instructions: 20000001 cycles: 12886925 heartbeat IPC: 1.00169 cumulative IPC: 1.00169 (Simulation time: 0 hr 40 min 24 sec) 
Heartbeat CPU 0 instructions: 30000002 cycles: 22867045 heartbeat IPC: 1.00199 cumulative IPC: 1.00184 (Simulation time: 0 hr 56 min 40 sec) 
Heartbeat CPU 0 instructions: 40000002 cycles: 32850086 heartbeat IPC: 1.0017 cumulative IPC: 1.00179 (Simulation time: 1 hr 13 min 9 sec) 
Heartbeat CPU 0 instructions: 50000003 cycles: 42829573 heartbeat IPC: 1.00206 cumulative IPC: 1.00186 (Simulation time: 1 hr 29 min 25 sec) 
Heartbeat CPU 0 instructions: 60000000 cycles: 52809647 heartbeat IPC: 1.002 cumulative IPC: 1.00189 (Simulation time: 1 hr 45 min 51 sec) 
Finished CPU 0 instructions: 50000003 cycles: 49905878 cumulative IPC: 1.00189 (Simulation time: 1 hr 45 min 51 sec) 

ChampSim completed all CPUs

Region of Interest Statistics

CPU 0 cumulative IPC: 1.00189 instructions: 50000003 cycles: 49905878
ITLB TOTAL     ACCESS:    7017712  HIT:    7017712  MISS:          0  HIT %:        100  MISS %:          0   MPKI: 0
ITLB LOAD TRANSLATION ACCESS:    7017712  HIT:    7017712  MISS:          0  HIT %:        100  MISS %:          0   MPKI: 0
ITLB PREFETCH  REQUESTED:          0  ISSUED:          0  USEFUL:          0  USELESS:          0
ITLB USEFUL LOAD PREFETCHES:          0 PREFETCH ISSUED TO LOWER LEVEL:          0  ACCURACY: -nan
ITLB TIMELY PREFETCHES:          0 LATE PREFETCHES: 0 DROPPED PREFETCHES: 0
ITLB PREFETCHES SAME FILL-ORIGIN LEVEL: 0 DIFFERENT FILL-ORIGIN LEVEL: 0
ITLB AVERAGE MISS LATENCY: -nan cycles
ITLB RQ	ACCESS:    8772769	FORWARD:          0	MERGED:    1755056	TO_CACHE:    7017713

DTLB TOTAL     ACCESS:    8128150  HIT:    8116358  MISS:      11792  HIT %:    99.8549  MISS %:   0.145076   MPKI: 0.23584
DTLB LOAD TRANSLATION ACCESS:    8128150  HIT:    8116358  MISS:      11792  HIT %:    99.8549  MISS %:   0.145076   MPKI: 0.23584
DTLB PREFETCH  REQUESTED:          0  ISSUED:          0  USEFUL:          0  USELESS:          0
DTLB USEFUL LOAD PREFETCHES:          0 PREFETCH ISSUED TO LOWER LEVEL:          0  ACCURACY: -nan
DTLB TIMELY PREFETCHES:          0 LATE PREFETCHES: 0 DROPPED PREFETCHES: 0
DTLB PREFETCHES SAME FILL-ORIGIN LEVEL: 0 DIFFERENT FILL-ORIGIN LEVEL: 0
DTLB AVERAGE MISS LATENCY: 88.6858 cycles
DTLB RQ	ACCESS:   12577243	FORWARD:          0	MERGED:    4448396	TO_CACHE:    8128847

STLB TOTAL     ACCESS:     609318  HIT:     602460  MISS:       6858  HIT %:    98.8745  MISS %:    1.12552   MPKI: 0.13716
STLB LOAD TRANSLATION ACCESS:      11792  HIT:       4934  MISS:       6858  HIT %:    41.8419  MISS %:    58.1581   MPKI: 0.13716
STLB TRANSLATION FROM L1D PREFETCHER ACCESS:     597526  HIT:     597526  MISS:          0  HIT %:        100  MISS %:          0   MPKI: 0
STLB PREFETCH  REQUESTED:          0  ISSUED:          0  USEFUL:          0  USELESS:          0
STLB USEFUL LOAD PREFETCHES:          0 PREFETCH ISSUED TO LOWER LEVEL:          0  ACCURACY: -nan
STLB TIMELY PREFETCHES:          0 LATE PREFETCHES: 0 DROPPED PREFETCHES: 0
STLB PREFETCHES SAME FILL-ORIGIN LEVEL: 0 DIFFERENT FILL-ORIGIN LEVEL: 0
STLB AVERAGE MISS LATENCY: 136.778 cycles
STLB RQ	ACCESS:     671763	FORWARD:          0	MERGED:      62445	TO_CACHE:     609318

STLB Hit, L1D data hit: 0
STLB Hit, L2C data hit: 0
STLB Hit, LLC data hit: 0
STLB Hit, LLC data miss: 0
STLB STLB hints to L2: 0
L1D TOTAL     ACCESS:   13214886  HIT:   12550198  MISS:     664688  HIT %:    94.9702  MISS %:    5.02984   MPKI: 13.2938
L1D LOAD      ACCESS:    9051395  HIT:    9030155  MISS:      21240  HIT %:    99.7653  MISS %:    0.23466   MPKI: 0.4248
L1D RFO       ACCESS:    3508746  HIT:    3508085  MISS:        661  HIT %:    99.9812  MISS %:  0.0188386   MPKI: 0.01322
L1D PREFETCH  ACCESS:     654745  HIT:      11958  MISS:     642787  HIT %:    1.82636  MISS %:    98.1736   MPKI: 12.8557
L1D PREFETCH  REQUESTED:    1319942  ISSUED:    1319942  USEFUL:     639795  USELESS:       2992
L1D USEFUL LOAD PREFETCHES:     639795 PREFETCH ISSUED TO LOWER LEVEL:     647044  ACCURACY: 98.8797
L1D TIMELY PREFETCHES:     639795 LATE PREFETCHES: 4057 DROPPED PREFETCHES: 0
L1D PREFETCHES SAME FILL-ORIGIN LEVEL: 647044 DIFFERENT FILL-ORIGIN LEVEL: 0
L1D AVERAGE MISS LATENCY: 170222 cycles
L1D RQ	ACCESS:   17541463	FORWARD:          0	MERGED:    8474418	TO_CACHE:    9066961
L1D WQ	ACCESS:    3510282	FORWARD:         84	MERGED:          0	TO_CACHE:    3510282
L1D PQ	ACCESS:     659971	FORWARD:          0	MERGED:          0	TO_CACHE:     659971

L1D UNIQUE REGIONS ACCESSED: 0
L1D REGIONS CONFLICTS: 0
L1D Cross Page Prefetch Requests: 0
L1D Same Page Prefetch Requests: 791402
L1D ROI Sum of L1D PQ occupancy: 8671845
L1D PREFETCHES PUSHED FROM L2C: 0
L1I TOTAL     ACCESS:    8772767  HIT:    8772767  MISS:          0  HIT %:        100  MISS %:          0   MPKI: 0
L1I LOAD      ACCESS:    8772767  HIT:    8772767  MISS:          0  HIT %:        100  MISS %:          0   MPKI: 0
L1I PREFETCH  REQUESTED:          0  ISSUED:          0  USEFUL:          0  USELESS:          0
L1I USEFUL LOAD PREFETCHES:          0 PREFETCH ISSUED TO LOWER LEVEL:          0  ACCURACY: -nan
L1I TIMELY PREFETCHES:          0 LATE PREFETCHES: 0 DROPPED PREFETCHES: 0
L1I PREFETCHES SAME FILL-ORIGIN LEVEL: 0 DIFFERENT FILL-ORIGIN LEVEL: 0
L1I AVERAGE MISS LATENCY: -nan cycles
L1I RQ	ACCESS:   11406881	FORWARD:          0	MERGED:    2634112	TO_CACHE:    8772769

BTB TOTAL     ACCESS:     877290  HIT:     877281  MISS:          9  HIT %:     99.999  MISS %: 0.00102589   MPKI: 0.00018
BTB BRANCH_DIRECT_JUMP	ACCESS:        220  HIT:        218  MISS:          2
BTB BRANCH_INDIRECT	ACCESS:          0  HIT:          0  MISS:          0
BTB BRANCH_CONDITIONAL	ACCESS:     876630  HIT:     876627  MISS:          3
BTB BRANCH_DIRECT_CALL	ACCESS:        220  HIT:        218  MISS:          2
BTB BRANCH_INDIRECT_CALL	ACCESS:          0  HIT:          0  MISS:          0
BTB BRANCH_RETURN	ACCESS:        220  HIT:        218  MISS:          2
BTB BRANCH_OTHER ACCESS:          0  HIT:          0  MISS:          0

L2C TOTAL     ACCESS:    3962625  HIT:    3512624  MISS:     450001  HIT %:    88.6439  MISS %:    11.3561   MPKI: 9.00002
L2C LOAD      ACCESS:      17183  HIT:       9260  MISS:       7923  HIT %:    53.8905  MISS %:    46.1095   MPKI: 0.15846
L2C DATA LOAD MPKI: 0.15846
L2C INSTRUCTION LOAD MPKI: 0
L2C RFO       ACCESS:        661  HIT:        468  MISS:        193  HIT %:    70.8018  MISS %:    29.1982   MPKI: 0.00386
L2C PREFETCH  ACCESS:    3498556  HIT:    3057552  MISS:     441004  HIT %:    87.3947  MISS %:    12.6053   MPKI: 8.82008
L2C DATA PREFETCH MPKI: 8.82008
L2C INSTRUCTION PREFETCH MPKI: 0
L2C WRITEBACK ACCESS:     439365  HIT:     439365  MISS:          0  HIT %:        100  MISS %:          0   MPKI: 0
L2C LOAD TRANSLATION ACCESS:       6860  HIT:       5979  MISS:        881  HIT %:    87.1574  MISS %:    12.8426   MPKI: 0.01762
L2C PREFETCH  REQUESTED:    3305449  ISSUED:    3305412  USEFUL:       2527  USELESS:     438717
L2C USEFUL LOAD PREFETCHES:       2527 PREFETCH ISSUED TO LOWER LEVEL:     441018  ACCURACY: 0.572992
L2C TIMELY PREFETCHES:       2527 LATE PREFETCHES: 14 DROPPED PREFETCHES: 0
L2C PREFETCHES SAME FILL-ORIGIN LEVEL: 392315 DIFFERENT FILL-ORIGIN LEVEL: 0
L2C AVERAGE MISS LATENCY: 191.737 cycles
L2C RQ	ACCESS:      24704	FORWARD:          0	MERGED:          0	TO_CACHE:      24704
L2C WQ	ACCESS:     439365	FORWARD:          0	MERGED:          0	TO_CACHE:     439365
L2C PQ	ACCESS:    3952256	FORWARD:          0	MERGED:      80187	TO_CACHE:    3872069

L2C Instructions Evicting Data 0
L2C Translations Evicting Data 875
L2C Data Evicting Data 448244
L2C Instructions Evicting Instructions 0
L2C Translations Evicting Instructions 0
L2C Data Evicting Instructions 0
L2C Instructions Evicting Translations 0
L2C Translations Evicting Translations 6
L2C Data Evicting Translations 876
L2C Dense regions hint from L2: 0
PSCL5 TOTAL     ACCESS:       6858  HIT:       6858  MISS:          0  HIT %:        100  MISS %:          0   MPKI: 0
PSCL5 LOAD TRANSLATION ACCESS:       6858  HIT:       6858  MISS:          0  HIT %:        100  MISS %:          0   MPKI: 0
PSCL5 PREFETCH  REQUESTED:          0  ISSUED:          0  USEFUL:          0  USELESS:          0
PSCL5 USEFUL LOAD PREFETCHES:          0 PREFETCH ISSUED TO LOWER LEVEL:          0  ACCURACY: -nan
PSCL5 TIMELY PREFETCHES:          0 LATE PREFETCHES: 0 DROPPED PREFETCHES: 0
PSCL5 PREFETCHES SAME FILL-ORIGIN LEVEL: 0 DIFFERENT FILL-ORIGIN LEVEL: 0

PSCL4 TOTAL     ACCESS:       6858  HIT:       6858  MISS:          0  HIT %:        100  MISS %:          0   MPKI: 0
PSCL4 LOAD TRANSLATION ACCESS:       6858  HIT:       6858  MISS:          0  HIT %:        100  MISS %:          0   MPKI: 0
PSCL4 PREFETCH  REQUESTED:          0  ISSUED:          0  USEFUL:          0  USELESS:          0
PSCL4 USEFUL LOAD PREFETCHES:          0 PREFETCH ISSUED TO LOWER LEVEL:          0  ACCURACY: -nan
PSCL4 TIMELY PREFETCHES:          0 LATE PREFETCHES: 0 DROPPED PREFETCHES: 0
PSCL4 PREFETCHES SAME FILL-ORIGIN LEVEL: 0 DIFFERENT FILL-ORIGIN LEVEL: 0

PSCL3 TOTAL     ACCESS:       6858  HIT:       6857  MISS:          1  HIT %:    99.9854  MISS %:  0.0145815   MPKI: 2e-05
PSCL3 LOAD TRANSLATION ACCESS:       6858  HIT:       6857  MISS:          1  HIT %:    99.9854  MISS %:  0.0145815   MPKI: 2e-05
PSCL3 PREFETCH  REQUESTED:          0  ISSUED:          0  USEFUL:          0  USELESS:          0
PSCL3 USEFUL LOAD PREFETCHES:          0 PREFETCH ISSUED TO LOWER LEVEL:          0  ACCURACY: -nan
PSCL3 TIMELY PREFETCHES:          0 LATE PREFETCHES: 0 DROPPED PREFETCHES: 0
PSCL3 PREFETCHES SAME FILL-ORIGIN LEVEL: 0 DIFFERENT FILL-ORIGIN LEVEL: 0

PSCL2 TOTAL     ACCESS:       6858  HIT:       6837  MISS:         21  HIT %:    99.6938  MISS %:   0.306212   MPKI: 0.00042
PSCL2 LOAD TRANSLATION ACCESS:       6858  HIT:       6837  MISS:         21  HIT %:    99.6938  MISS %:   0.306212   MPKI: 0.00042
PSCL2 PREFETCH  REQUESTED:          0  ISSUED:          0  USEFUL:          0  USELESS:          0
PSCL2 USEFUL LOAD PREFETCHES:          0 PREFETCH ISSUED TO LOWER LEVEL:          0  ACCURACY: -nan
PSCL2 TIMELY PREFETCHES:          0 LATE PREFETCHES: 0 DROPPED PREFETCHES: 0
PSCL2 PREFETCHES SAME FILL-ORIGIN LEVEL: 0 DIFFERENT FILL-ORIGIN LEVEL: 0

LLC TOTAL     ACCESS:     888506  HIT:     445835  MISS:     442671  HIT %:    50.1781  MISS %:    49.8219   MPKI: 8.85342
LLC LOAD      ACCESS:       7909  HIT:        336  MISS:       7573  HIT %:    4.24832  MISS %:    95.7517   MPKI: 0.15146
LLC RFO       ACCESS:        193  HIT:        193  MISS:          0  HIT %:        100  MISS %:          0   MPKI: 0
LLC PREFETCH  ACCESS:     441018  HIT:       6801  MISS:     434217  HIT %:    1.54211  MISS %:    98.4579   MPKI: 8.68434
LLC WRITEBACK ACCESS:     438505  HIT:     438505  MISS:          0  HIT %:        100  MISS %:          0   MPKI: 0
LLC LOAD TRANSLATION ACCESS:        881  HIT:          0  MISS:        881  HIT %:          0  MISS %:        100   MPKI: 0.01762
LLC PREFETCH  REQUESTED:          0  ISSUED:          0  USEFUL:         30  USELESS:     434219
LLC USEFUL LOAD PREFETCHES:         30 PREFETCH ISSUED TO LOWER LEVEL:     434217  ACCURACY: 0.00690899
LLC TIMELY PREFETCHES:         30 LATE PREFETCHES: 0 DROPPED PREFETCHES: 0
LLC PREFETCHES SAME FILL-ORIGIN LEVEL: 0 DIFFERENT FILL-ORIGIN LEVEL: 0
LLC AVERAGE MISS LATENCY: 164.397 cycles
LLC RQ	ACCESS:       8983	FORWARD:          0	MERGED:          0	TO_CACHE:       8983
LLC WQ	ACCESS:     438505	FORWARD:          0	MERGED:          0	TO_CACHE:     438505
LLC PQ	ACCESS:     441018	FORWARD:          0	MERGED:          0	TO_CACHE:     441018

LLC Dense regions hint to LLC: 0

RAW hits: 792
Loads Generated: 17542252
Loads sent to L1D: 17541463
Stores Generated: 3510282
Stores sent to L1D: 3510282
Major fault: 0 Minor fault: 8326
Allocated PAGES: 8326

stream: 
stream:times selected: 1872265
stream:pref_filled: 762365
stream:pref_useful: 759074
stream:pref_late: 4103
stream:misses: 74
stream:misses_by_poll: 0

CS: 
CS:times selected: 1722660
CS:pref_filled: 4770
CS:pref_useful: 4565
CS:pref_late: 2
CS:misses: 33895
CS:misses_by_poll: 19

CPLX: 
CPLX:times selected: 149516
CPLX:pref_filled: 5241
CPLX:pref_useful: 5144
CPLX:pref_late: 0
CPLX:misses: 2525
CPLX:misses_by_poll: 8

NL_L1: 
NL:times selected: 23
NL:pref_filled: 1
NL:pref_useful: 1
NL:pref_late: 0
NL:misses: 0
NL:misses_by_poll: 0

total selections: 3744464
total_filled: 642787
total_useful: 639795
total_late: 4111
total_polluted: 27
total_misses_after_warmup: 36808
conflicts: 500
Degree Incremented Times: 170338
Degree Decremented Times: 0

L1 IP Table Write Accesses: 9065096
L1 IP Table Read Accesses: 9064596
L1 RST Write Accesses: 1493902
L1 RST Read Accesses: 2987804
L1 CSPT Write Accesses: 1493902
L1 CSPT Read Accesses: 1771472
L1 RR Filter Tag Write Accesses: 659971
L1 RR Filter Tag Read Accesses: 336356957
L1 IP Table Tag Write Accesses: 9066963
L1 IP Table Tag Read Accesses: 9066963
L1 RST Tag Write Accesses: 0
L1 RST Tag Read Accesses: 13455501
L1 RR Filter Write Accesses: 0
L1 RR Filter Read Accesses: 12769177
test: 47330
L2 IP Table Read Accesses: 1182322
L2 IP Table Write Accesses: 1165667
L2 IP Table Tag Read Accesses: 591452
L2 IP Table Tag Write Accesses: 591452

DRAM Statistics
 CHANNEL 0
 RQ ROW_BUFFER_HIT:      55842  ROW_BUFFER_MISS:     386829
 DBUS_CONGESTED:        324
 WQ ROW_BUFFER_HIT:     308928  ROW_BUFFER_MISS:     129199  FULL:          0

 AVG_CONGESTED_CYCLE: 6
 All warmup complete: 2
Channel 0 Bank busy for read cycles: 0
Channel 0 Bank busy for write cycles: 0
Channel 0
Rank 0
0banks busy for read cycles: 5944367
0banks busy for write cycles: 7847
1banks busy for read cycles: 21059732
1banks busy for write cycles: 370342
2banks busy for read cycles: 11382608
2banks busy for write cycles: 170715
3banks busy for read cycles: 873752
3banks busy for write cycles: 193686
4banks busy for read cycles: 373905
4banks busy for write cycles: 302810
5banks busy for read cycles: 178086
5banks busy for write cycles: 345362
6banks busy for read cycles: 139345
6banks busy for write cycles: 329447
7banks busy for read cycles: 1180419
7banks busy for write cycles: 1092142
8banks busy for read cycles: 365976
8banks busy for write cycles: 5595338

CPU 0 Branch Prediction Accuracy: 99.9751% MPKI: 0.00438 Average ROB Occupancy at Mispredict: 48.7123
Branch types
NOT_BRANCH: 49121625 98.2432%
BRANCH_DIRECT_JUMP: 220 0.00044%
BRANCH_INDIRECT: 0 0%
BRANCH_CONDITIONAL: 877399 1.7548%
BRANCH_DIRECT_CALL: 220 0.00044%
BRANCH_INDIRECT_CALL: 0 0%
BRANCH_RETURN: 220 0.00044%
BRANCH_OTHER: 0 0%

@sumon_overall_L1D    639795      4057      2992    642787   1319942   1319942
@Sumon_Early_by_class_L1D    637247      1305      1213         0
@Sumon_Late_by_class_L1D      4050         1         0         0

@Sumon_Early_by_cycle_L1D      6132     21405     31857    375911      4231    200246        13         0         0         0         0         0
@Sumon_Late_by_cycle_L1D        14         7         9         5      4022         0
@Sumon_Early_stream_L1D      6105     20621     31530    375444      3733    199814         0         0         0         0         0         0
@Sumon_Early_CS_L1D         9       648       290       191        66       101         0         0         0         0         0         0
@Sumon_Early_CPLX_L1D         0       126        35       276       432       331        13         0         0         0         0         0
@Sumon_Late_stream_L1D        11         7         9         5      4018         0
@Sumon_Late_CS_L1D         0         0         0         0         1         0
@Sumon_Late_CPLX_L1D         0         0         0         0         0         0
@sumon_overall_L2C      2527        14    438717    441004   3305412   3305449
@Sumon_Early_by_class_L2C      2481        36         2         0
@Sumon_Late_by_class_L2C        14         0         0         0

@Sumon_Early_by_cycle_L2C        15        45       793       104        48       301         9         0         0         0         0      1212
@Sumon_Late_by_cycle_L2C         0         0         1         0        13         0
@Sumon_Early_stream_L2C        15        45       777       100        48       299         9         0         0         0         0      1188
@Sumon_Early_CS_L2C         0         0        16         4         0         1         0         0         0         0         0        15
@Sumon_Early_CPLX_L2C         0         0         0         0         0         0         0         0         0         0         0         2
@Sumon_Late_stream_L2C         0         0         1         0        13         0
@Sumon_Late_CS_L2C         0         0         0         0         0         0
@Sumon_Late_CPLX_L2C         0         0         0         0         0         0
DRAM PAGES: 1048576
Allocated PAGES: 8326
