
*** ChampSim Multicore Out-of-Order Simulator ***

Warmup Instructions: 10000000
Simulation Instructions: 50000000
Number of CPUs: 1
LLC sets: 2048
LLC ways: 16
Off-chip DRAM Size: 4096 MB Channels: 1 Width: 64-bit Data Rate: 6400 MT/s
CPU 0 runs traces/SPEC2017/654.roms_s-1070B.champsimtrace.xz
.xz
CPU 0 Bimodal branch predictor
BTB has LRU replacement policy
ITLB has LRU replacement policy
DTLB has LRU replacement policy
STLB has LRU replacement policy
L1I has LRU replacement policy
IP Table Entries: 256
L1D has LRU replacement policy
IP_Table L2 entries: 256
L2C has LRU replacement policy
LLC has LRU replacement policy
Heartbeat CPU 0 instructions: 10000002 cycles: 3109880 heartbeat IPC: 3.21556 cumulative IPC: 3.21556 (Simulation time: 0 hr 24 min 59 sec) 

Warmup complete CPU 0 instructions: 10000002 cycles: 3109880 (Simulation time: 0 hr 24 min 59 sec) 

Heartbeat CPU 0 instructions: 20000000 cycles: 13222644 heartbeat IPC: 0.988849 cumulative IPC: 0.988849 (Simulation time: 0 hr 47 min 9 sec) 
Heartbeat CPU 0 instructions: 30000000 cycles: 22536040 heartbeat IPC: 1.07372 cumulative IPC: 1.02954 (Simulation time: 1 hr 8 min 9 sec) 
Heartbeat CPU 0 instructions: 40000003 cycles: 36600175 heartbeat IPC: 0.711029 cumulative IPC: 0.895782 (Simulation time: 1 hr 37 min 59 sec) 
Heartbeat CPU 0 instructions: 50000000 cycles: 45120565 heartbeat IPC: 1.17365 cumulative IPC: 0.952139 (Simulation time: 1 hr 56 min 5 sec) 
Heartbeat CPU 0 instructions: 60000000 cycles: 59412716 heartbeat IPC: 0.699685 cumulative IPC: 0.888055 (Simulation time: 2 hr 16 min 28 sec) 
Finished CPU 0 instructions: 50000002 cycles: 56302838 cumulative IPC: 0.888055 (Simulation time: 2 hr 16 min 28 sec) 

ChampSim completed all CPUs

Region of Interest Statistics

CPU 0 cumulative IPC: 0.888055 instructions: 50000002 cycles: 56302838
ITLB TOTAL     ACCESS:    7620580  HIT:    7620580  MISS:          0  HIT %:        100  MISS %:          0   MPKI: 0
ITLB LOAD TRANSLATION ACCESS:    7620580  HIT:    7620580  MISS:          0  HIT %:        100  MISS %:          0   MPKI: 0
ITLB PREFETCH  REQUESTED:          0  ISSUED:          0  USEFUL:          0  USELESS:          0
ITLB USEFUL LOAD PREFETCHES:          0 PREFETCH ISSUED TO LOWER LEVEL:          0  ACCURACY: -nan
ITLB TIMELY PREFETCHES:          0 LATE PREFETCHES: 0 DROPPED PREFETCHES: 0
ITLB PREFETCHES SAME FILL-ORIGIN LEVEL: 0 DIFFERENT FILL-ORIGIN LEVEL: 0
ITLB AVERAGE MISS LATENCY: -nan cycles
ITLB RQ	ACCESS:    8150221	FORWARD:          0	MERGED:     529642	TO_CACHE:    7620579

DTLB TOTAL     ACCESS:   13148835  HIT:   13124748  MISS:      24087  HIT %:    99.8168  MISS %:   0.183187   MPKI: 0.48174
DTLB LOAD TRANSLATION ACCESS:   13148835  HIT:   13124748  MISS:      24087  HIT %:    99.8168  MISS %:   0.183187   MPKI: 0.48174
DTLB PREFETCH  REQUESTED:          0  ISSUED:          0  USEFUL:          0  USELESS:          0
DTLB USEFUL LOAD PREFETCHES:          0 PREFETCH ISSUED TO LOWER LEVEL:          0  ACCURACY: -nan
DTLB TIMELY PREFETCHES:          0 LATE PREFETCHES: 0 DROPPED PREFETCHES: 0
DTLB PREFETCHES SAME FILL-ORIGIN LEVEL: 0 DIFFERENT FILL-ORIGIN LEVEL: 0
DTLB AVERAGE MISS LATENCY: 202.526 cycles
DTLB RQ	ACCESS:   14466145	FORWARD:          0	MERGED:    1291211	TO_CACHE:   13174934

STLB TOTAL     ACCESS:     746702  HIT:     722629  MISS:      24073  HIT %:    96.7761  MISS %:    3.22391   MPKI: 0.48146
STLB LOAD TRANSLATION ACCESS:      24087  HIT:         14  MISS:      24073  HIT %:  0.0581226  MISS %:    99.9419   MPKI: 0.48146
STLB TRANSLATION FROM L1D PREFETCHER ACCESS:     722615  HIT:     722615  MISS:          0  HIT %:        100  MISS %:          0   MPKI: 0
STLB PREFETCH  REQUESTED:          0  ISSUED:          0  USEFUL:          0  USELESS:          0
STLB USEFUL LOAD PREFETCHES:          0 PREFETCH ISSUED TO LOWER LEVEL:          0  ACCURACY: -nan
STLB TIMELY PREFETCHES:          0 LATE PREFETCHES: 0 DROPPED PREFETCHES: 0
STLB PREFETCHES SAME FILL-ORIGIN LEVEL: 0 DIFFERENT FILL-ORIGIN LEVEL: 0
STLB AVERAGE MISS LATENCY: 190.367 cycles
STLB RQ	ACCESS:    2538354	FORWARD:          0	MERGED:    1791652	TO_CACHE:     746702

STLB Hit, L1D data hit: 0
STLB Hit, L2C data hit: 0
STLB Hit, LLC data hit: 0
STLB Hit, LLC data miss: 0
STLB STLB hints to L2: 0
L1D TOTAL     ACCESS:   14904324  HIT:   13780804  MISS:    1123520  HIT %:    92.4618  MISS %:    7.53822   MPKI: 22.4704
L1D LOAD      ACCESS:   11687389  HIT:   11651288  MISS:      36101  HIT %:    99.6911  MISS %:   0.308888   MPKI: 0.72202
L1D RFO       ACCESS:     722005  HIT:     377621  MISS:     344384  HIT %:    52.3017  MISS %:    47.6983   MPKI: 6.88768
L1D PREFETCH  ACCESS:    2494930  HIT:    1751895  MISS:     743035  HIT %:    70.2182  MISS %:    29.7818   MPKI: 14.8607
L1D PREFETCH  REQUESTED:    5239328  ISSUED:    5028534  USEFUL:     708544  USELESS:      34496
L1D USEFUL LOAD PREFETCHES:     708544 PREFETCH ISSUED TO LOWER LEVEL:     756035  ACCURACY: 93.7184
L1D TIMELY PREFETCHES:     708544 LATE PREFETCHES: 11528 DROPPED PREFETCHES: 0
L1D PREFETCHES SAME FILL-ORIGIN LEVEL: 756035 DIFFERENT FILL-ORIGIN LEVEL: 0
L1D AVERAGE MISS LATENCY: 349427 cycles
L1D RQ	ACCESS:   18807447	FORWARD:          0	MERGED:    7080028	TO_CACHE:   11727419
L1D WQ	ACCESS:    2738726	FORWARD:          0	MERGED:          0	TO_CACHE:    2738726
L1D PQ	ACCESS:    2514267	FORWARD:          0	MERGED:          0	TO_CACHE:    2514267

L1D UNIQUE REGIONS ACCESSED: 0
L1D REGIONS CONFLICTS: 0
L1D Cross Page Prefetch Requests: 0
L1D Same Page Prefetch Requests: 2810676
L1D ROI Sum of L1D PQ occupancy: 47551348
L1D PREFETCHES PUSHED FROM L2C: 0
L1I TOTAL     ACCESS:    8150222  HIT:    8150222  MISS:          0  HIT %:        100  MISS %:          0   MPKI: 0
L1I LOAD      ACCESS:    8150222  HIT:    8150222  MISS:          0  HIT %:        100  MISS %:          0   MPKI: 0
L1I PREFETCH  REQUESTED:          0  ISSUED:          0  USEFUL:          0  USELESS:          0
L1I USEFUL LOAD PREFETCHES:          0 PREFETCH ISSUED TO LOWER LEVEL:          0  ACCURACY: -nan
L1I TIMELY PREFETCHES:          0 LATE PREFETCHES: 0 DROPPED PREFETCHES: 0
L1I PREFETCHES SAME FILL-ORIGIN LEVEL: 0 DIFFERENT FILL-ORIGIN LEVEL: 0
L1I AVERAGE MISS LATENCY: -nan cycles
L1I RQ	ACCESS:   13158064	FORWARD:          0	MERGED:    5007843	TO_CACHE:    8150221

BTB TOTAL     ACCESS:    2779529  HIT:    2779520  MISS:          9  HIT %:    99.9997  MISS %: 0.000323796   MPKI: 0.00018
BTB BRANCH_DIRECT_JUMP	ACCESS:          0  HIT:          0  MISS:          0
BTB BRANCH_INDIRECT	ACCESS:          0  HIT:          0  MISS:          0
BTB BRANCH_CONDITIONAL	ACCESS:    2779529  HIT:    2779520  MISS:          9
BTB BRANCH_DIRECT_CALL	ACCESS:          0  HIT:          0  MISS:          0
BTB BRANCH_INDIRECT_CALL	ACCESS:          0  HIT:          0  MISS:          0
BTB BRANCH_RETURN	ACCESS:          0  HIT:          0  MISS:          0
BTB BRANCH_OTHER ACCESS:          0  HIT:          0  MISS:          0

L2C TOTAL     ACCESS:    4206091  HIT:    3048377  MISS:    1157714  HIT %:    72.4753  MISS %:    27.5247   MPKI: 23.1543
L2C LOAD      ACCESS:      24573  HIT:       3517  MISS:      21056  HIT %:    14.3125  MISS %:    85.6875   MPKI: 0.42112
L2C DATA LOAD MPKI: 0.42112
L2C INSTRUCTION LOAD MPKI: 0
L2C RFO       ACCESS:     344384  HIT:          0  MISS:     344384  HIT %:          0  MISS %:        100   MPKI: 6.88768
L2C PREFETCH  ACCESS:    3468517  HIT:    2681173  MISS:     787344  HIT %:    77.3003  MISS %:    22.6997   MPKI: 15.7469
L2C DATA PREFETCH MPKI: 15.7469
L2C INSTRUCTION PREFETCH MPKI: 0
L2C WRITEBACK ACCESS:     344520  HIT:     344494  MISS:         26  HIT %:    99.9925  MISS %: 0.00754673   MPKI: 0.00052
L2C LOAD TRANSLATION ACCESS:      24097  HIT:      19193  MISS:       4904  HIT %:    79.6489  MISS %:    20.3511   MPKI: 0.09808
L2C PREFETCH  REQUESTED:    3466600  ISSUED:    3331332  USEFUL:       2983  USELESS:     784261
L2C USEFUL LOAD PREFETCHES:       2983 PREFETCH ISSUED TO LOWER LEVEL:     787832  ACCURACY: 0.378634
L2C TIMELY PREFETCHES:       2983 LATE PREFETCHES: 487 DROPPED PREFETCHES: 0
L2C PREFETCHES SAME FILL-ORIGIN LEVEL: 676233 DIFFERENT FILL-ORIGIN LEVEL: 0
L2C AVERAGE MISS LATENCY: 308.024 cycles
L2C RQ	ACCESS:     393056	FORWARD:          0	MERGED:          0	TO_CACHE:     393056
L2C WQ	ACCESS:     344520	FORWARD:          0	MERGED:          0	TO_CACHE:     344520
L2C PQ	ACCESS:    4085895	FORWARD:          0	MERGED:     315069	TO_CACHE:    3770826

L2C Instructions Evicting Data 0
L2C Translations Evicting Data 4862
L2C Data Evicting Data 1147919
L2C Instructions Evicting Instructions 0
L2C Translations Evicting Instructions 0
L2C Data Evicting Instructions 0
L2C Instructions Evicting Translations 0
L2C Translations Evicting Translations 42
L2C Data Evicting Translations 4865
L2C Dense regions hint from L2: 0
PSCL5 TOTAL     ACCESS:      24073  HIT:      24073  MISS:          0  HIT %:        100  MISS %:          0   MPKI: 0
PSCL5 LOAD TRANSLATION ACCESS:      24073  HIT:      24073  MISS:          0  HIT %:        100  MISS %:          0   MPKI: 0
PSCL5 PREFETCH  REQUESTED:          0  ISSUED:          0  USEFUL:          0  USELESS:          0
PSCL5 USEFUL LOAD PREFETCHES:          0 PREFETCH ISSUED TO LOWER LEVEL:          0  ACCURACY: -nan
PSCL5 TIMELY PREFETCHES:          0 LATE PREFETCHES: 0 DROPPED PREFETCHES: 0
PSCL5 PREFETCHES SAME FILL-ORIGIN LEVEL: 0 DIFFERENT FILL-ORIGIN LEVEL: 0

PSCL4 TOTAL     ACCESS:      24073  HIT:      24073  MISS:          0  HIT %:        100  MISS %:          0   MPKI: 0
PSCL4 LOAD TRANSLATION ACCESS:      24073  HIT:      24073  MISS:          0  HIT %:        100  MISS %:          0   MPKI: 0
PSCL4 PREFETCH  REQUESTED:          0  ISSUED:          0  USEFUL:          0  USELESS:          0
PSCL4 USEFUL LOAD PREFETCHES:          0 PREFETCH ISSUED TO LOWER LEVEL:          0  ACCURACY: -nan
PSCL4 TIMELY PREFETCHES:          0 LATE PREFETCHES: 0 DROPPED PREFETCHES: 0
PSCL4 PREFETCHES SAME FILL-ORIGIN LEVEL: 0 DIFFERENT FILL-ORIGIN LEVEL: 0

PSCL3 TOTAL     ACCESS:      24073  HIT:      24073  MISS:          0  HIT %:        100  MISS %:          0   MPKI: 0
PSCL3 LOAD TRANSLATION ACCESS:      24073  HIT:      24073  MISS:          0  HIT %:        100  MISS %:          0   MPKI: 0
PSCL3 PREFETCH  REQUESTED:          0  ISSUED:          0  USEFUL:          0  USELESS:          0
PSCL3 USEFUL LOAD PREFETCHES:          0 PREFETCH ISSUED TO LOWER LEVEL:          0  ACCURACY: -nan
PSCL3 TIMELY PREFETCHES:          0 LATE PREFETCHES: 0 DROPPED PREFETCHES: 0
PSCL3 PREFETCHES SAME FILL-ORIGIN LEVEL: 0 DIFFERENT FILL-ORIGIN LEVEL: 0

PSCL2 TOTAL     ACCESS:      24073  HIT:      24008  MISS:         65  HIT %:      99.73  MISS %:   0.270012   MPKI: 0.0013
PSCL2 LOAD TRANSLATION ACCESS:      24073  HIT:      24008  MISS:         65  HIT %:      99.73  MISS %:   0.270012   MPKI: 0.0013
PSCL2 PREFETCH  REQUESTED:          0  ISSUED:          0  USEFUL:          0  USELESS:          0
PSCL2 USEFUL LOAD PREFETCHES:          0 PREFETCH ISSUED TO LOWER LEVEL:          0  ACCURACY: -nan
PSCL2 TIMELY PREFETCHES:          0 LATE PREFETCHES: 0 DROPPED PREFETCHES: 0
PSCL2 PREFETCHES SAME FILL-ORIGIN LEVEL: 0 DIFFERENT FILL-ORIGIN LEVEL: 0

LLC TOTAL     ACCESS:    1502201  HIT:     344498  MISS:    1157703  HIT %:    22.9329  MISS %:    77.0671   MPKI: 23.1541
LLC LOAD      ACCESS:      20569  HIT:          0  MISS:      20569  HIT %:          0  MISS %:        100   MPKI: 0.41138
LLC RFO       ACCESS:     344384  HIT:          0  MISS:     344384  HIT %:          0  MISS %:        100   MPKI: 6.88768
LLC PREFETCH  ACCESS:     787831  HIT:          0  MISS:     787831  HIT %:          0  MISS %:        100   MPKI: 15.7566
LLC WRITEBACK ACCESS:     344513  HIT:     344487  MISS:         26  HIT %:    99.9925  MISS %: 0.00754689   MPKI: 0.00052
LLC LOAD TRANSLATION ACCESS:       4904  HIT:         11  MISS:       4893  HIT %:   0.224307  MISS %:    99.7757   MPKI: 0.09786
LLC PREFETCH  REQUESTED:          0  ISSUED:          0  USEFUL:          0  USELESS:     787684
LLC USEFUL LOAD PREFETCHES:          0 PREFETCH ISSUED TO LOWER LEVEL:     787832  ACCURACY: 0
LLC TIMELY PREFETCHES:          0 LATE PREFETCHES: 0 DROPPED PREFETCHES: 0
LLC PREFETCHES SAME FILL-ORIGIN LEVEL: 0 DIFFERENT FILL-ORIGIN LEVEL: 0
LLC AVERAGE MISS LATENCY: 276.842 cycles
LLC RQ	ACCESS:     369859	FORWARD:          0	MERGED:          0	TO_CACHE:     369859
LLC WQ	ACCESS:     344513	FORWARD:          0	MERGED:          0	TO_CACHE:     344513
LLC PQ	ACCESS:     787832	FORWARD:          0	MERGED:          0	TO_CACHE:     787832

LLC Dense regions hint to LLC: 0

RAW hits: 2
Loads Generated: 18807450
Loads sent to L1D: 18807447
Stores Generated: 2738725
Stores sent to L1D: 2738726
Major fault: 0 Minor fault: 15227
Allocated PAGES: 15227

stream: 
stream:times selected: 1809808
stream:pref_filled: 895628
stream:pref_useful: 853795
stream:pref_late: 11379
stream:misses: 73
stream:misses_by_poll: 0

CS: 
CS:times selected: 1779316
CS:pref_filled: 1572
CS:pref_useful: 1490
CS:pref_late: 75
CS:misses: 79128
CS:misses_by_poll: 7

CPLX: 
CPLX:times selected: 30408
CPLX:pref_filled: 338
CPLX:pref_useful: 23
CPLX:pref_late: 11
CPLX:misses: 1227
CPLX:misses_by_poll: 0

NL_L1: 
NL:times selected: 32
NL:pref_filled: 3
NL:pref_useful: 3
NL:pref_late: 0
NL:misses: 6
NL:misses_by_poll: 0

total selections: 3619564
total_filled: 743035
total_useful: 708544
total_late: 11754
total_polluted: 7
total_misses_after_warmup: 76132
conflicts: 20
Degree Incremented Times: 188532
Degree Decremented Times: 2909

L1 IP Table Write Accesses: 11725536
L1 IP Table Read Accesses: 11725516
L1 RST Write Accesses: 1512012
L1 RST Read Accesses: 3024024
L1 CSPT Write Accesses: 1512012
L1 CSPT Read Accesses: 1570431
L1 RR Filter Tag Write Accesses: 2725061
L1 RR Filter Tag Read Accesses: 329961942
L1 IP Table Tag Write Accesses: 11727420
L1 IP Table Tag Read Accesses: 11727420
L1 RST Tag Write Accesses: 0
L1 RST Tag Read Accesses: 13673130
L1 RR Filter Write Accesses: 0
L1 RR Filter Read Accesses: 12921031
test: 40325
L2 IP Table Read Accesses: 1232773
L2 IP Table Write Accesses: 1208214
L2 IP Table Tag Read Accesses: 616390
L2 IP Table Tag Write Accesses: 616390

DRAM Statistics
 CHANNEL 0
 RQ ROW_BUFFER_HIT:     265076  ROW_BUFFER_MISS:     892602
 DBUS_CONGESTED:        194
 WQ ROW_BUFFER_HIT:     120019  ROW_BUFFER_MISS:     224498  FULL:          0

 AVG_CONGESTED_CYCLE: 6
 All warmup complete: 2
Channel 0 Bank busy for read cycles: 0
Channel 0 Bank busy for write cycles: 0
Channel 0
Rank 0
0banks busy for read cycles: 97076
0banks busy for write cycles: 1
1banks busy for read cycles: 8542561
1banks busy for write cycles: 90497
2banks busy for read cycles: 12545200
2banks busy for write cycles: 90037
3banks busy for read cycles: 9585010
3banks busy for write cycles: 91333
4banks busy for read cycles: 4768294
4banks busy for write cycles: 96808
5banks busy for read cycles: 1629135
5banks busy for write cycles: 103353
6banks busy for read cycles: 1440296
6banks busy for write cycles: 129929
7banks busy for read cycles: 3057101
7banks busy for write cycles: 573742
8banks busy for read cycles: 3965719
8banks busy for write cycles: 9496747

CPU 0 Branch Prediction Accuracy: 99.8858% MPKI: 0.06352 Average ROB Occupancy at Mispredict: 195.139
Branch types
NOT_BRANCH: 47219347 94.4387%
BRANCH_DIRECT_JUMP: 0 0%
BRANCH_INDIRECT: 0 0%
BRANCH_CONDITIONAL: 2780656 5.56131%
BRANCH_DIRECT_CALL: 0 0%
BRANCH_INDIRECT_CALL: 0 0%
BRANCH_RETURN: 0 0%
BRANCH_OTHER: 0 0%

@sumon_overall_L1D    708544     11528     34496    743035   5028534   5239328
@Sumon_Early_by_class_L1D    707182      1339        23         0
@Sumon_Late_by_class_L1D     11153        75        11         0

@Sumon_Early_by_cycle_L1D     10610     34253     72379     23179     14748    518392     34979         4         0         0         0         0
@Sumon_Late_by_cycle_L1D       513       819       970      1443      6534      1249
@Sumon_Early_stream_L1D     10540     34103     72310     23051     14526    517681     34967         4         0         0         0         0
@Sumon_Early_CS_L1D        68       150        69       128       222       700         2         0         0         0         0         0
@Sumon_Early_CPLX_L1D         2         0         0         0         0        11        10         0         0         0         0         0
@Sumon_Late_stream_L1D       221       812       959      1425      6492      1244
@Sumon_Late_CS_L1D         3         7        10        15        35         5
@Sumon_Late_CPLX_L1D         0         0         1         3         7         0
@sumon_overall_L2C      2983       487    784261    787344   3331332   3466600
@Sumon_Early_by_class_L2C      2982         1         0         0
@Sumon_Late_by_class_L2C       486         1         0         0

@Sumon_Early_by_cycle_L2C        30        78        65        70        53       743      1935         9         0         0         0         0
@Sumon_Late_by_cycle_L2C         0         1         9        28       337       112
@Sumon_Early_stream_L2C        30        78        65        70        52       743      1935         9         0         0         0         0
@Sumon_Early_CS_L2C         0         0         0         0         1         0         0         0         0         0         0         0
@Sumon_Early_CPLX_L2C         0         0         0         0         0         0         0         0         0         0         0         0
@Sumon_Late_stream_L2C         0         1         9        28       337       111
@Sumon_Late_CS_L2C         0         0         0         0         0         1
@Sumon_Late_CPLX_L2C         0         0         0         0         0         0
DRAM PAGES: 1048576
Allocated PAGES: 15227
