
*** ChampSim Multicore Out-of-Order Simulator ***

Warmup Instructions: 10000000
Simulation Instructions: 50000000
Number of CPUs: 1
LLC sets: 2048
LLC ways: 16
Off-chip DRAM Size: 4096 MB Channels: 1 Width: 64-bit Data Rate: 800 MT/s
CPU 0 runs traces/clientserver/client_003.champsimtrace.xz
.xz
CPU 0 Bimodal branch predictor
BTB has LRU replacement policy
ITLB has LRU replacement policy
DTLB has LRU replacement policy
STLB has LRU replacement policy
L1I has LRU replacement policy
IP Table Entries: 256
L1D has LRU replacement policy
IP_Table L2 entries: 256
L2C has LRU replacement policy
LLC has LRU replacement policy
Heartbeat CPU 0 instructions: 10000000 cycles: 2803281 heartbeat IPC: 3.56725 cumulative IPC: 3.56725 (Simulation time: 0 hr 17 min 43 sec) 

Warmup complete CPU 0 instructions: 10000004 cycles: 2803282 (Simulation time: 0 hr 17 min 43 sec) 

Heartbeat CPU 0 instructions: 20000000 cycles: 20832880 heartbeat IPC: 0.554644 cumulative IPC: 0.554643 (Simulation time: 0 hr 33 min 57 sec) 
Heartbeat CPU 0 instructions: 30000000 cycles: 35981144 heartbeat IPC: 0.660142 cumulative IPC: 0.602811 (Simulation time: 0 hr 50 min 53 sec) 
Heartbeat CPU 0 instructions: 40000000 cycles: 50645874 heartbeat IPC: 0.681908 cumulative IPC: 0.627056 (Simulation time: 1 hr 7 min 48 sec) 
Heartbeat CPU 0 instructions: 50000003 cycles: 64829184 heartbeat IPC: 0.705054 cumulative IPC: 0.644892 (Simulation time: 1 hr 24 min 25 sec) 
Heartbeat CPU 0 instructions: 60000002 cycles: 79474783 heartbeat IPC: 0.682799 cumulative IPC: 0.652133 (Simulation time: 1 hr 39 min 57 sec) 
Finished CPU 0 instructions: 50000001 cycles: 76671503 cumulative IPC: 0.652133 (Simulation time: 1 hr 39 min 57 sec) 

ChampSim completed all CPUs

Region of Interest Statistics

CPU 0 cumulative IPC: 0.652133 instructions: 50000001 cycles: 76671503
ITLB TOTAL     ACCESS:    8475031  HIT:    8403633  MISS:      71398  HIT %:    99.1575  MISS %:   0.842451   MPKI: 1.42796
ITLB LOAD TRANSLATION ACCESS:    8475031  HIT:    8403633  MISS:      71398  HIT %:    99.1575  MISS %:   0.842451   MPKI: 1.42796
ITLB PREFETCH  REQUESTED:          0  ISSUED:          0  USEFUL:          0  USELESS:          0
ITLB USEFUL LOAD PREFETCHES:          0 PREFETCH ISSUED TO LOWER LEVEL:          0  ACCURACY: -nan
ITLB TIMELY PREFETCHES:          0 LATE PREFETCHES: 0 DROPPED PREFETCHES: 0
ITLB PREFETCHES SAME FILL-ORIGIN LEVEL: 0 DIFFERENT FILL-ORIGIN LEVEL: 0
ITLB AVERAGE MISS LATENCY: 9.98735 cycles
ITLB RQ	ACCESS:   10052283	FORWARD:          0	MERGED:    1556966	TO_CACHE:    8495317

DTLB TOTAL     ACCESS:   10990667  HIT:   10870446  MISS:     120221  HIT %:    98.9062  MISS %:    1.09385   MPKI: 2.40442
DTLB LOAD TRANSLATION ACCESS:   10990667  HIT:   10870446  MISS:     120221  HIT %:    98.9062  MISS %:    1.09385   MPKI: 2.40442
DTLB PREFETCH  REQUESTED:          0  ISSUED:          0  USEFUL:          0  USELESS:          0
DTLB USEFUL LOAD PREFETCHES:          0 PREFETCH ISSUED TO LOWER LEVEL:          0  ACCURACY: -nan
DTLB TIMELY PREFETCHES:          0 LATE PREFETCHES: 0 DROPPED PREFETCHES: 0
DTLB PREFETCHES SAME FILL-ORIGIN LEVEL: 0 DIFFERENT FILL-ORIGIN LEVEL: 0
DTLB AVERAGE MISS LATENCY: 10.362 cycles
DTLB RQ	ACCESS:   15106155	FORWARD:          0	MERGED:    4107169	TO_CACHE:   10998986

STLB TOTAL     ACCESS:     490231  HIT:     488459  MISS:       1772  HIT %:    99.6385  MISS %:   0.361462   MPKI: 0.03544
STLB LOAD TRANSLATION ACCESS:     191619  HIT:     189847  MISS:       1772  HIT %:    99.0752  MISS %:   0.924752   MPKI: 0.03544
STLB TRANSLATION FROM L1D PREFETCHER ACCESS:     298612  HIT:     298612  MISS:          0  HIT %:        100  MISS %:          0   MPKI: 0
STLB PREFETCH  REQUESTED:          0  ISSUED:          0  USEFUL:          0  USELESS:          0
STLB USEFUL LOAD PREFETCHES:          0 PREFETCH ISSUED TO LOWER LEVEL:          0  ACCURACY: -nan
STLB TIMELY PREFETCHES:          0 LATE PREFETCHES: 0 DROPPED PREFETCHES: 0
STLB PREFETCHES SAME FILL-ORIGIN LEVEL: 0 DIFFERENT FILL-ORIGIN LEVEL: 0
STLB AVERAGE MISS LATENCY: 129.143 cycles
STLB RQ	ACCESS:     564633	FORWARD:          0	MERGED:      74402	TO_CACHE:     490231

STLB Hit, L1D data hit: 0
STLB Hit, L2C data hit: 0
STLB Hit, LLC data hit: 0
STLB Hit, LLC data miss: 0
STLB STLB hints to L2: 0
L1D TOTAL     ACCESS:   15121180  HIT:   14771655  MISS:     349525  HIT %:    97.6885  MISS %:    2.31149   MPKI: 6.9905
L1D LOAD      ACCESS:    7424064  HIT:    7301352  MISS:     122712  HIT %:    98.3471  MISS %:     1.6529   MPKI: 2.45424
L1D RFO       ACCESS:    7330622  HIT:    7175169  MISS:     155453  HIT %:    97.8794  MISS %:     2.1206   MPKI: 3.10906
L1D PREFETCH  ACCESS:     366494  HIT:     295134  MISS:      71360  HIT %:     80.529  MISS %:     19.471   MPKI: 1.4272
L1D PREFETCH  REQUESTED:     746664  ISSUED:     746661  USEFUL:      21008  USELESS:      50327
L1D USEFUL LOAD PREFETCHES:      21008 PREFETCH ISSUED TO LOWER LEVEL:      73849  ACCURACY: 28.4472
L1D TIMELY PREFETCHES:      21008 LATE PREFETCHES: 2328 DROPPED PREFETCHES: 0
L1D PREFETCHES SAME FILL-ORIGIN LEVEL: 73849 DIFFERENT FILL-ORIGIN LEVEL: 0
L1D AVERAGE MISS LATENCY: 324668 cycles
L1D RQ	ACCESS:   12009683	FORWARD:          0	MERGED:    4396518	TO_CACHE:    7437529
L1D WQ	ACCESS:    7811254	FORWARD:     176269	MERGED:     142628	TO_CACHE:    7668626
L1D PQ	ACCESS:     373647	FORWARD:          0	MERGED:          0	TO_CACHE:     373014

L1D UNIQUE REGIONS ACCESSED: 0
L1D REGIONS CONFLICTS: 0
L1D Cross Page Prefetch Requests: 0
L1D Same Page Prefetch Requests: 444118
L1D ROI Sum of L1D PQ occupancy: 4953167
L1D PREFETCHES PUSHED FROM L2C: 0
L1I TOTAL     ACCESS:    9924820  HIT:    9389705  MISS:     535115  HIT %:    94.6083  MISS %:    5.39168   MPKI: 10.7023
L1I LOAD      ACCESS:    9924820  HIT:    9389705  MISS:     535115  HIT %:    94.6083  MISS %:    5.39168   MPKI: 10.7023
L1I PREFETCH  REQUESTED:          0  ISSUED:          0  USEFUL:          0  USELESS:          0
L1I USEFUL LOAD PREFETCHES:          0 PREFETCH ISSUED TO LOWER LEVEL:          0  ACCURACY: -nan
L1I TIMELY PREFETCHES:          0 LATE PREFETCHES: 0 DROPPED PREFETCHES: 0
L1I PREFETCHES SAME FILL-ORIGIN LEVEL: 0 DIFFERENT FILL-ORIGIN LEVEL: 0
L1I AVERAGE MISS LATENCY: 23.4934 cycles
L1I RQ	ACCESS:   14768147	FORWARD:          0	MERGED:    4715864	TO_CACHE:   10052283

BTB TOTAL     ACCESS:    6766808  HIT:    6169221  MISS:     597587  HIT %:    91.1688  MISS %:    8.83115   MPKI: 11.9517
BTB BRANCH_DIRECT_JUMP	ACCESS:     494781  HIT:     477302  MISS:      17479
BTB BRANCH_INDIRECT	ACCESS:     114379  HIT:      50385  MISS:      63994
BTB BRANCH_CONDITIONAL	ACCESS:    3862756  HIT:    3810705  MISS:      52051
BTB BRANCH_DIRECT_CALL	ACCESS:     995377  HIT:     956807  MISS:      38570
BTB BRANCH_INDIRECT_CALL	ACCESS:     151743  HIT:     115162  MISS:      36581
BTB BRANCH_RETURN	ACCESS:    1147772  HIT:     758860  MISS:     388912
BTB BRANCH_OTHER ACCESS:          0  HIT:          0  MISS:          0

L2C TOTAL     ACCESS:    1138865  HIT:     867388  MISS:     271477  HIT %:    76.1625  MISS %:    23.8375   MPKI: 5.42954
L2C LOAD      ACCESS:     655498  HIT:     547187  MISS:     108311  HIT %:    83.4765  MISS %:    16.5235   MPKI: 2.16622
L2C DATA LOAD MPKI: 0.70228
L2C INSTRUCTION LOAD MPKI: 1.46394
L2C RFO       ACCESS:     155291  HIT:      40411  MISS:     114880  HIT %:    26.0228  MISS %:    73.9772   MPKI: 2.2976
L2C PREFETCH  ACCESS:     137138  HIT:      91108  MISS:      46030  HIT %:    66.4353  MISS %:    33.5647   MPKI: 0.9206
L2C DATA PREFETCH MPKI: 0.9206
L2C INSTRUCTION PREFETCH MPKI: 0
L2C WRITEBACK ACCESS:     189098  HIT:     187803  MISS:       1295  HIT %:    99.3152  MISS %:    0.68483   MPKI: 0.0259
L2C LOAD TRANSLATION ACCESS:       1840  HIT:        879  MISS:        961  HIT %:    47.7717  MISS %:    52.2283   MPKI: 0.01922
L2C PREFETCH  REQUESTED:      65442  ISSUED:      65442  USEFUL:      10104  USELESS:      35862
L2C USEFUL LOAD PREFETCHES:      10104 PREFETCH ISSUED TO LOWER LEVEL:      46318  ACCURACY: 21.8144
L2C TIMELY PREFETCHES:      10104 LATE PREFETCHES: 288 DROPPED PREFETCHES: 0
L2C PREFETCHES SAME FILL-ORIGIN LEVEL: 14699 DIFFERENT FILL-ORIGIN LEVEL: 0
L2C AVERAGE MISS LATENCY: 131.804 cycles
L2C RQ	ACCESS:     812631	FORWARD:          0	MERGED:          0	TO_CACHE:     812629
L2C WQ	ACCESS:     189098	FORWARD:          3	MERGED:          0	TO_CACHE:     189098
L2C PQ	ACCESS:     139291	FORWARD:          0	MERGED:       1276	TO_CACHE:     138014

L2C Instructions Evicting Data 47463
L2C Translations Evicting Data 663
L2C Data Evicting Data 147274
L2C Instructions Evicting Instructions 25422
L2C Translations Evicting Instructions 294
L2C Data Evicting Instructions 48083
L2C Instructions Evicting Translations 312
L2C Translations Evicting Translations 4
L2C Data Evicting Translations 667
L2C Dense regions hint from L2: 0
PSCL5 TOTAL     ACCESS:       1772  HIT:       1772  MISS:          0  HIT %:        100  MISS %:          0   MPKI: 0
PSCL5 LOAD TRANSLATION ACCESS:       1772  HIT:       1772  MISS:          0  HIT %:        100  MISS %:          0   MPKI: 0
PSCL5 PREFETCH  REQUESTED:          0  ISSUED:          0  USEFUL:          0  USELESS:          0
PSCL5 USEFUL LOAD PREFETCHES:          0 PREFETCH ISSUED TO LOWER LEVEL:          0  ACCURACY: -nan
PSCL5 TIMELY PREFETCHES:          0 LATE PREFETCHES: 0 DROPPED PREFETCHES: 0
PSCL5 PREFETCHES SAME FILL-ORIGIN LEVEL: 0 DIFFERENT FILL-ORIGIN LEVEL: 0

PSCL4 TOTAL     ACCESS:       1772  HIT:       1772  MISS:          0  HIT %:        100  MISS %:          0   MPKI: 0
PSCL4 LOAD TRANSLATION ACCESS:       1772  HIT:       1772  MISS:          0  HIT %:        100  MISS %:          0   MPKI: 0
PSCL4 PREFETCH  REQUESTED:          0  ISSUED:          0  USEFUL:          0  USELESS:          0
PSCL4 USEFUL LOAD PREFETCHES:          0 PREFETCH ISSUED TO LOWER LEVEL:          0  ACCURACY: -nan
PSCL4 TIMELY PREFETCHES:          0 LATE PREFETCHES: 0 DROPPED PREFETCHES: 0
PSCL4 PREFETCHES SAME FILL-ORIGIN LEVEL: 0 DIFFERENT FILL-ORIGIN LEVEL: 0

PSCL3 TOTAL     ACCESS:       1770  HIT:       1770  MISS:          0  HIT %:        100  MISS %:          0   MPKI: 0
PSCL3 LOAD TRANSLATION ACCESS:       1770  HIT:       1770  MISS:          0  HIT %:        100  MISS %:          0   MPKI: 0
PSCL3 PREFETCH  REQUESTED:          0  ISSUED:          0  USEFUL:          0  USELESS:          0
PSCL3 USEFUL LOAD PREFETCHES:          0 PREFETCH ISSUED TO LOWER LEVEL:          0  ACCURACY: -nan
PSCL3 TIMELY PREFETCHES:          0 LATE PREFETCHES: 0 DROPPED PREFETCHES: 0
PSCL3 PREFETCHES SAME FILL-ORIGIN LEVEL: 0 DIFFERENT FILL-ORIGIN LEVEL: 0

PSCL2 TOTAL     ACCESS:       1772  HIT:       1701  MISS:         71  HIT %:    95.9932  MISS %:    4.00677   MPKI: 0.00142
PSCL2 LOAD TRANSLATION ACCESS:       1772  HIT:       1701  MISS:         71  HIT %:    95.9932  MISS %:    4.00677   MPKI: 0.00142
PSCL2 PREFETCH  REQUESTED:          0  ISSUED:          0  USEFUL:          0  USELESS:          0
PSCL2 USEFUL LOAD PREFETCHES:          0 PREFETCH ISSUED TO LOWER LEVEL:          0  ACCURACY: -nan
PSCL2 TIMELY PREFETCHES:          0 LATE PREFETCHES: 0 DROPPED PREFETCHES: 0
PSCL2 PREFETCHES SAME FILL-ORIGIN LEVEL: 0 DIFFERENT FILL-ORIGIN LEVEL: 0

LLC TOTAL     ACCESS:     403934  HIT:     313764  MISS:      90170  HIT %:     77.677  MISS %:     22.323   MPKI: 1.8034
LLC LOAD      ACCESS:     108096  HIT:      85655  MISS:      22441  HIT %:    79.2397  MISS %:    20.7603   MPKI: 0.44882
LLC RFO       ACCESS:     114807  HIT:      59661  MISS:      55146  HIT %:    51.9663  MISS %:    48.0337   MPKI: 1.10292
LLC PREFETCH  ACCESS:      46318  HIT:      34398  MISS:      11920  HIT %:    74.2649  MISS %:    25.7351   MPKI: 0.2384
LLC WRITEBACK ACCESS:     133752  HIT:     133537  MISS:        215  HIT %:    99.8393  MISS %:   0.160745   MPKI: 0.0043
LLC LOAD TRANSLATION ACCESS:        961  HIT:        513  MISS:        448  HIT %:    53.3819  MISS %:    46.6181   MPKI: 0.00896
LLC PREFETCH  REQUESTED:          0  ISSUED:          0  USEFUL:       2878  USELESS:       9504
LLC USEFUL LOAD PREFETCHES:       2878 PREFETCH ISSUED TO LOWER LEVEL:      11920  ACCURACY: 24.1443
LLC TIMELY PREFETCHES:       2878 LATE PREFETCHES: 0 DROPPED PREFETCHES: 0
LLC PREFETCHES SAME FILL-ORIGIN LEVEL: 0 DIFFERENT FILL-ORIGIN LEVEL: 0
LLC AVERAGE MISS LATENCY: 306.924 cycles
LLC RQ	ACCESS:     223864	FORWARD:          0	MERGED:          0	TO_CACHE:     223864
LLC WQ	ACCESS:     133752	FORWARD:          0	MERGED:          0	TO_CACHE:     133752
LLC PQ	ACCESS:      46318	FORWARD:          0	MERGED:          0	TO_CACHE:      46318

LLC Dense regions hint to LLC: 0

RAW hits: 1565173
Loads Generated: 13574857
Loads sent to L1D: 12009683
Stores Generated: 7811247
Stores sent to L1D: 7811254
Major fault: 0 Minor fault: 2338
Allocated PAGES: 2338

stream: 
stream:times selected: 675149
stream:pref_filled: 50899
stream:pref_useful: 13377
stream:pref_late: 1095
stream:misses: 5848
stream:misses_by_poll: 0

CS: 
CS:times selected: 49660
CS:pref_filled: 14971
CS:pref_useful: 9629
CS:pref_late: 1025
CS:misses: 4987
CS:misses_by_poll: 10

CPLX: 
CPLX:times selected: 622956
CPLX:pref_filled: 21336
CPLX:pref_useful: 3263
CPLX:pref_late: 83
CPLX:misses: 29867
CPLX:misses_by_poll: 25

NL_L1: 
NL:times selected: 6364
NL:pref_filled: 589
NL:pref_useful: 197
NL:pref_late: 23
NL:misses: 334
NL:misses_by_poll: 0

total selections: 1354129
total_filled: 71360
total_useful: 21008
total_late: 2456
total_polluted: 35
total_misses_after_warmup: 136175
conflicts: 2430005
Degree Incremented Times: 0
Degree Decremented Times: 63471

L1 IP Table Write Accesses: 4568107
L1 IP Table Read Accesses: 2138102
L1 RST Write Accesses: 574545
L1 RST Read Accesses: 1149090
L1 CSPT Write Accesses: 574545
L1 CSPT Read Accesses: 1108321
L1 RR Filter Tag Write Accesses: 373650
L1 RR Filter Tag Read Accesses: 21781089
L1 IP Table Tag Write Accesses: 7437527
L1 IP Table Tag Read Accesses: 7437527
L1 RST Tag Write Accesses: 0
L1 RST Tag Read Accesses: 5311574
L1 RR Filter Write Accesses: 0
L1 RR Filter Read Accesses: 831517
test: 181504
L2 IP Table Read Accesses: 319552
L2 IP Table Write Accesses: 306028
L2 IP Table Tag Read Accesses: 193089
L2 IP Table Tag Write Accesses: 193089

DRAM Statistics
 CHANNEL 0
 RQ ROW_BUFFER_HIT:      32904  ROW_BUFFER_MISS:      57045
 DBUS_CONGESTED:      84784
 WQ ROW_BUFFER_HIT:      14306  ROW_BUFFER_MISS:      45018  FULL:          0

 AVG_CONGESTED_CYCLE: 35
 All warmup complete: 2
Channel 0 Bank busy for read cycles: 0
Channel 0 Bank busy for write cycles: 0
Channel 0
Rank 0
0banks busy for read cycles: 63396379
0banks busy for write cycles: 19760
1banks busy for read cycles: 4990585
1banks busy for write cycles: 2641323
2banks busy for read cycles: 1155060
2banks busy for write cycles: 931433
3banks busy for read cycles: 263091
3banks busy for write cycles: 415728
4banks busy for read cycles: 130280
4banks busy for write cycles: 263611
5banks busy for read cycles: 68380
5banks busy for write cycles: 201237
6banks busy for read cycles: 58183
6banks busy for write cycles: 176354
7banks busy for read cycles: 121119
7banks busy for write cycles: 202672
8banks busy for read cycles: 1004669
8banks busy for write cycles: 631640

CPU 0 Branch Prediction Accuracy: 95.2436% MPKI: 8.774 Average ROB Occupancy at Mispredict: 38.0218
Branch types
NOT_BRANCH: 40776380 81.5528%
BRANCH_DIRECT_JUMP: 494781 0.989562%
BRANCH_INDIRECT: 114379 0.228758%
BRANCH_CONDITIONAL: 6319235 12.6385%
BRANCH_DIRECT_CALL: 995377 1.99075%
BRANCH_INDIRECT_CALL: 151743 0.303486%
BRANCH_RETURN: 1147772 2.29554%
BRANCH_OTHER: 0 0%

@sumon_overall_L1D     21008      2328     50327     71360    746661    746664
@Sumon_Early_by_class_L1D     10898      6915      2691        19
@Sumon_Late_by_class_L1D      1004      1005        80        19

@Sumon_Early_by_cycle_L1D      3562      2304      1398       709       645      2906      2809      1447      1215      1554      1279      1180
@Sumon_Late_by_cycle_L1D      1574       738        13         2         1         0         0         0         0         0         0         0
@Sumon_Early_stream_L1D      2506      1176       773       435       460      1371       824       691       634       913       606       509
@Sumon_Early_CS_L1D       648       941       471       162       115      1246      1727       427       228       172       354       424
@Sumon_Early_CPLX_L1D       264       149       129        94        61       249       209       275       307       425       299       230
@Sumon_Late_stream_L1D       647       350         4         2         1         0         0         0         0         0         0         0
@Sumon_Late_CS_L1D       658       340         7         0         0         0         0         0         0         0         0         0
@Sumon_Late_CPLX_L1D        51        27         2         0         0         0         0         0         0         0         0         0
@sumon_overall_L2C     10104       288     35862     46030     65442     65442
@Sumon_Early_by_class_L2C      3009      1397      1259         0
@Sumon_Late_by_class_L2C         0         0         0         0

@Sumon_Early_by_cycle_L2C       390       210       255       143       100       399       247       284       226       285       440      7125
@Sumon_Late_by_cycle_L2C       188        98         2         0         0         0         0         0         0         0         0         0
@Sumon_Early_stream_L2C         0         0         0         0         0         0         0         0         3        21       110      2875
@Sumon_Early_CS_L2C         0         0         0         0         0         0         0         0         0         4        67      1326
@Sumon_Early_CPLX_L2C         0         0         0         0         0         0         0         0         0         9        59      1191
@Sumon_Late_stream_L2C         0         0         0         0         0         0         0         0         0         0         0         0
@Sumon_Late_CS_L2C         0         0         0         0         0         0         0         0         0         0         0         0
@Sumon_Late_CPLX_L2C         0         0         0         0         0         0         0         0         0         0         0         0
DRAM PAGES: 1048576
Allocated PAGES: 2338
