
*** ChampSim Multicore Out-of-Order Simulator ***

Warmup Instructions: 10000000
Simulation Instructions: 50000000
Number of CPUs: 1
LLC sets: 2048
LLC ways: 16
Off-chip DRAM Size: 4096 MB Channels: 1 Width: 64-bit Data Rate: 800 MT/s
CPU 0 runs traces/clientserver/server_030.champsimtrace.xz
.xz
CPU 0 Bimodal branch predictor
BTB has LRU replacement policy
ITLB has LRU replacement policy
DTLB has LRU replacement policy
STLB has LRU replacement policy
L1I has LRU replacement policy
IP Table Entries: 256
L1D has LRU replacement policy
IP_Table L2 entries: 256
L2C has LRU replacement policy
LLC has LRU replacement policy
Heartbeat CPU 0 instructions: 10000003 cycles: 2895188 heartbeat IPC: 3.45401 cumulative IPC: 3.45401 (Simulation time: 0 hr 18 min 3 sec) 

Warmup complete CPU 0 instructions: 10000003 cycles: 2895188 (Simulation time: 0 hr 18 min 3 sec) 

Heartbeat CPU 0 instructions: 20000002 cycles: 28492109 heartbeat IPC: 0.390672 cumulative IPC: 0.390672 (Simulation time: 0 hr 35 min 15 sec) 
Heartbeat CPU 0 instructions: 30000001 cycles: 54124074 heartbeat IPC: 0.390138 cumulative IPC: 0.390405 (Simulation time: 0 hr 52 min 29 sec) 
Heartbeat CPU 0 instructions: 40000000 cycles: 79653356 heartbeat IPC: 0.391707 cumulative IPC: 0.390838 (Simulation time: 1 hr 9 min 41 sec) 
Heartbeat CPU 0 instructions: 50000001 cycles: 105308481 heartbeat IPC: 0.389786 cumulative IPC: 0.390574 (Simulation time: 1 hr 27 min 7 sec) 
Heartbeat CPU 0 instructions: 60000000 cycles: 130888266 heartbeat IPC: 0.390934 cumulative IPC: 0.390646 (Simulation time: 1 hr 41 min 59 sec) 
Finished CPU 0 instructions: 50000001 cycles: 127993080 cumulative IPC: 0.390646 (Simulation time: 1 hr 41 min 59 sec) 

ChampSim completed all CPUs

Region of Interest Statistics

CPU 0 cumulative IPC: 0.390646 instructions: 50000001 cycles: 127993080
ITLB TOTAL     ACCESS:    8711503  HIT:    8168988  MISS:     542515  HIT %:    93.7724  MISS %:    6.22757   MPKI: 10.8503
ITLB LOAD TRANSLATION ACCESS:    8711503  HIT:    8168988  MISS:     542515  HIT %:    93.7724  MISS %:    6.22757   MPKI: 10.8503
ITLB PREFETCH  REQUESTED:          0  ISSUED:          0  USEFUL:          0  USELESS:          0
ITLB USEFUL LOAD PREFETCHES:          0 PREFETCH ISSUED TO LOWER LEVEL:          0  ACCURACY: -nan
ITLB TIMELY PREFETCHES:          0 LATE PREFETCHES: 0 DROPPED PREFETCHES: 0
ITLB PREFETCHES SAME FILL-ORIGIN LEVEL: 0 DIFFERENT FILL-ORIGIN LEVEL: 0
ITLB AVERAGE MISS LATENCY: 9.18028 cycles
ITLB RQ	ACCESS:   10396644	FORWARD:          0	MERGED:    1546966	TO_CACHE:    8849678

DTLB TOTAL     ACCESS:   12389052  HIT:   11860412  MISS:     528640  HIT %:     95.733  MISS %:    4.26699   MPKI: 10.5728
DTLB LOAD TRANSLATION ACCESS:   12389052  HIT:   11860412  MISS:     528640  HIT %:     95.733  MISS %:    4.26699   MPKI: 10.5728
DTLB PREFETCH  REQUESTED:          0  ISSUED:          0  USEFUL:          0  USELESS:          0
DTLB USEFUL LOAD PREFETCHES:          0 PREFETCH ISSUED TO LOWER LEVEL:          0  ACCURACY: -nan
DTLB TIMELY PREFETCHES:          0 LATE PREFETCHES: 0 DROPPED PREFETCHES: 0
DTLB PREFETCHES SAME FILL-ORIGIN LEVEL: 0 DIFFERENT FILL-ORIGIN LEVEL: 0
DTLB AVERAGE MISS LATENCY: 9.37897 cycles
DTLB RQ	ACCESS:   15512325	FORWARD:          0	MERGED:    3104554	TO_CACHE:   12407771

STLB TOTAL     ACCESS:    1586021  HIT:    1578702  MISS:       7319  HIT %:    99.5385  MISS %:   0.461469   MPKI: 0.14638
STLB LOAD TRANSLATION ACCESS:    1071155  HIT:    1063836  MISS:       7319  HIT %:    99.3167  MISS %:   0.683281   MPKI: 0.14638
STLB TRANSLATION FROM L1D PREFETCHER ACCESS:     514866  HIT:     514866  MISS:          0  HIT %:        100  MISS %:          0   MPKI: 0
STLB PREFETCH  REQUESTED:          0  ISSUED:          0  USEFUL:          0  USELESS:          0
STLB USEFUL LOAD PREFETCHES:          0 PREFETCH ISSUED TO LOWER LEVEL:          0  ACCURACY: -nan
STLB TIMELY PREFETCHES:          0 LATE PREFETCHES: 0 DROPPED PREFETCHES: 0
STLB PREFETCHES SAME FILL-ORIGIN LEVEL: 0 DIFFERENT FILL-ORIGIN LEVEL: 0
STLB AVERAGE MISS LATENCY: 38.9139 cycles
STLB RQ	ACCESS:    1964268	FORWARD:          0	MERGED:     378247	TO_CACHE:    1586021

STLB Hit, L1D data hit: 0
STLB Hit, L2C data hit: 0
STLB Hit, LLC data hit: 0
STLB Hit, LLC data miss: 0
STLB STLB hints to L2: 0
L1D TOTAL     ACCESS:   15844537  HIT:   14122485  MISS:    1722052  HIT %:    89.1316  MISS %:    10.8684   MPKI: 34.441
L1D LOAD      ACCESS:    8690318  HIT:    7772394  MISS:     917924  HIT %:    89.4374  MISS %:    10.5626   MPKI: 18.3585
L1D RFO       ACCESS:    6341331  HIT:    6037276  MISS:     304055  HIT %:    95.2052  MISS %:    4.79481   MPKI: 6.0811
L1D PREFETCH  ACCESS:     812888  HIT:     312815  MISS:     500073  HIT %:    38.4819  MISS %:    61.5181   MPKI: 10.0015
L1D PREFETCH  REQUESTED:    1786420  ISSUED:    1786420  USEFUL:     277728  USELESS:     222374
L1D USEFUL LOAD PREFETCHES:     277728 PREFETCH ISSUED TO LOWER LEVEL:     557959  ACCURACY: 49.7757
L1D TIMELY PREFETCHES:     277728 LATE PREFETCHES: 57685 DROPPED PREFETCHES: 0
L1D PREFETCHES SAME FILL-ORIGIN LEVEL: 557959 DIFFERENT FILL-ORIGIN LEVEL: 0
L1D AVERAGE MISS LATENCY: 2.23973e+06 cycles
L1D RQ	ACCESS:   11838115	FORWARD:          0	MERGED:    2982208	TO_CACHE:    8727403
L1D WQ	ACCESS:    6828105	FORWARD:     128698	MERGED:      43183	TO_CACHE:    6784922
L1D PQ	ACCESS:     893307	FORWARD:          0	MERGED:          0	TO_CACHE:     893113

L1D UNIQUE REGIONS ACCESSED: 0
L1D REGIONS CONFLICTS: 0
L1D Cross Page Prefetch Requests: 0
L1D Same Page Prefetch Requests: 1055637
L1D ROI Sum of L1D PQ occupancy: 11484712
L1D PREFETCHES PUSHED FROM L2C: 0
L1I TOTAL     ACCESS:    9872909  HIT:    6916884  MISS:    2956025  HIT %:    70.0592  MISS %:    29.9408   MPKI: 59.1205
L1I LOAD      ACCESS:    9872909  HIT:    6916884  MISS:    2956025  HIT %:    70.0592  MISS %:    29.9408   MPKI: 59.1205
L1I PREFETCH  REQUESTED:          0  ISSUED:          0  USEFUL:          0  USELESS:          0
L1I USEFUL LOAD PREFETCHES:          0 PREFETCH ISSUED TO LOWER LEVEL:          0  ACCURACY: -nan
L1I TIMELY PREFETCHES:          0 LATE PREFETCHES: 0 DROPPED PREFETCHES: 0
L1I PREFETCHES SAME FILL-ORIGIN LEVEL: 0 DIFFERENT FILL-ORIGIN LEVEL: 0
L1I AVERAGE MISS LATENCY: 19.1314 cycles
L1I RQ	ACCESS:   13942967	FORWARD:          0	MERGED:    3546323	TO_CACHE:   10396644

BTB TOTAL     ACCESS:    6029459  HIT:    4118851  MISS:    1910608  HIT %:    68.3121  MISS %:    31.6879   MPKI: 38.2122
BTB BRANCH_DIRECT_JUMP	ACCESS:     489855  HIT:     330874  MISS:     158981
BTB BRANCH_INDIRECT	ACCESS:     174632  HIT:     139695  MISS:      34937
BTB BRANCH_CONDITIONAL	ACCESS:    2970796  HIT:    2448633  MISS:     522163
BTB BRANCH_DIRECT_CALL	ACCESS:    1006426  HIT:     627337  MISS:     379089
BTB BRANCH_INDIRECT_CALL	ACCESS:     190665  HIT:     118830  MISS:      71835
BTB BRANCH_RETURN	ACCESS:    1197085  HIT:     453482  MISS:     743603
BTB BRANCH_OTHER ACCESS:          0  HIT:          0  MISS:          0

L2C TOTAL     ACCESS:    6277605  HIT:    5344207  MISS:     933398  HIT %:    85.1313  MISS %:    14.8687   MPKI: 18.668
L2C LOAD      ACCESS:    3816252  HIT:    3197762  MISS:     618490  HIT %:    83.7933  MISS %:    16.2067   MPKI: 12.3698
L2C DATA LOAD MPKI: 2.46808
L2C INSTRUCTION LOAD MPKI: 9.90172
L2C RFO       ACCESS:     303854  HIT:     236636  MISS:      67218  HIT %:    77.8782  MISS %:    22.1218   MPKI: 1.34436
L2C PREFETCH  ACCESS:    1540247  HIT:    1301448  MISS:     238799  HIT %:    84.4961  MISS %:    15.5039   MPKI: 4.77598
L2C DATA PREFETCH MPKI: 4.77598
L2C INSTRUCTION PREFETCH MPKI: 0
L2C WRITEBACK ACCESS:     609660  HIT:     603232  MISS:       6428  HIT %:    98.9456  MISS %:    1.05436   MPKI: 0.12856
L2C LOAD TRANSLATION ACCESS:       7592  HIT:       5129  MISS:       2463  HIT %:     67.558  MISS %:     32.442   MPKI: 0.04926
L2C PREFETCH  REQUESTED:    1049660  ISSUED:    1049660  USEFUL:      28470  USELESS:     209952
L2C USEFUL LOAD PREFETCHES:      28470 PREFETCH ISSUED TO LOWER LEVEL:     242356  ACCURACY: 11.7472
L2C TIMELY PREFETCHES:      28470 LATE PREFETCHES: 3557 DROPPED PREFETCHES: 0
L2C PREFETCHES SAME FILL-ORIGIN LEVEL: 127735 DIFFERENT FILL-ORIGIN LEVEL: 0
L2C AVERAGE MISS LATENCY: 34.5164 cycles
L2C RQ	ACCESS:    4127709	FORWARD:          0	MERGED:          0	TO_CACHE:    4127698
L2C WQ	ACCESS:     609663	FORWARD:         16	MERGED:          0	TO_CACHE:     609663
L2C PQ	ACCESS:    1607619	FORWARD:          0	MERGED:      49264	TO_CACHE:    1558350

L2C Instructions Evicting Data 210238
L2C Translations Evicting Data 1607
L2C Data Evicting Data 222043
L2C Instructions Evicting Instructions 283902
L2C Translations Evicting Instructions 821
L2C Data Evicting Instructions 205903
L2C Instructions Evicting Translations 946
L2C Translations Evicting Translations 35
L2C Data Evicting Translations 1475
L2C Dense regions hint from L2: 0
PSCL5 TOTAL     ACCESS:       7319  HIT:       7319  MISS:          0  HIT %:        100  MISS %:          0   MPKI: 0
PSCL5 LOAD TRANSLATION ACCESS:       7319  HIT:       7319  MISS:          0  HIT %:        100  MISS %:          0   MPKI: 0
PSCL5 PREFETCH  REQUESTED:          0  ISSUED:          0  USEFUL:          0  USELESS:          0
PSCL5 USEFUL LOAD PREFETCHES:          0 PREFETCH ISSUED TO LOWER LEVEL:          0  ACCURACY: -nan
PSCL5 TIMELY PREFETCHES:          0 LATE PREFETCHES: 0 DROPPED PREFETCHES: 0
PSCL5 PREFETCHES SAME FILL-ORIGIN LEVEL: 0 DIFFERENT FILL-ORIGIN LEVEL: 0

PSCL4 TOTAL     ACCESS:       5792  HIT:       5776  MISS:         16  HIT %:    99.7238  MISS %:   0.276243   MPKI: 0.00032
PSCL4 LOAD TRANSLATION ACCESS:       5792  HIT:       5776  MISS:         16  HIT %:    99.7238  MISS %:   0.276243   MPKI: 0.00032
PSCL4 PREFETCH  REQUESTED:          0  ISSUED:          0  USEFUL:          0  USELESS:          0
PSCL4 USEFUL LOAD PREFETCHES:          0 PREFETCH ISSUED TO LOWER LEVEL:          0  ACCURACY: -nan
PSCL4 TIMELY PREFETCHES:          0 LATE PREFETCHES: 0 DROPPED PREFETCHES: 0
PSCL4 PREFETCHES SAME FILL-ORIGIN LEVEL: 0 DIFFERENT FILL-ORIGIN LEVEL: 0

PSCL3 TOTAL     ACCESS:       7243  HIT:       7225  MISS:         18  HIT %:    99.7515  MISS %:   0.248516   MPKI: 0.00036
PSCL3 LOAD TRANSLATION ACCESS:       7243  HIT:       7225  MISS:         18  HIT %:    99.7515  MISS %:   0.248516   MPKI: 0.00036
PSCL3 PREFETCH  REQUESTED:          0  ISSUED:          0  USEFUL:          0  USELESS:          0
PSCL3 USEFUL LOAD PREFETCHES:          0 PREFETCH ISSUED TO LOWER LEVEL:          0  ACCURACY: -nan
PSCL3 TIMELY PREFETCHES:          0 LATE PREFETCHES: 0 DROPPED PREFETCHES: 0
PSCL3 PREFETCHES SAME FILL-ORIGIN LEVEL: 0 DIFFERENT FILL-ORIGIN LEVEL: 0

PSCL2 TOTAL     ACCESS:       7319  HIT:       7073  MISS:        246  HIT %:    96.6389  MISS %:    3.36111   MPKI: 0.00492
PSCL2 LOAD TRANSLATION ACCESS:       7319  HIT:       7073  MISS:        246  HIT %:    96.6389  MISS %:    3.36111   MPKI: 0.00492
PSCL2 PREFETCH  REQUESTED:          0  ISSUED:          0  USEFUL:          0  USELESS:          0
PSCL2 USEFUL LOAD PREFETCHES:          0 PREFETCH ISSUED TO LOWER LEVEL:          0  ACCURACY: -nan
PSCL2 TIMELY PREFETCHES:          0 LATE PREFETCHES: 0 DROPPED PREFETCHES: 0
PSCL2 PREFETCHES SAME FILL-ORIGIN LEVEL: 0 DIFFERENT FILL-ORIGIN LEVEL: 0

LLC TOTAL     ACCESS:    1057782  HIT:    1036081  MISS:      21701  HIT %:    97.9484  MISS %:    2.05156   MPKI: 0.43402
LLC LOAD      ACCESS:     615319  HIT:     611580  MISS:       3739  HIT %:    99.3923  MISS %:   0.607652   MPKI: 0.07478
LLC RFO       ACCESS:      66831  HIT:      64388  MISS:       2443  HIT %:    96.3445  MISS %:    3.65549   MPKI: 0.04886
LLC PREFETCH  ACCESS:     242354  HIT:     226953  MISS:      15401  HIT %:    93.6452  MISS %:    6.35475   MPKI: 0.30802
LLC WRITEBACK ACCESS:     130815  HIT:     130785  MISS:         30  HIT %:    99.9771  MISS %:  0.0229331   MPKI: 0.0006
LLC LOAD TRANSLATION ACCESS:       2463  HIT:       2375  MISS:         88  HIT %:    96.4271  MISS %:    3.57288   MPKI: 0.00176
LLC PREFETCH  REQUESTED:          0  ISSUED:          0  USEFUL:       1257  USELESS:       5900
LLC USEFUL LOAD PREFETCHES:       1257 PREFETCH ISSUED TO LOWER LEVEL:      15401  ACCURACY: 8.16181
LLC TIMELY PREFETCHES:       1257 LATE PREFETCHES: 0 DROPPED PREFETCHES: 0
LLC PREFETCHES SAME FILL-ORIGIN LEVEL: 0 DIFFERENT FILL-ORIGIN LEVEL: 0
LLC AVERAGE MISS LATENCY: 206.696 cycles
LLC RQ	ACCESS:     684614	FORWARD:          0	MERGED:          0	TO_CACHE:     684613
LLC WQ	ACCESS:     130815	FORWARD:          3	MERGED:          0	TO_CACHE:     130815
LLC PQ	ACCESS:     242356	FORWARD:          0	MERGED:          0	TO_CACHE:     242354

LLC Dense regions hint to LLC: 0

RAW hits: 546107
Loads Generated: 12384220
Loads sent to L1D: 11838115
Stores Generated: 6828094
Stores sent to L1D: 6828105
Major fault: 0 Minor fault: 2024
Allocated PAGES: 2024

stream: 
stream:times selected: 1037975
stream:pref_filled: 101741
stream:pref_useful: 21689
stream:pref_late: 26687
stream:misses: 13105
stream:misses_by_poll: 0

CS: 
CS:times selected: 173003
CS:pref_filled: 126904
CS:pref_useful: 110070
CS:pref_late: 5159
CS:misses: 10919
CS:misses_by_poll: 2

CPLX: 
CPLX:times selected: 863034
CPLX:pref_filled: 361602
CPLX:pref_useful: 198682
CPLX:pref_late: 12841
CPLX:misses: 111817
CPLX:misses_by_poll: 131

NL_L1: 
NL:times selected: 1791
NL:pref_filled: 303
NL:pref_useful: 34
NL:pref_late: 4
NL:misses: 66
NL:misses_by_poll: 0

total selections: 2075803
total_filled: 500073
total_useful: 277728
total_late: 62142
total_polluted: 133
total_misses_after_warmup: 955009
conflicts: 3338986
Degree Incremented Times: 39529
Degree Decremented Times: 130038

L1 IP Table Write Accesses: 5108670
L1 IP Table Read Accesses: 1769684
L1 RST Write Accesses: 866295
L1 RST Read Accesses: 1732590
L1 CSPT Write Accesses: 866295
L1 CSPT Read Accesses: 2850482
L1 RR Filter Tag Write Accesses: 893307
L1 RR Filter Tag Read Accesses: 69804065
L1 IP Table Tag Write Accesses: 8727403
L1 IP Table Tag Read Accesses: 8727403
L1 RST Tag Write Accesses: 0
L1 RST Tag Read Accesses: 7708665
L1 RR Filter Write Accesses: 0
L1 RR Filter Read Accesses: 2476101
test: 145436
L2 IP Table Read Accesses: 2008202
L2 IP Table Write Accesses: 2562461
L2 IP Table Tag Read Accesses: 1390750
L2 IP Table Tag Write Accesses: 1390750

DRAM Statistics
 CHANNEL 0
 RQ ROW_BUFFER_HIT:       9999  ROW_BUFFER_MISS:      11672
 DBUS_CONGESTED:      13441
 WQ ROW_BUFFER_HIT:         83  ROW_BUFFER_MISS:        429  FULL:          0

 AVG_CONGESTED_CYCLE: 34
 All warmup complete: 2
Channel 0 Bank busy for read cycles: 0
Channel 0 Bank busy for write cycles: 0
Channel 0
Rank 0
0banks busy for read cycles: 126407847
0banks busy for write cycles: 312
1banks busy for read cycles: 684388
1banks busy for write cycles: 44261
2banks busy for read cycles: 404399
2banks busy for write cycles: 11050
3banks busy for read cycles: 149539
3banks busy for write cycles: 5412
4banks busy for read cycles: 95665
4banks busy for write cycles: 1748
5banks busy for read cycles: 56474
5banks busy for write cycles: 1651
6banks busy for read cycles: 37778
6banks busy for write cycles: 535
7banks busy for read cycles: 22513
7banks busy for write cycles: 350
8banks busy for read cycles: 66347
8banks busy for write cycles: 2812

CPU 0 Branch Prediction Accuracy: 92.4998% MPKI: 14.0697 Average ROB Occupancy at Mispredict: 16.4961
Branch types
NOT_BRANCH: 40620266 81.2405%
BRANCH_DIRECT_JUMP: 489855 0.97971%
BRANCH_INDIRECT: 174632 0.349264%
BRANCH_CONDITIONAL: 6320949 12.6419%
BRANCH_DIRECT_CALL: 1006426 2.01285%
BRANCH_INDIRECT_CALL: 190665 0.38133%
BRANCH_RETURN: 1197085 2.39417%
BRANCH_OTHER: 0 0%

@sumon_overall_L1D    277728     57685    222374    500073   1786420   1786420
@Sumon_Early_by_class_L1D     17232    101581    157620         0
@Sumon_Late_by_class_L1D     25723      4862      9896         0

@Sumon_Early_by_cycle_L1D    248024      8125      3770      2561       181      3277      1507      2759      3121      3933       326       144
@Sumon_Late_by_cycle_L1D     56883       619       183         0         0         0         0         0         0         0         0         0
@Sumon_Early_stream_L1D      6880      2304       954       902       101      1402       764       999      1249      1570       105         2
@Sumon_Early_CS_L1D     99124      1520       340       559         0         1         0        33         0         1         3         0
@Sumon_Early_CPLX_L1D    141273      4206      2332      1098        78      1873       743      1694      1798      2177       207       141
@Sumon_Late_stream_L1D     25261       297       165         0         0         0         0         0         0         0         0         0
@Sumon_Late_CS_L1D      4576       273        13         0         0         0         0         0         0         0         0         0
@Sumon_Late_CPLX_L1D      9845        46         5         0         0         0         0         0         0         0         0         0
@sumon_overall_L2C     28470      3557    209952    238799   1049660   1049660
@Sumon_Early_by_class_L2C      1418       170      2272         0
@Sumon_Late_by_class_L2C         0       115         0         0

@Sumon_Early_by_cycle_L2C      2468      4136      4460      1405       749      4294      1316      1460      1168      1171      1616      4227
@Sumon_Late_by_cycle_L2C      3025       530         2         0         0         0         0         0         0         0         0         0
@Sumon_Early_stream_L2C         0         0         0         0         0         0         0         0         0        26       637       755
@Sumon_Early_CS_L2C        25         9         6         0         0         0         0         0         0         0         1       129
@Sumon_Early_CPLX_L2C         0         0         0         0         0         0         0         0         0        96       546      1630
@Sumon_Late_stream_L2C         0         0         0         0         0         0         0         0         0         0         0         0
@Sumon_Late_CS_L2C        73        42         0         0         0         0         0         0         0         0         0         0
@Sumon_Late_CPLX_L2C         0         0         0         0         0         0         0         0         0         0         0         0
DRAM PAGES: 1048576
Allocated PAGES: 2024
