
*** ChampSim Multicore Out-of-Order Simulator ***

Warmup Instructions: 10000000
Simulation Instructions: 50000000
Number of CPUs: 1
LLC sets: 2048
LLC ways: 16
Off-chip DRAM Size: 4096 MB Channels: 1 Width: 64-bit Data Rate: 800 MT/s
CPU 0 runs traces/clientserver/server_025.champsimtrace.xz
.xz
CPU 0 Bimodal branch predictor
BTB has LRU replacement policy
ITLB has LRU replacement policy
DTLB has LRU replacement policy
STLB has LRU replacement policy
L1I has LRU replacement policy
IP Table Entries: 256
L1D has LRU replacement policy
IP_Table L2 entries: 256
L2C has LRU replacement policy
LLC has LRU replacement policy
Heartbeat CPU 0 instructions: 10000000 cycles: 2890303 heartbeat IPC: 3.45984 cumulative IPC: 3.45984 (Simulation time: 0 hr 18 min 28 sec) 

Warmup complete CPU 0 instructions: 10000004 cycles: 2890304 (Simulation time: 0 hr 18 min 28 sec) 

Heartbeat CPU 0 instructions: 20000002 cycles: 28348489 heartbeat IPC: 0.392801 cumulative IPC: 0.392801 (Simulation time: 0 hr 35 min 39 sec) 
Heartbeat CPU 0 instructions: 30000001 cycles: 53587362 heartbeat IPC: 0.396214 cumulative IPC: 0.3945 (Simulation time: 0 hr 52 min 45 sec) 
Heartbeat CPU 0 instructions: 40000001 cycles: 78973176 heartbeat IPC: 0.393921 cumulative IPC: 0.394307 (Simulation time: 1 hr 10 min 1 sec) 
Heartbeat CPU 0 instructions: 50000002 cycles: 104325715 heartbeat IPC: 0.394438 cumulative IPC: 0.39434 (Simulation time: 1 hr 27 min 12 sec) 
Heartbeat CPU 0 instructions: 60000000 cycles: 129620992 heartbeat IPC: 0.395331 cumulative IPC: 0.394537 (Simulation time: 1 hr 42 min 0 sec) 
Finished CPU 0 instructions: 50000000 cycles: 126730718 cumulative IPC: 0.394537 (Simulation time: 1 hr 42 min 0 sec) 

ChampSim completed all CPUs

Region of Interest Statistics

CPU 0 cumulative IPC: 0.394537 instructions: 50000000 cycles: 126730718
ITLB TOTAL     ACCESS:    8423213  HIT:    7928259  MISS:     494954  HIT %:    94.1239  MISS %:    5.87607   MPKI: 9.89908
ITLB LOAD TRANSLATION ACCESS:    8423213  HIT:    7928259  MISS:     494954  HIT %:    94.1239  MISS %:    5.87607   MPKI: 9.89908
ITLB PREFETCH  REQUESTED:          0  ISSUED:          0  USEFUL:          0  USELESS:          0
ITLB USEFUL LOAD PREFETCHES:          0 PREFETCH ISSUED TO LOWER LEVEL:          0  ACCURACY: -nan
ITLB TIMELY PREFETCHES:          0 LATE PREFETCHES: 0 DROPPED PREFETCHES: 0
ITLB PREFETCHES SAME FILL-ORIGIN LEVEL: 0 DIFFERENT FILL-ORIGIN LEVEL: 0
ITLB AVERAGE MISS LATENCY: 9.077 cycles
ITLB RQ	ACCESS:   10068927	FORWARD:          0	MERGED:    1520623	TO_CACHE:    8548304

DTLB TOTAL     ACCESS:   12655000  HIT:   12180376  MISS:     474624  HIT %:    96.2495  MISS %:    3.75049   MPKI: 9.49248
DTLB LOAD TRANSLATION ACCESS:   12655000  HIT:   12180376  MISS:     474624  HIT %:    96.2495  MISS %:    3.75049   MPKI: 9.49248
DTLB PREFETCH  REQUESTED:          0  ISSUED:          0  USEFUL:          0  USELESS:          0
DTLB USEFUL LOAD PREFETCHES:          0 PREFETCH ISSUED TO LOWER LEVEL:          0  ACCURACY: -nan
DTLB TIMELY PREFETCHES:          0 LATE PREFETCHES: 0 DROPPED PREFETCHES: 0
DTLB PREFETCHES SAME FILL-ORIGIN LEVEL: 0 DIFFERENT FILL-ORIGIN LEVEL: 0
DTLB AVERAGE MISS LATENCY: 9.4157 cycles
DTLB RQ	ACCESS:   15790260	FORWARD:          0	MERGED:    3116626	TO_CACHE:   12673634

STLB TOTAL     ACCESS:    1381024  HIT:    1378563  MISS:       2461  HIT %:    99.8218  MISS %:   0.178201   MPKI: 0.04922
STLB LOAD TRANSLATION ACCESS:     969578  HIT:     967117  MISS:       2461  HIT %:    99.7462  MISS %:   0.253822   MPKI: 0.04922
STLB TRANSLATION FROM L1D PREFETCHER ACCESS:     411446  HIT:     411446  MISS:          0  HIT %:        100  MISS %:          0   MPKI: 0
STLB PREFETCH  REQUESTED:          0  ISSUED:          0  USEFUL:          0  USELESS:          0
STLB USEFUL LOAD PREFETCHES:          0 PREFETCH ISSUED TO LOWER LEVEL:          0  ACCURACY: -nan
STLB TIMELY PREFETCHES:          0 LATE PREFETCHES: 0 DROPPED PREFETCHES: 0
STLB PREFETCHES SAME FILL-ORIGIN LEVEL: 0 DIFFERENT FILL-ORIGIN LEVEL: 0
STLB AVERAGE MISS LATENCY: 91.9281 cycles
STLB RQ	ACCESS:    1492616	FORWARD:          0	MERGED:     111592	TO_CACHE:    1381024

STLB Hit, L1D data hit: 0
STLB Hit, L2C data hit: 0
STLB Hit, LLC data hit: 0
STLB Hit, LLC data miss: 0
STLB STLB hints to L2: 0
L1D TOTAL     ACCESS:   15801580  HIT:   14635859  MISS:    1165721  HIT %:    92.6228  MISS %:    7.37724   MPKI: 23.3144
L1D LOAD      ACCESS:    8854645  HIT:    8128729  MISS:     725916  HIT %:    91.8019  MISS %:    8.19814   MPKI: 14.5183
L1D RFO       ACCESS:    6458710  HIT:    6164553  MISS:     294157  HIT %:    95.4456  MISS %:    4.55442   MPKI: 5.88314
L1D PREFETCH  ACCESS:     488225  HIT:     342577  MISS:     145648  HIT %:    70.1679  MISS %:    29.8321   MPKI: 2.91296
L1D PREFETCH  REQUESTED:    1046369  ISSUED:    1046279  USEFUL:      41057  USELESS:     104603
L1D USEFUL LOAD PREFETCHES:      41057 PREFETCH ISSUED TO LOWER LEVEL:     166822  ACCURACY: 24.6113
L1D TIMELY PREFETCHES:      41057 LATE PREFETCHES: 20760 DROPPED PREFETCHES: 0
L1D PREFETCHES SAME FILL-ORIGIN LEVEL: 166822 DIFFERENT FILL-ORIGIN LEVEL: 0
L1D AVERAGE MISS LATENCY: 1.1839e+06 cycles
L1D RQ	ACCESS:   12116614	FORWARD:          0	MERGED:    3116381	TO_CACHE:    8884392
L1D WQ	ACCESS:    6952503	FORWARD:     116044	MERGED:      46635	TO_CACHE:    6905868
L1D PQ	ACCESS:     523241	FORWARD:          0	MERGED:          0	TO_CACHE:     523038

L1D UNIQUE REGIONS ACCESSED: 0
L1D REGIONS CONFLICTS: 0
L1D Cross Page Prefetch Requests: 0
L1D Same Page Prefetch Requests: 620918
L1D ROI Sum of L1D PQ occupancy: 7269894
L1D PREFETCHES PUSHED FROM L2C: 0
L1I TOTAL     ACCESS:    9600011  HIT:    6831210  MISS:    2768801  HIT %:    71.1584  MISS %:    28.8416   MPKI: 55.376
L1I LOAD      ACCESS:    9600011  HIT:    6831210  MISS:    2768801  HIT %:    71.1584  MISS %:    28.8416   MPKI: 55.376
L1I PREFETCH  REQUESTED:          0  ISSUED:          0  USEFUL:          0  USELESS:          0
L1I USEFUL LOAD PREFETCHES:          0 PREFETCH ISSUED TO LOWER LEVEL:          0  ACCURACY: -nan
L1I TIMELY PREFETCHES:          0 LATE PREFETCHES: 0 DROPPED PREFETCHES: 0
L1I PREFETCHES SAME FILL-ORIGIN LEVEL: 0 DIFFERENT FILL-ORIGIN LEVEL: 0
L1I AVERAGE MISS LATENCY: 19.1119 cycles
L1I RQ	ACCESS:   13832498	FORWARD:          0	MERGED:    3763571	TO_CACHE:   10068927

BTB TOTAL     ACCESS:    5985589  HIT:    3971316  MISS:    2014273  HIT %:     66.348  MISS %:     33.652   MPKI: 40.2855
BTB BRANCH_DIRECT_JUMP	ACCESS:     527165  HIT:     349603  MISS:     177562
BTB BRANCH_INDIRECT	ACCESS:     205601  HIT:     168171  MISS:      37430
BTB BRANCH_CONDITIONAL	ACCESS:    3024529  HIT:    2460439  MISS:     564090
BTB BRANCH_DIRECT_CALL	ACCESS:     939434  HIT:     530321  MISS:     409113
BTB BRANCH_INDIRECT_CALL	ACCESS:     174709  HIT:      95732  MISS:      78977
BTB BRANCH_RETURN	ACCESS:    1114151  HIT:     367050  MISS:     747101
BTB BRANCH_OTHER ACCESS:          0  HIT:          0  MISS:          0

L2C TOTAL     ACCESS:    5067835  HIT:    4240905  MISS:     826930  HIT %:    83.6828  MISS %:    16.3172   MPKI: 16.5386
L2C LOAD      ACCESS:    3473947  HIT:    2897809  MISS:     576138  HIT %:    83.4155  MISS %:    16.5845   MPKI: 11.5228
L2C DATA LOAD MPKI: 2.33592
L2C INSTRUCTION LOAD MPKI: 9.18684
L2C RFO       ACCESS:     293739  HIT:     202149  MISS:      91590  HIT %:    68.8193  MISS %:    31.1807   MPKI: 1.8318
L2C PREFETCH  ACCESS:     764813  HIT:     616883  MISS:     147930  HIT %:     80.658  MISS %:     19.342   MPKI: 2.9586
L2C DATA PREFETCH MPKI: 2.9586
L2C INSTRUCTION PREFETCH MPKI: 0
L2C WRITEBACK ACCESS:     532703  HIT:     523414  MISS:       9289  HIT %:    98.2563  MISS %:    1.74375   MPKI: 0.18578
L2C LOAD TRANSLATION ACCESS:       2633  HIT:        650  MISS:       1983  HIT %:    24.6867  MISS %:    75.3133   MPKI: 0.03966
L2C PREFETCH  REQUESTED:     613239  ISSUED:     613239  USEFUL:      24294  USELESS:     123656
L2C USEFUL LOAD PREFETCHES:      24294 PREFETCH ISSUED TO LOWER LEVEL:     150389  ACCURACY: 16.1541
L2C TIMELY PREFETCHES:      24294 LATE PREFETCHES: 2459 DROPPED PREFETCHES: 0
L2C PREFETCHES SAME FILL-ORIGIN LEVEL: 96617 DIFFERENT FILL-ORIGIN LEVEL: 0
L2C AVERAGE MISS LATENCY: 40.4144 cycles
L2C RQ	ACCESS:    3770332	FORWARD:          0	MERGED:          0	TO_CACHE:    3770319
L2C WQ	ACCESS:     532703	FORWARD:         13	MERGED:          0	TO_CACHE:     532703
L2C PQ	ACCESS:     780061	FORWARD:          0	MERGED:       5697	TO_CACHE:     774364

L2C Instructions Evicting Data 190428
L2C Translations Evicting Data 1231
L2C Data Evicting Data 170430
L2C Instructions Evicting Instructions 268141
L2C Translations Evicting Instructions 734
L2C Data Evicting Instructions 184673
L2C Instructions Evicting Translations 771
L2C Translations Evicting Translations 18
L2C Data Evicting Translations 1190
L2C Dense regions hint from L2: 0
PSCL5 TOTAL     ACCESS:       2461  HIT:       2461  MISS:          0  HIT %:        100  MISS %:          0   MPKI: 0
PSCL5 LOAD TRANSLATION ACCESS:       2461  HIT:       2461  MISS:          0  HIT %:        100  MISS %:          0   MPKI: 0
PSCL5 PREFETCH  REQUESTED:          0  ISSUED:          0  USEFUL:          0  USELESS:          0
PSCL5 USEFUL LOAD PREFETCHES:          0 PREFETCH ISSUED TO LOWER LEVEL:          0  ACCURACY: -nan
PSCL5 TIMELY PREFETCHES:          0 LATE PREFETCHES: 0 DROPPED PREFETCHES: 0
PSCL5 PREFETCHES SAME FILL-ORIGIN LEVEL: 0 DIFFERENT FILL-ORIGIN LEVEL: 0

PSCL4 TOTAL     ACCESS:       2291  HIT:       2277  MISS:         14  HIT %:    99.3889  MISS %:   0.611087   MPKI: 0.00028
PSCL4 LOAD TRANSLATION ACCESS:       2291  HIT:       2277  MISS:         14  HIT %:    99.3889  MISS %:   0.611087   MPKI: 0.00028
PSCL4 PREFETCH  REQUESTED:          0  ISSUED:          0  USEFUL:          0  USELESS:          0
PSCL4 USEFUL LOAD PREFETCHES:          0 PREFETCH ISSUED TO LOWER LEVEL:          0  ACCURACY: -nan
PSCL4 TIMELY PREFETCHES:          0 LATE PREFETCHES: 0 DROPPED PREFETCHES: 0
PSCL4 PREFETCHES SAME FILL-ORIGIN LEVEL: 0 DIFFERENT FILL-ORIGIN LEVEL: 0

PSCL3 TOTAL     ACCESS:       2388  HIT:       2360  MISS:         28  HIT %:    98.8275  MISS %:    1.17253   MPKI: 0.00056
PSCL3 LOAD TRANSLATION ACCESS:       2388  HIT:       2360  MISS:         28  HIT %:    98.8275  MISS %:    1.17253   MPKI: 0.00056
PSCL3 PREFETCH  REQUESTED:          0  ISSUED:          0  USEFUL:          0  USELESS:          0
PSCL3 USEFUL LOAD PREFETCHES:          0 PREFETCH ISSUED TO LOWER LEVEL:          0  ACCURACY: -nan
PSCL3 TIMELY PREFETCHES:          0 LATE PREFETCHES: 0 DROPPED PREFETCHES: 0
PSCL3 PREFETCHES SAME FILL-ORIGIN LEVEL: 0 DIFFERENT FILL-ORIGIN LEVEL: 0

PSCL2 TOTAL     ACCESS:       2461  HIT:       2318  MISS:        143  HIT %:    94.1894  MISS %:    5.81065   MPKI: 0.00286
PSCL2 LOAD TRANSLATION ACCESS:       2461  HIT:       2318  MISS:        143  HIT %:    94.1894  MISS %:    5.81065   MPKI: 0.00286
PSCL2 PREFETCH  REQUESTED:          0  ISSUED:          0  USEFUL:          0  USELESS:          0
PSCL2 USEFUL LOAD PREFETCHES:          0 PREFETCH ISSUED TO LOWER LEVEL:          0  ACCURACY: -nan
PSCL2 TIMELY PREFETCHES:          0 LATE PREFETCHES: 0 DROPPED PREFETCHES: 0
PSCL2 PREFETCHES SAME FILL-ORIGIN LEVEL: 0 DIFFERENT FILL-ORIGIN LEVEL: 0

LLC TOTAL     ACCESS:     960717  HIT:     930684  MISS:      30033  HIT %:    96.8739  MISS %:     3.1261   MPKI: 0.60066
LLC LOAD      ACCESS:     573813  HIT:     569456  MISS:       4357  HIT %:    99.2407  MISS %:   0.759307   MPKI: 0.08714
LLC RFO       ACCESS:      91455  HIT:      77487  MISS:      13968  HIT %:    84.7269  MISS %:    15.2731   MPKI: 0.27936
LLC PREFETCH  ACCESS:     150389  HIT:     138903  MISS:      11486  HIT %:    92.3625  MISS %:    7.63753   MPKI: 0.22972
LLC WRITEBACK ACCESS:     143077  HIT:     143034  MISS:         43  HIT %:    99.9699  MISS %:  0.0300537   MPKI: 0.00086
LLC LOAD TRANSLATION ACCESS:       1983  HIT:       1804  MISS:        179  HIT %:    90.9733  MISS %:    9.02673   MPKI: 0.00358
LLC PREFETCH  REQUESTED:          0  ISSUED:          0  USEFUL:        898  USELESS:       6107
LLC USEFUL LOAD PREFETCHES:        898 PREFETCH ISSUED TO LOWER LEVEL:      11486  ACCURACY: 7.81821
LLC TIMELY PREFETCHES:        898 LATE PREFETCHES: 0 DROPPED PREFETCHES: 0
LLC PREFETCHES SAME FILL-ORIGIN LEVEL: 0 DIFFERENT FILL-ORIGIN LEVEL: 0
LLC AVERAGE MISS LATENCY: 297.494 cycles
LLC RQ	ACCESS:     667252	FORWARD:          0	MERGED:          0	TO_CACHE:     667251
LLC WQ	ACCESS:     143077	FORWARD:          1	MERGED:          0	TO_CACHE:     143077
LLC PQ	ACCESS:     150389	FORWARD:          0	MERGED:          0	TO_CACHE:     150389

LLC Dense regions hint to LLC: 0

RAW hits: 524739
Loads Generated: 12641353
Loads sent to L1D: 12116614
Stores Generated: 6952498
Stores sent to L1D: 6952503
Major fault: 0 Minor fault: 2266
Allocated PAGES: 2266

stream: 
stream:times selected: 1001819
stream:pref_filled: 102959
stream:pref_useful: 18833
stream:pref_late: 15381
stream:misses: 4876
stream:misses_by_poll: 0

CS: 
CS:times selected: 124982
CS:pref_filled: 45876
CS:pref_useful: 26615
CS:pref_late: 4483
CS:misses: 9750
CS:misses_by_poll: 7

CPLX: 
CPLX:times selected: 874500
CPLX:pref_filled: 21476
CPLX:pref_useful: 3820
CPLX:pref_late: 1083
CPLX:misses: 63516
CPLX:misses_by_poll: 1

NL_L1: 
NL:times selected: 5968
NL:pref_filled: 409
NL:pref_useful: 74
NL:pref_late: 17
NL:misses: 107
NL:misses_by_poll: 0

total selections: 2007269
total_filled: 145648
total_useful: 41057
total_late: 22145
total_polluted: 8
total_misses_after_warmup: 755665
conflicts: 3283645
Degree Incremented Times: 0
Degree Decremented Times: 162345

L1 IP Table Write Accesses: 5303935
L1 IP Table Read Accesses: 2020290
L1 RST Write Accesses: 845241
L1 RST Read Accesses: 1690482
L1 CSPT Write Accesses: 845241
L1 CSPT Read Accesses: 1582885
L1 RR Filter Tag Write Accesses: 523331
L1 RR Filter Tag Read Accesses: 37301150
L1 IP Table Tag Write Accesses: 8884394
L1 IP Table Tag Read Accesses: 8884394
L1 RST Tag Write Accesses: 0
L1 RST Tag Read Accesses: 7621529
L1 RR Filter Write Accesses: 0
L1 RR Filter Read Accesses: 1377116
test: 144351
L2 IP Table Read Accesses: 1113424
L2 IP Table Write Accesses: 1560145
L2 IP Table Tag Read Accesses: 866620
L2 IP Table Tag Write Accesses: 866620

DRAM Statistics
 CHANNEL 0
 RQ ROW_BUFFER_HIT:      16119  ROW_BUFFER_MISS:      13864
 DBUS_CONGESTED:      24573
 WQ ROW_BUFFER_HIT:        533  ROW_BUFFER_MISS:       4955  FULL:          0

 AVG_CONGESTED_CYCLE: 35
 All warmup complete: 2
Channel 0 Bank busy for read cycles: 0
Channel 0 Bank busy for write cycles: 0
Channel 0
Rank 0
0banks busy for read cycles: 124390336
0banks busy for write cycles: 1773
1banks busy for read cycles: 683612
1banks busy for write cycles: 215118
2banks busy for read cycles: 440866
2banks busy for write cycles: 79755
3banks busy for read cycles: 122359
3banks busy for write cycles: 44445
4banks busy for read cycles: 85510
4banks busy for write cycles: 30212
5banks busy for read cycles: 55151
5banks busy for write cycles: 27503
6banks busy for read cycles: 45363
6banks busy for write cycles: 23624
7banks busy for read cycles: 63223
7banks busy for write cycles: 21094
8banks busy for read cycles: 357161
8banks busy for write cycles: 43614

CPU 0 Branch Prediction Accuracy: 91.5878% MPKI: 15.3805 Average ROB Occupancy at Mispredict: 17.2014
Branch types
NOT_BRANCH: 40857901 81.7158%
BRANCH_DIRECT_JUMP: 527165 1.05433%
BRANCH_INDIRECT: 205601 0.411202%
BRANCH_CONDITIONAL: 6180687 12.3614%
BRANCH_DIRECT_CALL: 939434 1.87887%
BRANCH_INDIRECT_CALL: 174709 0.349418%
BRANCH_RETURN: 1114151 2.2283%
BRANCH_OTHER: 0 0%

@sumon_overall_L1D     41057     20760    104603    145648   1046279   1046369
@Sumon_Early_by_class_L1D     15205     21948      2989        13
@Sumon_Late_by_class_L1D     14598      4173       859        13

@Sumon_Early_by_cycle_L1D     27048      2729      1780      1013       235      1181       940      1768      1233      2155       807       168
@Sumon_Late_by_cycle_L1D     19885       693       159        21         2         0         0         0         0         0         0         0
@Sumon_Early_stream_L1D      5151      1691      1229       852       162       990       715      1329       868      1395       664       159
@Sumon_Early_CS_L1D     20361       759       402        73         7        33         4       271         7        28         3         0
@Sumon_Early_CPLX_L1D      1366       184       116        70        64       149       213       148       194       339       137         9
@Sumon_Late_stream_L1D     14175       354        69         0         0         0         0         0         0         0         0         0
@Sumon_Late_CS_L1D      3736       327        87        21         2         0         0         0         0         0         0         0
@Sumon_Late_CPLX_L1D       845        11         3         0         0         0         0         0         0         0         0         0
@sumon_overall_L2C     24294      2459    123656    147930    613239    613239
@Sumon_Early_by_class_L2C      1891       200       397         0
@Sumon_Late_by_class_L2C         0         0         0         0

@Sumon_Early_by_cycle_L2C      4094      3076      2259      1360       384      2406      2006      1400       829      1190       980      4310
@Sumon_Late_by_cycle_L2C      2164       294         1         0         0         0         0         0         0         0         0         0
@Sumon_Early_stream_L2C         0         0         0         0         0         0         0         0         0         5       290      1596
@Sumon_Early_CS_L2C         0         0         0         0         0         0         0         0         0         0         2       198
@Sumon_Early_CPLX_L2C         0         0         0         0         0         0         0         0         0         0        27       370
@Sumon_Late_stream_L2C         0         0         0         0         0         0         0         0         0         0         0         0
@Sumon_Late_CS_L2C         0         0         0         0         0         0         0         0         0         0         0         0
@Sumon_Late_CPLX_L2C         0         0         0         0         0         0         0         0         0         0         0         0
DRAM PAGES: 1048576
Allocated PAGES: 2266
