
*** ChampSim Multicore Out-of-Order Simulator ***

Warmup Instructions: 10000000
Simulation Instructions: 50000000
Number of CPUs: 1
LLC sets: 2048
LLC ways: 16
Off-chip DRAM Size: 4096 MB Channels: 1 Width: 64-bit Data Rate: 800 MT/s
CPU 0 runs traces/clientserver/server_028.champsimtrace.xz
.xz
CPU 0 Bimodal branch predictor
BTB has LRU replacement policy
ITLB has LRU replacement policy
DTLB has LRU replacement policy
STLB has LRU replacement policy
L1I has LRU replacement policy
IP Table Entries: 256
L1D has LRU replacement policy
IP_Table L2 entries: 256
L2C has LRU replacement policy
LLC has LRU replacement policy
Heartbeat CPU 0 instructions: 10000001 cycles: 2889401 heartbeat IPC: 3.46093 cumulative IPC: 3.46093 (Simulation time: 0 hr 18 min 14 sec) 

Warmup complete CPU 0 instructions: 10000001 cycles: 2889401 (Simulation time: 0 hr 18 min 14 sec) 

Heartbeat CPU 0 instructions: 20000002 cycles: 28161469 heartbeat IPC: 0.395694 cumulative IPC: 0.395694 (Simulation time: 0 hr 35 min 53 sec) 
Heartbeat CPU 0 instructions: 30000002 cycles: 53452460 heartbeat IPC: 0.395398 cumulative IPC: 0.395546 (Simulation time: 0 hr 53 min 9 sec) 
Heartbeat CPU 0 instructions: 40000000 cycles: 78822107 heartbeat IPC: 0.394172 cumulative IPC: 0.395087 (Simulation time: 1 hr 10 min 35 sec) 
Heartbeat CPU 0 instructions: 50000001 cycles: 104069438 heartbeat IPC: 0.396082 cumulative IPC: 0.395335 (Simulation time: 1 hr 27 min 51 sec) 
Heartbeat CPU 0 instructions: 60000000 cycles: 129315142 heartbeat IPC: 0.396107 cumulative IPC: 0.395489 (Simulation time: 1 hr 42 min 22 sec) 
Finished CPU 0 instructions: 50000001 cycles: 126425742 cumulative IPC: 0.395489 (Simulation time: 1 hr 42 min 22 sec) 

ChampSim completed all CPUs

Region of Interest Statistics

CPU 0 cumulative IPC: 0.395489 instructions: 50000001 cycles: 126425742
ITLB TOTAL     ACCESS:    8712794  HIT:    8180841  MISS:     531953  HIT %:    93.8946  MISS %:    6.10542   MPKI: 10.6391
ITLB LOAD TRANSLATION ACCESS:    8712794  HIT:    8180841  MISS:     531953  HIT %:    93.8946  MISS %:    6.10542   MPKI: 10.6391
ITLB PREFETCH  REQUESTED:          0  ISSUED:          0  USEFUL:          0  USELESS:          0
ITLB USEFUL LOAD PREFETCHES:          0 PREFETCH ISSUED TO LOWER LEVEL:          0  ACCURACY: -nan
ITLB TIMELY PREFETCHES:          0 LATE PREFETCHES: 0 DROPPED PREFETCHES: 0
ITLB PREFETCHES SAME FILL-ORIGIN LEVEL: 0 DIFFERENT FILL-ORIGIN LEVEL: 0
ITLB AVERAGE MISS LATENCY: 9.35647 cycles
ITLB RQ	ACCESS:   10376875	FORWARD:          0	MERGED:    1527142	TO_CACHE:    8849733

DTLB TOTAL     ACCESS:   12234713  HIT:   11692283  MISS:     542430  HIT %:    95.5665  MISS %:    4.43353   MPKI: 10.8486
DTLB LOAD TRANSLATION ACCESS:   12234713  HIT:   11692283  MISS:     542430  HIT %:    95.5665  MISS %:    4.43353   MPKI: 10.8486
DTLB PREFETCH  REQUESTED:          0  ISSUED:          0  USEFUL:          0  USELESS:          0
DTLB USEFUL LOAD PREFETCHES:          0 PREFETCH ISSUED TO LOWER LEVEL:          0  ACCURACY: -nan
DTLB TIMELY PREFETCHES:          0 LATE PREFETCHES: 0 DROPPED PREFETCHES: 0
DTLB PREFETCHES SAME FILL-ORIGIN LEVEL: 0 DIFFERENT FILL-ORIGIN LEVEL: 0
DTLB AVERAGE MISS LATENCY: 12.3169 cycles
DTLB RQ	ACCESS:   15354718	FORWARD:          0	MERGED:    3101169	TO_CACHE:   12253549

STLB TOTAL     ACCESS:    1600574  HIT:    1580372  MISS:      20202  HIT %:    98.7378  MISS %:    1.26217   MPKI: 0.40404
STLB LOAD TRANSLATION ACCESS:    1074383  HIT:    1054181  MISS:      20202  HIT %:    98.1197  MISS %:    1.88034   MPKI: 0.40404
STLB TRANSLATION FROM L1D PREFETCHER ACCESS:     526191  HIT:     526191  MISS:          0  HIT %:        100  MISS %:          0   MPKI: 0
STLB PREFETCH  REQUESTED:          0  ISSUED:          0  USEFUL:          0  USELESS:          0
STLB USEFUL LOAD PREFETCHES:          0 PREFETCH ISSUED TO LOWER LEVEL:          0  ACCURACY: -nan
STLB TIMELY PREFETCHES:          0 LATE PREFETCHES: 0 DROPPED PREFETCHES: 0
STLB PREFETCHES SAME FILL-ORIGIN LEVEL: 0 DIFFERENT FILL-ORIGIN LEVEL: 0
STLB AVERAGE MISS LATENCY: 97.7553 cycles
STLB RQ	ACCESS:    1979731	FORWARD:          0	MERGED:     379157	TO_CACHE:    1600574

STLB Hit, L1D data hit: 0
STLB Hit, L2C data hit: 0
STLB Hit, LLC data hit: 0
STLB Hit, LLC data miss: 0
STLB STLB hints to L2: 0
L1D TOTAL     ACCESS:   15684415  HIT:   13936950  MISS:    1747465  HIT %:    88.8586  MISS %:    11.1414   MPKI: 34.9493
L1D LOAD      ACCESS:    8590354  HIT:    7663090  MISS:     927264  HIT %:    89.2058  MISS %:    10.7942   MPKI: 18.5453
L1D RFO       ACCESS:    6265961  HIT:    5962913  MISS:     303048  HIT %:    95.1636  MISS %:    4.83642   MPKI: 6.06096
L1D PREFETCH  ACCESS:     828100  HIT:     310947  MISS:     517153  HIT %:    37.5495  MISS %:    62.4505   MPKI: 10.3431
L1D PREFETCH  REQUESTED:    1810929  ISSUED:    1810914  USEFUL:     252667  USELESS:     264510
L1D USEFUL LOAD PREFETCHES:     252667 PREFETCH ISSUED TO LOWER LEVEL:     570272  ACCURACY: 44.3064
L1D TIMELY PREFETCHES:     252667 LATE PREFETCHES: 53012 DROPPED PREFETCHES: 0
L1D PREFETCHES SAME FILL-ORIGIN LEVEL: 570272 DIFFERENT FILL-ORIGIN LEVEL: 0
L1D AVERAGE MISS LATENCY: 1.97805e+06 cycles
L1D RQ	ACCESS:   11732177	FORWARD:          0	MERGED:    2980085	TO_CACHE:    8636075
L1D WQ	ACCESS:    6762627	FORWARD:     116235	MERGED:      43984	TO_CACHE:    6718643
L1D PQ	ACCESS:     905566	FORWARD:          0	MERGED:          0	TO_CACHE:     905348

L1D UNIQUE REGIONS ACCESSED: 0
L1D REGIONS CONFLICTS: 0
L1D Cross Page Prefetch Requests: 0
L1D Same Page Prefetch Requests: 1074776
L1D ROI Sum of L1D PQ occupancy: 11656309
L1D PREFETCHES PUSHED FROM L2C: 0
L1I TOTAL     ACCESS:    9849739  HIT:    6963372  MISS:    2886367  HIT %:     70.696  MISS %:     29.304   MPKI: 57.7273
L1I LOAD      ACCESS:    9849739  HIT:    6963372  MISS:    2886367  HIT %:     70.696  MISS %:     29.304   MPKI: 57.7273
L1I PREFETCH  REQUESTED:          0  ISSUED:          0  USEFUL:          0  USELESS:          0
L1I USEFUL LOAD PREFETCHES:          0 PREFETCH ISSUED TO LOWER LEVEL:          0  ACCURACY: -nan
L1I TIMELY PREFETCHES:          0 LATE PREFETCHES: 0 DROPPED PREFETCHES: 0
L1I PREFETCHES SAME FILL-ORIGIN LEVEL: 0 DIFFERENT FILL-ORIGIN LEVEL: 0
L1I AVERAGE MISS LATENCY: 18.1648 cycles
L1I RQ	ACCESS:   13995220	FORWARD:          0	MERGED:    3618345	TO_CACHE:   10376875

BTB TOTAL     ACCESS:    6128313  HIT:    4315808  MISS:    1812505  HIT %:    70.4241  MISS %:    29.5759   MPKI: 36.2501
BTB BRANCH_DIRECT_JUMP	ACCESS:     522169  HIT:     376870  MISS:     145299
BTB BRANCH_INDIRECT	ACCESS:     166479  HIT:     131760  MISS:      34719
BTB BRANCH_CONDITIONAL	ACCESS:    3081708  HIT:    2589088  MISS:     492620
BTB BRANCH_DIRECT_CALL	ACCESS:     991455  HIT:     639816  MISS:     351639
BTB BRANCH_INDIRECT_CALL	ACCESS:     187516  HIT:     119653  MISS:      67863
BTB BRANCH_RETURN	ACCESS:    1178986  HIT:     458621  MISS:     720365
BTB BRANCH_OTHER ACCESS:          0  HIT:          0  MISS:          0

L2C TOTAL     ACCESS:    6215207  HIT:    5327637  MISS:     887570  HIT %:    85.7194  MISS %:    14.2806   MPKI: 17.7514
L2C LOAD      ACCESS:    3760619  HIT:    3231815  MISS:     528804  HIT %:    85.9384  MISS %:    14.0616   MPKI: 10.5761
L2C DATA LOAD MPKI: 2.91358
L2C INSTRUCTION LOAD MPKI: 7.6625
L2C RFO       ACCESS:     302941  HIT:     236247  MISS:      66694  HIT %:    77.9845  MISS %:    22.0155   MPKI: 1.33388
L2C PREFETCH  ACCESS:    1522960  HIT:    1248504  MISS:     274456  HIT %:    81.9788  MISS %:    18.0212   MPKI: 5.48912
L2C DATA PREFETCH MPKI: 5.48912
L2C INSTRUCTION PREFETCH MPKI: 0
L2C WRITEBACK ACCESS:     599808  HIT:     595364  MISS:       4444  HIT %:    99.2591  MISS %:   0.740904   MPKI: 0.08888
L2C LOAD TRANSLATION ACCESS:      28879  HIT:      15707  MISS:      13172  HIT %:     54.389  MISS %:     45.611   MPKI: 0.26344
L2C PREFETCH  REQUESTED:    1019759  ISSUED:    1019759  USEFUL:      28565  USELESS:     245838
L2C USEFUL LOAD PREFETCHES:      28565 PREFETCH ISSUED TO LOWER LEVEL:     280270  ACCURACY: 10.192
L2C TIMELY PREFETCHES:      28565 LATE PREFETCHES: 5814 DROPPED PREFETCHES: 0
L2C PREFETCHES SAME FILL-ORIGIN LEVEL: 123644 DIFFERENT FILL-ORIGIN LEVEL: 0
L2C AVERAGE MISS LATENCY: 47.6235 cycles
L2C RQ	ACCESS:    4092440	FORWARD:          0	MERGED:          0	TO_CACHE:    4092440
L2C WQ	ACCESS:     599808	FORWARD:          9	MERGED:          0	TO_CACHE:     599808
L2C PQ	ACCESS:    1590031	FORWARD:          0	MERGED:      46870	TO_CACHE:    1543152

L2C Instructions Evicting Data 180458
L2C Translations Evicting Data 9183
L2C Data Evicting Data 299119
L2C Instructions Evicting Instructions 199184
L2C Translations Evicting Instructions 3526
L2C Data Evicting Instructions 178513
L2C Instructions Evicting Translations 3483
L2C Translations Evicting Translations 463
L2C Data Evicting Translations 9197
L2C Dense regions hint from L2: 0
PSCL5 TOTAL     ACCESS:      20202  HIT:      20202  MISS:          0  HIT %:        100  MISS %:          0   MPKI: 0
PSCL5 LOAD TRANSLATION ACCESS:      20202  HIT:      20202  MISS:          0  HIT %:        100  MISS %:          0   MPKI: 0
PSCL5 PREFETCH  REQUESTED:          0  ISSUED:          0  USEFUL:          0  USELESS:          0
PSCL5 USEFUL LOAD PREFETCHES:          0 PREFETCH ISSUED TO LOWER LEVEL:          0  ACCURACY: -nan
PSCL5 TIMELY PREFETCHES:          0 LATE PREFETCHES: 0 DROPPED PREFETCHES: 0
PSCL5 PREFETCHES SAME FILL-ORIGIN LEVEL: 0 DIFFERENT FILL-ORIGIN LEVEL: 0

PSCL4 TOTAL     ACCESS:      19725  HIT:      19545  MISS:        180  HIT %:    99.0875  MISS %:   0.912548   MPKI: 0.0036
PSCL4 LOAD TRANSLATION ACCESS:      19725  HIT:      19545  MISS:        180  HIT %:    99.0875  MISS %:   0.912548   MPKI: 0.0036
PSCL4 PREFETCH  REQUESTED:          0  ISSUED:          0  USEFUL:          0  USELESS:          0
PSCL4 USEFUL LOAD PREFETCHES:          0 PREFETCH ISSUED TO LOWER LEVEL:          0  ACCURACY: -nan
PSCL4 TIMELY PREFETCHES:          0 LATE PREFETCHES: 0 DROPPED PREFETCHES: 0
PSCL4 PREFETCHES SAME FILL-ORIGIN LEVEL: 0 DIFFERENT FILL-ORIGIN LEVEL: 0

PSCL3 TOTAL     ACCESS:      20138  HIT:      19957  MISS:        181  HIT %:    99.1012  MISS %:   0.898798   MPKI: 0.00362
PSCL3 LOAD TRANSLATION ACCESS:      20138  HIT:      19957  MISS:        181  HIT %:    99.1012  MISS %:   0.898798   MPKI: 0.00362
PSCL3 PREFETCH  REQUESTED:          0  ISSUED:          0  USEFUL:          0  USELESS:          0
PSCL3 USEFUL LOAD PREFETCHES:          0 PREFETCH ISSUED TO LOWER LEVEL:          0  ACCURACY: -nan
PSCL3 TIMELY PREFETCHES:          0 LATE PREFETCHES: 0 DROPPED PREFETCHES: 0
PSCL3 PREFETCHES SAME FILL-ORIGIN LEVEL: 0 DIFFERENT FILL-ORIGIN LEVEL: 0

PSCL2 TOTAL     ACCESS:      20202  HIT:      11879  MISS:       8323  HIT %:    58.8011  MISS %:    41.1989   MPKI: 0.16646
PSCL2 LOAD TRANSLATION ACCESS:      20202  HIT:      11879  MISS:       8323  HIT %:    58.8011  MISS %:    41.1989   MPKI: 0.16646
PSCL2 PREFETCH  REQUESTED:          0  ISSUED:          0  USEFUL:          0  USELESS:          0
PSCL2 USEFUL LOAD PREFETCHES:          0 PREFETCH ISSUED TO LOWER LEVEL:          0  ACCURACY: -nan
PSCL2 TIMELY PREFETCHES:          0 LATE PREFETCHES: 0 DROPPED PREFETCHES: 0
PSCL2 PREFETCHES SAME FILL-ORIGIN LEVEL: 0 DIFFERENT FILL-ORIGIN LEVEL: 0

LLC TOTAL     ACCESS:    1007990  HIT:     931018  MISS:      76972  HIT %:    92.3638  MISS %:    7.63619   MPKI: 1.53944
LLC LOAD      ACCESS:     523165  HIT:     505318  MISS:      17847  HIT %:    96.5886  MISS %:    3.41135   MPKI: 0.35694
LLC RFO       ACCESS:      66515  HIT:      63880  MISS:       2635  HIT %:    96.0385  MISS %:    3.96151   MPKI: 0.0527
LLC PREFETCH  ACCESS:     280270  HIT:     227231  MISS:      53039  HIT %:    81.0757  MISS %:    18.9243   MPKI: 1.06078
LLC WRITEBACK ACCESS:     124868  HIT:     124529  MISS:        339  HIT %:    99.7285  MISS %:   0.271487   MPKI: 0.00678
LLC LOAD TRANSLATION ACCESS:      13172  HIT:      10060  MISS:       3112  HIT %:    76.3741  MISS %:    23.6259   MPKI: 0.06224
LLC PREFETCH  REQUESTED:          0  ISSUED:          0  USEFUL:       2160  USELESS:      48014
LLC USEFUL LOAD PREFETCHES:       2160 PREFETCH ISSUED TO LOWER LEVEL:      53039  ACCURACY: 4.07247
LLC TIMELY PREFETCHES:       2160 LATE PREFETCHES: 0 DROPPED PREFETCHES: 0
LLC PREFETCHES SAME FILL-ORIGIN LEVEL: 0 DIFFERENT FILL-ORIGIN LEVEL: 0
LLC AVERAGE MISS LATENCY: 205.872 cycles
LLC RQ	ACCESS:     602856	FORWARD:          0	MERGED:          0	TO_CACHE:     602852
LLC WQ	ACCESS:     124868	FORWARD:          4	MERGED:          0	TO_CACHE:     124868
LLC PQ	ACCESS:     280270	FORWARD:          0	MERGED:          0	TO_CACHE:     280270

LLC Dense regions hint to LLC: 0

RAW hits: 558372
Loads Generated: 12290549
Loads sent to L1D: 11732177
Stores Generated: 6762620
Stores sent to L1D: 6762627
Major fault: 0 Minor fault: 5563
Allocated PAGES: 5563

stream: 
stream:times selected: 1053247
stream:pref_filled: 121540
stream:pref_useful: 22500
stream:pref_late: 25376
stream:misses: 14018
stream:misses_by_poll: 0

CS: 
CS:times selected: 165014
CS:pref_filled: 115066
CS:pref_useful: 98816
CS:pref_late: 5954
CS:misses: 11952
CS:misses_by_poll: 69

CPLX: 
CPLX:times selected: 885631
CPLX:pref_filled: 374908
CPLX:pref_useful: 178657
CPLX:pref_late: 11244
CPLX:misses: 132657
CPLX:misses_by_poll: 416

NL_L1: 
NL:times selected: 2101
NL:pref_filled: 356
NL:pref_useful: 17
NL:pref_late: 10
NL:misses: 113
NL:misses_by_poll: 0

total selections: 2105993
total_filled: 517153
total_useful: 252667
total_late: 57803
total_polluted: 485
total_misses_after_warmup: 972986
conflicts: 3263704
Degree Incremented Times: 47859
Degree Decremented Times: 113931

L1 IP Table Write Accesses: 5096163
L1 IP Table Read Accesses: 1832459
L1 RST Write Accesses: 877316
L1 RST Read Accesses: 1754632
L1 CSPT Write Accesses: 877316
L1 CSPT Read Accesses: 2930834
L1 RR Filter Tag Write Accesses: 905581
L1 RR Filter Tag Read Accesses: 69026424
L1 IP Table Tag Write Accesses: 8636076
L1 IP Table Tag Read Accesses: 8636076
L1 RST Tag Write Accesses: 0
L1 RST Tag Read Accesses: 6789241
L1 RR Filter Write Accesses: 0
L1 RR Filter Read Accesses: 2441613
test: 169818
L2 IP Table Read Accesses: 2073481
L2 IP Table Write Accesses: 2602545
L2 IP Table Tag Read Accesses: 1419718
L2 IP Table Tag Write Accesses: 1419718

DRAM Statistics
 CHANNEL 0
 RQ ROW_BUFFER_HIT:      22506  ROW_BUFFER_MISS:      54127
 DBUS_CONGESTED:      48180
 WQ ROW_BUFFER_HIT:        684  ROW_BUFFER_MISS:       2269  FULL:          0

 AVG_CONGESTED_CYCLE: 33
 All warmup complete: 2
Channel 0 Bank busy for read cycles: 0
Channel 0 Bank busy for write cycles: 0
Channel 0
Rank 0
0banks busy for read cycles: 120671999
0banks busy for write cycles: 1696
1banks busy for read cycles: 2065043
1banks busy for write cycles: 296666
2banks busy for read cycles: 1319742
2banks busy for write cycles: 102546
3banks busy for read cycles: 791921
3banks busy for write cycles: 45211
4banks busy for read cycles: 524621
4banks busy for write cycles: 16744
5banks busy for read cycles: 295857
5banks busy for write cycles: 7366
6banks busy for read cycles: 143468
6banks busy for write cycles: 2900
7banks busy for read cycles: 61660
7banks busy for write cycles: 1305
8banks busy for read cycles: 74516
8banks busy for write cycles: 2482

CPU 0 Branch Prediction Accuracy: 92.2315% MPKI: 14.6258 Average ROB Occupancy at Mispredict: 19.3903
Branch types
NOT_BRANCH: 40586087 81.1722%
BRANCH_DIRECT_JUMP: 522169 1.04434%
BRANCH_INDIRECT: 166479 0.332958%
BRANCH_CONDITIONAL: 6366960 12.7339%
BRANCH_DIRECT_CALL: 991455 1.98291%
BRANCH_INDIRECT_CALL: 187516 0.375032%
BRANCH_RETURN: 1178986 2.35797%
BRANCH_OTHER: 0 0%

@sumon_overall_L1D    252667     53012    264510    517153   1810914   1810929
@Sumon_Early_by_class_L1D     17774     90500    142690         6
@Sumon_Late_by_class_L1D     24312      5649      8023         6

@Sumon_Early_by_cycle_L1D    223595      7351      3506      2298       366      3329      1525      1967      4307      3962       458         3
@Sumon_Late_by_cycle_L1D     50820      1731       454         7         0         0         0         0         0         0         0         0
@Sumon_Early_stream_L1D      6911      2470      1351       722       264      1379       793       971      1693      1190        28         2
@Sumon_Early_CS_L1D     87376      2243       690       107         0         0         0         0        26        58         0         0
@Sumon_Early_CPLX_L1D    128746      2542      1428      1466       100      1928       574       992      1814      2670       429         1
@Sumon_Late_stream_L1D     22963       989       354         6         0         0         0         0         0         0         0         0
@Sumon_Late_CS_L1D      5186       422        41         0         0         0         0         0         0         0         0         0
@Sumon_Late_CPLX_L1D      7713       254        55         1         0         0         0         0         0         0         0         0
@sumon_overall_L2C     28565      5814    245838    274456   1019759   1019759
@Sumon_Early_by_class_L2C      2466       198      1932         0
@Sumon_Late_by_class_L2C         0       127         0         0

@Sumon_Early_by_cycle_L2C      5991      2227      2614      1803      1787      2648      1401      2539       301      1276      2949      3029
@Sumon_Late_by_cycle_L2C      5083       713        18         0         0         0         0         0         0         0         0         0
@Sumon_Early_stream_L2C         0         0         0         0         0         0         0         0         0       292      1479       695
@Sumon_Early_CS_L2C        18        16         7         0         0         0         0         2         1         0        21       133
@Sumon_Early_CPLX_L2C         0         0         0         0         0         0         0         0         0        78       672      1182
@Sumon_Late_stream_L2C         0         0         0         0         0         0         0         0         0         0         0         0
@Sumon_Late_CS_L2C        66        57         4         0         0         0         0         0         0         0         0         0
@Sumon_Late_CPLX_L2C         0         0         0         0         0         0         0         0         0         0         0         0
DRAM PAGES: 1048576
Allocated PAGES: 5563
