
*** ChampSim Multicore Out-of-Order Simulator ***

Warmup Instructions: 10000000
Simulation Instructions: 50000000
Number of CPUs: 1
LLC sets: 2048
LLC ways: 16
Off-chip DRAM Size: 4096 MB Channels: 1 Width: 64-bit Data Rate: 800 MT/s
CPU 0 runs traces/clientserver/server_013.champsimtrace.xz
.xz
CPU 0 Bimodal branch predictor
BTB has LRU replacement policy
ITLB has LRU replacement policy
DTLB has LRU replacement policy
STLB has LRU replacement policy
L1I has LRU replacement policy
IP Table Entries: 256
L1D has LRU replacement policy
IP_Table L2 entries: 256
L2C has LRU replacement policy
LLC has LRU replacement policy
Heartbeat CPU 0 instructions: 10000000 cycles: 2775078 heartbeat IPC: 3.6035 cumulative IPC: 3.6035 (Simulation time: 0 hr 16 min 17 sec) 

Warmup complete CPU 0 instructions: 10000004 cycles: 2775079 (Simulation time: 0 hr 16 min 17 sec) 

Heartbeat CPU 0 instructions: 20000001 cycles: 24066980 heartbeat IPC: 0.469662 cumulative IPC: 0.469662 (Simulation time: 0 hr 32 min 45 sec) 
Heartbeat CPU 0 instructions: 30000002 cycles: 45229714 heartbeat IPC: 0.472529 cumulative IPC: 0.471091 (Simulation time: 0 hr 49 min 0 sec) 
Heartbeat CPU 0 instructions: 40000002 cycles: 66357500 heartbeat IPC: 0.47331 cumulative IPC: 0.471828 (Simulation time: 1 hr 5 min 37 sec) 
Heartbeat CPU 0 instructions: 50000000 cycles: 88100336 heartbeat IPC: 0.459922 cumulative IPC: 0.468794 (Simulation time: 1 hr 22 min 19 sec) 
Heartbeat CPU 0 instructions: 60000000 cycles: 109506887 heartbeat IPC: 0.467147 cumulative IPC: 0.468464 (Simulation time: 1 hr 38 min 30 sec) 
Finished CPU 0 instructions: 50000001 cycles: 106731824 cumulative IPC: 0.468464 (Simulation time: 1 hr 38 min 30 sec) 

ChampSim completed all CPUs

Region of Interest Statistics

CPU 0 cumulative IPC: 0.468464 instructions: 50000001 cycles: 106731824
ITLB TOTAL     ACCESS:    7868556  HIT:    7668073  MISS:     200483  HIT %:    97.4521  MISS %:     2.5479   MPKI: 4.00966
ITLB LOAD TRANSLATION ACCESS:    7868556  HIT:    7668073  MISS:     200483  HIT %:    97.4521  MISS %:     2.5479   MPKI: 4.00966
ITLB PREFETCH  REQUESTED:          0  ISSUED:          0  USEFUL:          0  USELESS:          0
ITLB USEFUL LOAD PREFETCHES:          0 PREFETCH ISSUED TO LOWER LEVEL:          0  ACCURACY: -nan
ITLB TIMELY PREFETCHES:          0 LATE PREFETCHES: 0 DROPPED PREFETCHES: 0
ITLB PREFETCHES SAME FILL-ORIGIN LEVEL: 0 DIFFERENT FILL-ORIGIN LEVEL: 0
ITLB AVERAGE MISS LATENCY: 18.1533 cycles
ITLB RQ	ACCESS:    9665070	FORWARD:          0	MERGED:    1744108	TO_CACHE:    7920962

DTLB TOTAL     ACCESS:   10057585  HIT:    9396680  MISS:     660905  HIT %:    93.4288  MISS %:    6.57121   MPKI: 13.2181
DTLB LOAD TRANSLATION ACCESS:   10057585  HIT:    9396680  MISS:     660905  HIT %:    93.4288  MISS %:    6.57121   MPKI: 13.2181
DTLB PREFETCH  REQUESTED:          0  ISSUED:          0  USEFUL:          0  USELESS:          0
DTLB USEFUL LOAD PREFETCHES:          0 PREFETCH ISSUED TO LOWER LEVEL:          0  ACCURACY: -nan
DTLB TIMELY PREFETCHES:          0 LATE PREFETCHES: 0 DROPPED PREFETCHES: 0
DTLB PREFETCHES SAME FILL-ORIGIN LEVEL: 0 DIFFERENT FILL-ORIGIN LEVEL: 0
DTLB AVERAGE MISS LATENCY: 15.2838 cycles
DTLB RQ	ACCESS:   12407842	FORWARD:          0	MERGED:    2312440	TO_CACHE:   10095402

STLB TOTAL     ACCESS:    1047985  HIT:     927297  MISS:     120688  HIT %:    88.4838  MISS %:    11.5162   MPKI: 2.41376
STLB LOAD TRANSLATION ACCESS:     861388  HIT:     740700  MISS:     120688  HIT %:    85.9891  MISS %:    14.0109   MPKI: 2.41376
STLB TRANSLATION FROM L1D PREFETCHER ACCESS:     186597  HIT:     186597  MISS:          0  HIT %:        100  MISS %:          0   MPKI: 0
STLB PREFETCH  REQUESTED:          0  ISSUED:          0  USEFUL:          0  USELESS:          0
STLB USEFUL LOAD PREFETCHES:          0 PREFETCH ISSUED TO LOWER LEVEL:          0  ACCURACY: -nan
STLB TIMELY PREFETCHES:          0 LATE PREFETCHES: 0 DROPPED PREFETCHES: 0
STLB PREFETCHES SAME FILL-ORIGIN LEVEL: 0 DIFFERENT FILL-ORIGIN LEVEL: 0
STLB AVERAGE MISS LATENCY: 49.4661 cycles
STLB RQ	ACCESS:    1097311	FORWARD:          0	MERGED:      49326	TO_CACHE:    1047985

STLB Hit, L1D data hit: 0
STLB Hit, L2C data hit: 0
STLB Hit, LLC data hit: 0
STLB Hit, LLC data miss: 0
STLB STLB hints to L2: 0
L1D TOTAL     ACCESS:   12497808  HIT:   11764965  MISS:     732843  HIT %:    94.1362  MISS %:    5.86377   MPKI: 14.6569
L1D LOAD      ACCESS:    7273697  HIT:    6727607  MISS:     546090  HIT %:    92.4923  MISS %:    7.50774   MPKI: 10.9218
L1D RFO       ACCESS:    5004087  HIT:    4913695  MISS:      90392  HIT %:    98.1936  MISS %:    1.80636   MPKI: 1.80784
L1D PREFETCH  ACCESS:     220024  HIT:     123663  MISS:      96361  HIT %:    56.2043  MISS %:    43.7957   MPKI: 1.92722
L1D PREFETCH  REQUESTED:     472177  ISSUED:     471971  USEFUL:      28032  USELESS:      68255
L1D USEFUL LOAD PREFETCHES:      28032 PREFETCH ISSUED TO LOWER LEVEL:     103526  ACCURACY: 27.0773
L1D TIMELY PREFETCHES:      28032 LATE PREFETCHES: 6935 DROPPED PREFETCHES: 0
L1D PREFETCHES SAME FILL-ORIGIN LEVEL: 103526 DIFFERENT FILL-ORIGIN LEVEL: 0
L1D AVERAGE MISS LATENCY: 539815 cycles
L1D RQ	ACCESS:   10678964	FORWARD:          0	MERGED:    3293798	TO_CACHE:    7302384
L1D WQ	ACCESS:    5192932	FORWARD:      82907	MERGED:      87474	TO_CACHE:    5105458
L1D PQ	ACCESS:     236048	FORWARD:          0	MERGED:          0	TO_CACHE:     235923

L1D UNIQUE REGIONS ACCESSED: 0
L1D REGIONS CONFLICTS: 0
L1D Cross Page Prefetch Requests: 0
L1D Same Page Prefetch Requests: 287198
L1D ROI Sum of L1D PQ occupancy: 3359141
L1D PREFETCHES PUSHED FROM L2C: 0
L1I TOTAL     ACCESS:    9220097  HIT:    7867624  MISS:    1352473  HIT %:    85.3312  MISS %:    14.6688   MPKI: 27.0495
L1I LOAD      ACCESS:    9220097  HIT:    7867624  MISS:    1352473  HIT %:    85.3312  MISS %:    14.6688   MPKI: 27.0495
L1I PREFETCH  REQUESTED:          0  ISSUED:          0  USEFUL:          0  USELESS:          0
L1I USEFUL LOAD PREFETCHES:          0 PREFETCH ISSUED TO LOWER LEVEL:          0  ACCURACY: -nan
L1I TIMELY PREFETCHES:          0 LATE PREFETCHES: 0 DROPPED PREFETCHES: 0
L1I PREFETCHES SAME FILL-ORIGIN LEVEL: 0 DIFFERENT FILL-ORIGIN LEVEL: 0
L1I AVERAGE MISS LATENCY: 31.6063 cycles
L1I RQ	ACCESS:   13830682	FORWARD:          0	MERGED:    4165612	TO_CACHE:    9665070

BTB TOTAL     ACCESS:    4435084  HIT:    3605586  MISS:     829498  HIT %:    81.2969  MISS %:    18.7031   MPKI: 16.59
BTB BRANCH_DIRECT_JUMP	ACCESS:     460299  HIT:     393852  MISS:      66447
BTB BRANCH_INDIRECT	ACCESS:     145929  HIT:     112911  MISS:      33018
BTB BRANCH_CONDITIONAL	ACCESS:    2139896  HIT:    1862301  MISS:     277595
BTB BRANCH_DIRECT_CALL	ACCESS:     662481  HIT:     536156  MISS:     126325
BTB BRANCH_INDIRECT_CALL	ACCESS:     164978  HIT:     152164  MISS:      12814
BTB BRANCH_RETURN	ACCESS:     861501  HIT:     548202  MISS:     313299
BTB BRANCH_OTHER ACCESS:          0  HIT:          0  MISS:          0

L2C TOTAL     ACCESS:    2934343  HIT:    1503386  MISS:    1430957  HIT %:    51.2342  MISS %:    48.7658   MPKI: 28.6191
L2C LOAD      ACCESS:    1891605  HIT:     896185  MISS:     995420  HIT %:     47.377  MISS %:     52.623   MPKI: 19.9084
L2C DATA LOAD MPKI: 5.37288
L2C INSTRUCTION LOAD MPKI: 14.5355
L2C RFO       ACCESS:      90143  HIT:      38393  MISS:      51750  HIT %:    42.5912  MISS %:    57.4088   MPKI: 1.035
L2C PREFETCH  ACCESS:     536491  HIT:     230587  MISS:     305904  HIT %:    42.9806  MISS %:    57.0194   MPKI: 6.11808
L2C DATA PREFETCH MPKI: 6.11808
L2C INSTRUCTION PREFETCH MPKI: 0
L2C WRITEBACK ACCESS:     263158  HIT:     259394  MISS:       3764  HIT %:    98.5697  MISS %:    1.43032   MPKI: 0.07528
L2C LOAD TRANSLATION ACCESS:     152946  HIT:      78827  MISS:      74119  HIT %:    51.5391  MISS %:    48.4609   MPKI: 1.48238
L2C PREFETCH  REQUESTED:     463688  ISSUED:     463688  USEFUL:      77852  USELESS:     228082
L2C USEFUL LOAD PREFETCHES:      77852 PREFETCH ISSUED TO LOWER LEVEL:     313003  ACCURACY: 24.8726
L2C TIMELY PREFETCHES:      77852 LATE PREFETCHES: 7099 DROPPED PREFETCHES: 0
L2C PREFETCHES SAME FILL-ORIGIN LEVEL: 239553 DIFFERENT FILL-ORIGIN LEVEL: 0
L2C AVERAGE MISS LATENCY: 43.0716 cycles
L2C RQ	ACCESS:    2134736	FORWARD:          0	MERGED:          0	TO_CACHE:    2134694
L2C WQ	ACCESS:     263158	FORWARD:         42	MERGED:          0	TO_CACHE:     263158
L2C PQ	ACCESS:     567214	FORWARD:          0	MERGED:       5089	TO_CACHE:     562125

L2C Instructions Evicting Data 319378
L2C Translations Evicting Data 33210
L2C Data Evicting Data 275925
L2C Instructions Evicting Instructions 369701
L2C Translations Evicting Instructions 37371
L2C Data Evicting Instructions 317696
L2C Instructions Evicting Translations 37697
L2C Translations Evicting Translations 3538
L2C Data Evicting Translations 32677
L2C Dense regions hint from L2: 0
PSCL5 TOTAL     ACCESS:     120688  HIT:     120688  MISS:          0  HIT %:        100  MISS %:          0   MPKI: 0
PSCL5 LOAD TRANSLATION ACCESS:     120688  HIT:     120688  MISS:          0  HIT %:        100  MISS %:          0   MPKI: 0
PSCL5 PREFETCH  REQUESTED:          0  ISSUED:          0  USEFUL:          0  USELESS:          0
PSCL5 USEFUL LOAD PREFETCHES:          0 PREFETCH ISSUED TO LOWER LEVEL:          0  ACCURACY: -nan
PSCL5 TIMELY PREFETCHES:          0 LATE PREFETCHES: 0 DROPPED PREFETCHES: 0
PSCL5 PREFETCHES SAME FILL-ORIGIN LEVEL: 0 DIFFERENT FILL-ORIGIN LEVEL: 0

PSCL4 TOTAL     ACCESS:     113257  HIT:     112924  MISS:        333  HIT %:     99.706  MISS %:   0.294022   MPKI: 0.00666
PSCL4 LOAD TRANSLATION ACCESS:     113257  HIT:     112924  MISS:        333  HIT %:     99.706  MISS %:   0.294022   MPKI: 0.00666
PSCL4 PREFETCH  REQUESTED:          0  ISSUED:          0  USEFUL:          0  USELESS:          0
PSCL4 USEFUL LOAD PREFETCHES:          0 PREFETCH ISSUED TO LOWER LEVEL:          0  ACCURACY: -nan
PSCL4 TIMELY PREFETCHES:          0 LATE PREFETCHES: 0 DROPPED PREFETCHES: 0
PSCL4 PREFETCHES SAME FILL-ORIGIN LEVEL: 0 DIFFERENT FILL-ORIGIN LEVEL: 0

PSCL3 TOTAL     ACCESS:     119819  HIT:     118802  MISS:       1017  HIT %:    99.1512  MISS %:    0.84878   MPKI: 0.02034
PSCL3 LOAD TRANSLATION ACCESS:     119819  HIT:     118802  MISS:       1017  HIT %:    99.1512  MISS %:    0.84878   MPKI: 0.02034
PSCL3 PREFETCH  REQUESTED:          0  ISSUED:          0  USEFUL:          0  USELESS:          0
PSCL3 USEFUL LOAD PREFETCHES:          0 PREFETCH ISSUED TO LOWER LEVEL:          0  ACCURACY: -nan
PSCL3 TIMELY PREFETCHES:          0 LATE PREFETCHES: 0 DROPPED PREFETCHES: 0
PSCL3 PREFETCHES SAME FILL-ORIGIN LEVEL: 0 DIFFERENT FILL-ORIGIN LEVEL: 0

PSCL2 TOTAL     ACCESS:     120688  HIT:      89680  MISS:      31008  HIT %:    74.3073  MISS %:    25.6927   MPKI: 0.62016
PSCL2 LOAD TRANSLATION ACCESS:     120688  HIT:      89680  MISS:      31008  HIT %:    74.3073  MISS %:    25.6927   MPKI: 0.62016
PSCL2 PREFETCH  REQUESTED:          0  ISSUED:          0  USEFUL:          0  USELESS:          0
PSCL2 USEFUL LOAD PREFETCHES:          0 PREFETCH ISSUED TO LOWER LEVEL:          0  ACCURACY: -nan
PSCL2 TIMELY PREFETCHES:          0 LATE PREFETCHES: 0 DROPPED PREFETCHES: 0
PSCL2 PREFETCHES SAME FILL-ORIGIN LEVEL: 0 DIFFERENT FILL-ORIGIN LEVEL: 0

LLC TOTAL     ACCESS:    1600553  HIT:    1499174  MISS:     101379  HIT %:     93.666  MISS %:      6.334   MPKI: 2.02758
LLC LOAD      ACCESS:     988615  HIT:     957137  MISS:      31478  HIT %:    96.8159  MISS %:    3.18405   MPKI: 0.62956
LLC RFO       ACCESS:      51455  HIT:      40740  MISS:      10715  HIT %:     79.176  MISS %:     20.824   MPKI: 0.2143
LLC PREFETCH  ACCESS:     313003  HIT:     256172  MISS:      56831  HIT %:    81.8433  MISS %:    18.1567   MPKI: 1.13662
LLC WRITEBACK ACCESS:     173361  HIT:     173276  MISS:         85  HIT %:     99.951  MISS %:  0.0490306   MPKI: 0.0017
LLC LOAD TRANSLATION ACCESS:      74119  HIT:      71849  MISS:       2270  HIT %:    96.9374  MISS %:    3.06264   MPKI: 0.0454
LLC PREFETCH  REQUESTED:          0  ISSUED:          0  USEFUL:       3759  USELESS:      52669
LLC USEFUL LOAD PREFETCHES:       3759 PREFETCH ISSUED TO LOWER LEVEL:      56831  ACCURACY: 6.61435
LLC TIMELY PREFETCHES:       3759 LATE PREFETCHES: 0 DROPPED PREFETCHES: 0
LLC PREFETCHES SAME FILL-ORIGIN LEVEL: 0 DIFFERENT FILL-ORIGIN LEVEL: 0
LLC AVERAGE MISS LATENCY: 189.476 cycles
LLC RQ	ACCESS:    1114190	FORWARD:          0	MERGED:          0	TO_CACHE:    1114189
LLC WQ	ACCESS:     173361	FORWARD:          1	MERGED:          0	TO_CACHE:     173361
LLC PQ	ACCESS:     313003	FORWARD:          0	MERGED:          0	TO_CACHE:     313003

LLC Dense regions hint to LLC: 0

RAW hits: 779648
Loads Generated: 11458610
Loads sent to L1D: 10678964
Stores Generated: 5192923
Stores sent to L1D: 5192932
Major fault: 0 Minor fault: 5304
Allocated PAGES: 5304

stream: 
stream:times selected: 431970
stream:pref_filled: 69625
stream:pref_useful: 19954
stream:pref_late: 3298
stream:misses: 5950
stream:misses_by_poll: 0

CS: 
CS:times selected: 24159
CS:pref_filled: 13762
CS:pref_useful: 9406
CS:pref_late: 3272
CS:misses: 5212
CS:misses_by_poll: 75

CPLX: 
CPLX:times selected: 404452
CPLX:pref_filled: 28565
CPLX:pref_useful: 4079
CPLX:pref_late: 423
CPLX:misses: 32517
CPLX:misses_by_poll: 4

NL_L1: 
NL:times selected: 3417
NL:pref_filled: 1193
NL:pref_useful: 102
NL:pref_late: 18
NL:misses: 348
NL:misses_by_poll: 0

total selections: 863998
total_filled: 96361
total_useful: 28032
total_late: 7505
total_polluted: 79
total_misses_after_warmup: 574779
conflicts: 2498995
Degree Incremented Times: 1
Degree Decremented Times: 100826

L1 IP Table Write Accesses: 4316140
L1 IP Table Read Accesses: 1817145
L1 RST Write Accesses: 361284
L1 RST Read Accesses: 722568
L1 CSPT Write Accesses: 361284
L1 CSPT Read Accesses: 701518
L1 RR Filter Tag Write Accesses: 236254
L1 RR Filter Tag Read Accesses: 14754765
L1 IP Table Tag Write Accesses: 7302386
L1 IP Table Tag Read Accesses: 7302386
L1 RST Tag Write Accesses: 0
L1 RST Tag Read Accesses: 3493649
L1 RR Filter Write Accesses: 0
L1 RR Filter Read Accesses: 531881
test: 120094
L2 IP Table Read Accesses: 802376
L2 IP Table Write Accesses: 1135117
L2 IP Table Tag Read Accesses: 637192
L2 IP Table Tag Write Accesses: 637192

DRAM Statistics
 CHANNEL 0
 RQ ROW_BUFFER_HIT:      18079  ROW_BUFFER_MISS:      83214
 DBUS_CONGESTED:      58873
 WQ ROW_BUFFER_HIT:      10218  ROW_BUFFER_MISS:      47174  FULL:          0

 AVG_CONGESTED_CYCLE: 31
 All warmup complete: 2
Channel 0 Bank busy for read cycles: 0
Channel 0 Bank busy for write cycles: 0
Channel 0
Rank 0
0banks busy for read cycles: 89881014
0banks busy for write cycles: 28523
1banks busy for read cycles: 7479319
1banks busy for write cycles: 3920221
2banks busy for read cycles: 1990597
2banks busy for write cycles: 1072404
3banks busy for read cycles: 510548
3banks busy for write cycles: 413308
4banks busy for read cycles: 172876
4banks busy for write cycles: 251022
5banks busy for read cycles: 51015
5banks busy for write cycles: 176865
6banks busy for read cycles: 29194
6banks busy for write cycles: 166012
7banks busy for read cycles: 32527
7banks busy for write cycles: 169222
8banks busy for read cycles: 113736
8banks busy for write cycles: 273422

CPU 0 Branch Prediction Accuracy: 92.9857% MPKI: 13.0204 Average ROB Occupancy at Mispredict: 21.2354
Branch types
NOT_BRANCH: 40718329 81.4367%
BRANCH_DIRECT_JUMP: 460299 0.920598%
BRANCH_INDIRECT: 145929 0.291858%
BRANCH_CONDITIONAL: 6986158 13.9723%
BRANCH_DIRECT_CALL: 662481 1.32496%
BRANCH_INDIRECT_CALL: 164978 0.329956%
BRANCH_RETURN: 861501 1.723%
BRANCH_OTHER: 0 0%

@sumon_overall_L1D     28032      6935     68255     96361    471971    472177
@Sumon_Early_by_class_L1D     16227      6625      3284        14
@Sumon_Late_by_class_L1D      3049      3038       381        14

@Sumon_Early_by_cycle_L1D      6498      2573      5308      1953      1315      3500      1483      1431      1541      1729       555       146
@Sumon_Late_by_cycle_L1D      6180       722        32         0         0         1         0         0         0         0         0         0
@Sumon_Early_stream_L1D      3245      1807      2133      1301       808      2155      1062      1041      1068      1157       357        93
@Sumon_Early_CS_L1D      2501       174      2630       183       144       552       194       115        59        31        36         6
@Sumon_Early_CPLX_L1D       381       307       329       255       155       534       211       250       302       405       124        31
@Sumon_Late_stream_L1D      2515       514        20         0         0         0         0         0         0         0         0         0
@Sumon_Late_CS_L1D      2907       125         6         0         0         0         0         0         0         0         0         0
@Sumon_Late_CPLX_L1D       340        38         2         0         0         1         0         0         0         0         0         0
@sumon_overall_L2C     77852      7099    228082    305904    463688    463688
@Sumon_Early_by_class_L2C      1150       362       468         0
@Sumon_Late_by_class_L2C         0         0         0         0

@Sumon_Early_by_cycle_L2C     13161      8808      9334      5892      4477     11357      5491      3754      2733      3101      2013      7731
@Sumon_Late_by_cycle_L2C      5390      1682        27         0         0         0         0         0         0         0         0         0
@Sumon_Early_stream_L2C         0         0         0         0         0         0         0         0         2        11       100      1037
@Sumon_Early_CS_L2C         0         0         0         0         0         0         0         0         0         2        48       312
@Sumon_Early_CPLX_L2C         0         0         0         0         0         0         0         0         1         3        31       433
@Sumon_Late_stream_L2C         0         0         0         0         0         0         0         0         0         0         0         0
@Sumon_Late_CS_L2C         0         0         0         0         0         0         0         0         0         0         0         0
@Sumon_Late_CPLX_L2C         0         0         0         0         0         0         0         0         0         0         0         0
DRAM PAGES: 1048576
Allocated PAGES: 5304
