
*** ChampSim Multicore Out-of-Order Simulator ***

Warmup Instructions: 10000000
Simulation Instructions: 50000000
Number of CPUs: 1
LLC sets: 2048
LLC ways: 16
Off-chip DRAM Size: 4096 MB Channels: 1 Width: 64-bit Data Rate: 800 MT/s
CPU 0 runs traces/clientserver/server_018.champsimtrace.xz
.xz
CPU 0 Bimodal branch predictor
BTB has LRU replacement policy
ITLB has LRU replacement policy
DTLB has LRU replacement policy
STLB has LRU replacement policy
L1I has LRU replacement policy
IP Table Entries: 256
L1D has LRU replacement policy
IP_Table L2 entries: 256
L2C has LRU replacement policy
LLC has LRU replacement policy
Heartbeat CPU 0 instructions: 10000003 cycles: 3151194 heartbeat IPC: 3.1734 cumulative IPC: 3.1734 (Simulation time: 0 hr 19 min 32 sec) 

Warmup complete CPU 0 instructions: 10000003 cycles: 3151194 (Simulation time: 0 hr 19 min 32 sec) 

Heartbeat CPU 0 instructions: 20000000 cycles: 35418060 heartbeat IPC: 0.309915 cumulative IPC: 0.309915 (Simulation time: 0 hr 55 min 46 sec) 
Heartbeat CPU 0 instructions: 30000000 cycles: 69892841 heartbeat IPC: 0.290067 cumulative IPC: 0.299663 (Simulation time: 1 hr 28 min 46 sec) 
Heartbeat CPU 0 instructions: 40000000 cycles: 103077643 heartbeat IPC: 0.301343 cumulative IPC: 0.300221 (Simulation time: 1 hr 45 min 51 sec) 
Heartbeat CPU 0 instructions: 50000000 cycles: 135168792 heartbeat IPC: 0.311612 cumulative IPC: 0.30299 (Simulation time: 1 hr 51 min 29 sec) 
Heartbeat CPU 0 instructions: 60000000 cycles: 167430067 heartbeat IPC: 0.309969 cumulative IPC: 0.30436 (Simulation time: 1 hr 54 min 25 sec) 
Finished CPU 0 instructions: 50000003 cycles: 164278887 cumulative IPC: 0.304361 (Simulation time: 1 hr 54 min 25 sec) 

ChampSim completed all CPUs

Region of Interest Statistics

CPU 0 cumulative IPC: 0.304361 instructions: 50000003 cycles: 164278887
ITLB TOTAL     ACCESS:    8952249  HIT:    8616939  MISS:     335310  HIT %:    96.2545  MISS %:    3.74554   MPKI: 6.7062
ITLB LOAD TRANSLATION ACCESS:    8952249  HIT:    8616939  MISS:     335310  HIT %:    96.2545  MISS %:    3.74554   MPKI: 6.7062
ITLB PREFETCH  REQUESTED:          0  ISSUED:          0  USEFUL:          0  USELESS:          0
ITLB USEFUL LOAD PREFETCHES:          0 PREFETCH ISSUED TO LOWER LEVEL:          0  ACCURACY: -nan
ITLB TIMELY PREFETCHES:          0 LATE PREFETCHES: 0 DROPPED PREFETCHES: 0
ITLB PREFETCHES SAME FILL-ORIGIN LEVEL: 0 DIFFERENT FILL-ORIGIN LEVEL: 0
ITLB AVERAGE MISS LATENCY: 9.65247 cycles
ITLB RQ	ACCESS:   10451608	FORWARD:          0	MERGED:    1392191	TO_CACHE:    9059417

DTLB TOTAL     ACCESS:   11561127  HIT:   11124427  MISS:     436700  HIT %:    96.2227  MISS %:    3.77731   MPKI: 8.734
DTLB LOAD TRANSLATION ACCESS:   11561127  HIT:   11124427  MISS:     436700  HIT %:    96.2227  MISS %:    3.77731   MPKI: 8.734
DTLB PREFETCH  REQUESTED:          0  ISSUED:          0  USEFUL:          0  USELESS:          0
DTLB USEFUL LOAD PREFETCHES:          0 PREFETCH ISSUED TO LOWER LEVEL:          0  ACCURACY: -nan
DTLB TIMELY PREFETCHES:          0 LATE PREFETCHES: 0 DROPPED PREFETCHES: 0
DTLB PREFETCHES SAME FILL-ORIGIN LEVEL: 0 DIFFERENT FILL-ORIGIN LEVEL: 0
DTLB AVERAGE MISS LATENCY: 21.4549 cycles
DTLB RQ	ACCESS:   15950127	FORWARD:          0	MERGED:    4336642	TO_CACHE:   11613485

STLB TOTAL     ACCESS:    1473672  HIT:    1431284  MISS:      42388  HIT %:    97.1236  MISS %:    2.87635   MPKI: 0.84776
STLB LOAD TRANSLATION ACCESS:     772010  HIT:     729622  MISS:      42388  HIT %:    94.5094  MISS %:     5.4906   MPKI: 0.84776
STLB TRANSLATION FROM L1D PREFETCHER ACCESS:     701662  HIT:     701662  MISS:          0  HIT %:        100  MISS %:          0   MPKI: 0
STLB PREFETCH  REQUESTED:          0  ISSUED:          0  USEFUL:          0  USELESS:          0
STLB USEFUL LOAD PREFETCHES:          0 PREFETCH ISSUED TO LOWER LEVEL:          0  ACCURACY: -nan
STLB TIMELY PREFETCHES:          0 LATE PREFETCHES: 0 DROPPED PREFETCHES: 0
STLB PREFETCHES SAME FILL-ORIGIN LEVEL: 0 DIFFERENT FILL-ORIGIN LEVEL: 0
STLB AVERAGE MISS LATENCY: 133.289 cycles
STLB RQ	ACCESS:    1791374	FORWARD:          0	MERGED:     317701	TO_CACHE:    1473673

STLB Hit, L1D data hit: 0
STLB Hit, L2C data hit: 0
STLB Hit, LLC data hit: 0
STLB Hit, LLC data miss: 0
STLB STLB hints to L2: 0
L1D TOTAL     ACCESS:   14420001  HIT:   12378485  MISS:    2041516  HIT %:    85.8425  MISS %:    14.1575   MPKI: 40.8303
L1D LOAD      ACCESS:    7856890  HIT:    7193150  MISS:     663740  HIT %:    91.5521  MISS %:    8.44787   MPKI: 13.2748
L1D RFO       ACCESS:    5650049  HIT:    4787161  MISS:     862888  HIT %:    84.7278  MISS %:    15.2722   MPKI: 17.2578
L1D PREFETCH  ACCESS:     913062  HIT:     398174  MISS:     514888  HIT %:    43.6086  MISS %:    56.3914   MPKI: 10.2978
L1D PREFETCH  REQUESTED:    2062347  ISSUED:    2038782  USEFUL:     233711  USELESS:     281307
L1D USEFUL LOAD PREFETCHES:     233711 PREFETCH ISSUED TO LOWER LEVEL:     582834  ACCURACY: 40.0991
L1D TIMELY PREFETCHES:     233711 LATE PREFETCHES: 67933 DROPPED PREFETCHES: 0
L1D PREFETCHES SAME FILL-ORIGIN LEVEL: 582834 DIFFERENT FILL-ORIGIN LEVEL: 0
L1D AVERAGE MISS LATENCY: 2.98375e+06 cycles
L1D RQ	ACCESS:   11171450	FORWARD:          0	MERGED:    3162222	TO_CACHE:    7897034
L1D WQ	ACCESS:    8124999	FORWARD:     112242	MERGED:      71906	TO_CACHE:    8053093
L1D PQ	ACCESS:    1019419	FORWARD:          0	MERGED:          8	TO_CACHE:    1019363

L1D UNIQUE REGIONS ACCESSED: 0
L1D REGIONS CONFLICTS: 0
L1D Cross Page Prefetch Requests: 0
L1D Same Page Prefetch Requests: 1279337
L1D ROI Sum of L1D PQ occupancy: 46965920
L1D PREFETCHES PUSHED FROM L2C: 0
L1I TOTAL     ACCESS:    9804944  HIT:    7644790  MISS:    2160154  HIT %:    77.9687  MISS %:    22.0313   MPKI: 43.2031
L1I LOAD      ACCESS:    9804944  HIT:    7644790  MISS:    2160154  HIT %:    77.9687  MISS %:    22.0313   MPKI: 43.2031
L1I PREFETCH  REQUESTED:          0  ISSUED:          0  USEFUL:          0  USELESS:          0
L1I USEFUL LOAD PREFETCHES:          0 PREFETCH ISSUED TO LOWER LEVEL:          0  ACCURACY: -nan
L1I TIMELY PREFETCHES:          0 LATE PREFETCHES: 0 DROPPED PREFETCHES: 0
L1I PREFETCHES SAME FILL-ORIGIN LEVEL: 0 DIFFERENT FILL-ORIGIN LEVEL: 0
L1I AVERAGE MISS LATENCY: 17.4899 cycles
L1I RQ	ACCESS:   14497197	FORWARD:          0	MERGED:    4045589	TO_CACHE:   10451608

BTB TOTAL     ACCESS:    5422120  HIT:    5181249  MISS:     240871  HIT %:    95.5576  MISS %:    4.44238   MPKI: 4.81742
BTB BRANCH_DIRECT_JUMP	ACCESS:     465584  HIT:     463773  MISS:       1811
BTB BRANCH_INDIRECT	ACCESS:      44299  HIT:      44128  MISS:        171
BTB BRANCH_CONDITIONAL	ACCESS:    3164088  HIT:    3158244  MISS:       5844
BTB BRANCH_DIRECT_CALL	ACCESS:     670381  HIT:     666525  MISS:       3856
BTB BRANCH_INDIRECT_CALL	ACCESS:     203693  HIT:     177595  MISS:      26098
BTB BRANCH_RETURN	ACCESS:     874075  HIT:     670984  MISS:     203091
BTB BRANCH_OTHER ACCESS:          0  HIT:          0  MISS:          0

L2C TOTAL     ACCESS:    5720688  HIT:    3774706  MISS:    1945982  HIT %:    65.9834  MISS %:    34.0166   MPKI: 38.9196
L2C LOAD      ACCESS:    2755942  HIT:    2266490  MISS:     489452  HIT %:    82.2401  MISS %:    17.7599   MPKI: 9.78904
L2C DATA LOAD MPKI: 7.2578
L2C INSTRUCTION LOAD MPKI: 2.53124
L2C RFO       ACCESS:     862860  HIT:      26556  MISS:     836304  HIT %:    3.07767  MISS %:    96.9223   MPKI: 16.7261
L2C PREFETCH  ACCESS:     941243  HIT:     347664  MISS:     593579  HIT %:    36.9367  MISS %:    63.0633   MPKI: 11.8716
L2C DATA PREFETCH MPKI: 11.8716
L2C INSTRUCTION PREFETCH MPKI: 0
L2C WRITEBACK ACCESS:    1110961  HIT:    1108225  MISS:       2736  HIT %:    99.7537  MISS %:   0.246273   MPKI: 0.05472
L2C LOAD TRANSLATION ACCESS:      49682  HIT:      25771  MISS:      23911  HIT %:    51.8719  MISS %:    48.1281   MPKI: 0.47822
L2C PREFETCH  REQUESTED:     525525  ISSUED:     525524  USEFUL:      54798  USELESS:     539479
L2C USEFUL LOAD PREFETCHES:      54798 PREFETCH ISSUED TO LOWER LEVEL:     597747  ACCURACY: 9.16742
L2C TIMELY PREFETCHES:      54798 LATE PREFETCHES: 4166 DROPPED PREFETCHES: 0
L2C PREFETCHES SAME FILL-ORIGIN LEVEL: 259467 DIFFERENT FILL-ORIGIN LEVEL: 0
L2C AVERAGE MISS LATENCY: 476.734 cycles
L2C RQ	ACCESS:    3668520	FORWARD:          0	MERGED:          0	TO_CACHE:    3668484
L2C WQ	ACCESS:    1110961	FORWARD:         38	MERGED:          0	TO_CACHE:    1110961
L2C PQ	ACCESS:    1108358	FORWARD:          0	MERGED:      33444	TO_CACHE:    1074912

L2C Instructions Evicting Data 117163
L2C Translations Evicting Data 22221
L2C Data Evicting Data 1654566
L2C Instructions Evicting Instructions 7724
L2C Translations Evicting Instructions 1463
L2C Data Evicting Instructions 116265
L2C Instructions Evicting Translations 1675
L2C Translations Evicting Translations 227
L2C Data Evicting Translations 21942
L2C Dense regions hint from L2: 0
PSCL5 TOTAL     ACCESS:      42388  HIT:      42388  MISS:          0  HIT %:        100  MISS %:          0   MPKI: 0
PSCL5 LOAD TRANSLATION ACCESS:      42388  HIT:      42388  MISS:          0  HIT %:        100  MISS %:          0   MPKI: 0
PSCL5 PREFETCH  REQUESTED:          0  ISSUED:          0  USEFUL:          0  USELESS:          0
PSCL5 USEFUL LOAD PREFETCHES:          0 PREFETCH ISSUED TO LOWER LEVEL:          0  ACCURACY: -nan
PSCL5 TIMELY PREFETCHES:          0 LATE PREFETCHES: 0 DROPPED PREFETCHES: 0
PSCL5 PREFETCHES SAME FILL-ORIGIN LEVEL: 0 DIFFERENT FILL-ORIGIN LEVEL: 0

PSCL4 TOTAL     ACCESS:      40306  HIT:      40208  MISS:         98  HIT %:    99.7569  MISS %:    0.24314   MPKI: 0.00196
PSCL4 LOAD TRANSLATION ACCESS:      40306  HIT:      40208  MISS:         98  HIT %:    99.7569  MISS %:    0.24314   MPKI: 0.00196
PSCL4 PREFETCH  REQUESTED:          0  ISSUED:          0  USEFUL:          0  USELESS:          0
PSCL4 USEFUL LOAD PREFETCHES:          0 PREFETCH ISSUED TO LOWER LEVEL:          0  ACCURACY: -nan
PSCL4 TIMELY PREFETCHES:          0 LATE PREFETCHES: 0 DROPPED PREFETCHES: 0
PSCL4 PREFETCHES SAME FILL-ORIGIN LEVEL: 0 DIFFERENT FILL-ORIGIN LEVEL: 0

PSCL3 TOTAL     ACCESS:      42365  HIT:      42263  MISS:        102  HIT %:    99.7592  MISS %:   0.240765   MPKI: 0.00204
PSCL3 LOAD TRANSLATION ACCESS:      42365  HIT:      42263  MISS:        102  HIT %:    99.7592  MISS %:   0.240765   MPKI: 0.00204
PSCL3 PREFETCH  REQUESTED:          0  ISSUED:          0  USEFUL:          0  USELESS:          0
PSCL3 USEFUL LOAD PREFETCHES:          0 PREFETCH ISSUED TO LOWER LEVEL:          0  ACCURACY: -nan
PSCL3 TIMELY PREFETCHES:          0 LATE PREFETCHES: 0 DROPPED PREFETCHES: 0
PSCL3 PREFETCHES SAME FILL-ORIGIN LEVEL: 0 DIFFERENT FILL-ORIGIN LEVEL: 0

PSCL2 TOTAL     ACCESS:      42388  HIT:      35261  MISS:       7127  HIT %:    83.1863  MISS %:    16.8137   MPKI: 0.14254
PSCL2 LOAD TRANSLATION ACCESS:      42388  HIT:      35261  MISS:       7127  HIT %:    83.1863  MISS %:    16.8137   MPKI: 0.14254
PSCL2 PREFETCH  REQUESTED:          0  ISSUED:          0  USEFUL:          0  USELESS:          0
PSCL2 USEFUL LOAD PREFETCHES:          0 PREFETCH ISSUED TO LOWER LEVEL:          0  ACCURACY: -nan
PSCL2 TIMELY PREFETCHES:          0 LATE PREFETCHES: 0 DROPPED PREFETCHES: 0
PSCL2 PREFETCHES SAME FILL-ORIGIN LEVEL: 0 DIFFERENT FILL-ORIGIN LEVEL: 0

LLC TOTAL     ACCESS:    3005651  HIT:    1610422  MISS:    1395229  HIT %:    53.5798  MISS %:    46.4202   MPKI: 27.9046
LLC LOAD      ACCESS:     485541  HIT:     278739  MISS:     206802  HIT %:    57.4079  MISS %:    42.5921   MPKI: 4.13604
LLC RFO       ACCESS:     836047  HIT:     118440  MISS:     717607  HIT %:    14.1667  MISS %:    85.8333   MPKI: 14.3521
LLC PREFETCH  ACCESS:     597742  HIT:     140603  MISS:     457139  HIT %:    23.5224  MISS %:    76.4776   MPKI: 9.14278
LLC WRITEBACK ACCESS:    1062410  HIT:    1060708  MISS:       1702  HIT %:    99.8398  MISS %:   0.160202   MPKI: 0.03404
LLC LOAD TRANSLATION ACCESS:      23911  HIT:      11932  MISS:      11979  HIT %:    49.9017  MISS %:    50.0983   MPKI: 0.23958
LLC PREFETCH  REQUESTED:          0  ISSUED:          0  USEFUL:      17221  USELESS:     441544
LLC USEFUL LOAD PREFETCHES:      17221 PREFETCH ISSUED TO LOWER LEVEL:     457141  ACCURACY: 3.76711
LLC TIMELY PREFETCHES:      17221 LATE PREFETCHES: 0 DROPPED PREFETCHES: 0
LLC PREFETCHES SAME FILL-ORIGIN LEVEL: 0 DIFFERENT FILL-ORIGIN LEVEL: 0
LLC AVERAGE MISS LATENCY: 622.876 cycles
LLC RQ	ACCESS:    1345501	FORWARD:          0	MERGED:          0	TO_CACHE:    1345499
LLC WQ	ACCESS:    1062410	FORWARD:          5	MERGED:          0	TO_CACHE:    1062410
LLC PQ	ACCESS:     597747	FORWARD:          0	MERGED:          0	TO_CACHE:     597744

LLC Dense regions hint to LLC: 0

RAW hits: 869385
Loads Generated: 12040837
Loads sent to L1D: 11171450
Stores Generated: 8124995
Stores sent to L1D: 8124999
Major fault: 0 Minor fault: 14638
Allocated PAGES: 14638

stream: 
stream:times selected: 2326137
stream:pref_filled: 478518
stream:pref_useful: 162031
stream:pref_late: 24176
stream:misses: 41413
stream:misses_by_poll: 0

CS: 
CS:times selected: 1841076
CS:pref_filled: 140989
CS:pref_useful: 135083
CS:pref_late: 38885
CS:misses: 72086
CS:misses_by_poll: 343

CPLX: 
CPLX:times selected: 478140
CPLX:pref_filled: 32558
CPLX:pref_useful: 1528
CPLX:pref_late: 218
CPLX:misses: 122987
CPLX:misses_by_poll: 24

NL_L1: 
NL:times selected: 2812
NL:pref_filled: 1144
NL:pref_useful: 46
NL:pref_late: 15
NL:misses: 1447
NL:misses_by_poll: 0

total selections: 4648165
total_filled: 514888
total_useful: 233711
total_late: 68686
total_polluted: 367
total_misses_after_warmup: 703885
conflicts: 2431128
Degree Incremented Times: 24865
Degree Decremented Times: 80467

L1 IP Table Write Accesses: 5263479
L1 IP Table Read Accesses: 2832351
L1 RST Write Accesses: 1929290
L1 RST Read Accesses: 3858580
L1 CSPT Write Accesses: 1929290
L1 CSPT Read Accesses: 2349897
L1 RR Filter Tag Write Accesses: 1042984
L1 RR Filter Tag Read Accesses: 286433390
L1 IP Table Tag Write Accesses: 7897035
L1 IP Table Tag Read Accesses: 7897035
L1 RST Tag Write Accesses: 0
L1 RST Tag Read Accesses: 17570029
L1 RR Filter Write Accesses: 0
L1 RR Filter Read Accesses: 9641552
test: 285700
L2 IP Table Read Accesses: 1789319
L2 IP Table Write Accesses: 1768239
L2 IP Table Tag Read Accesses: 1055231
L2 IP Table Tag Write Accesses: 1055231

DRAM Statistics
 CHANNEL 0
 RQ ROW_BUFFER_HIT:     365218  ROW_BUFFER_MISS:    1028112
 DBUS_CONGESTED:    1932406
 WQ ROW_BUFFER_HIT:     242064  ROW_BUFFER_MISS:     624280  FULL:          0

 AVG_CONGESTED_CYCLE: 36
 All warmup complete: 2
Channel 0 Bank busy for read cycles: 0
Channel 0 Bank busy for write cycles: 0
Channel 0
Rank 0
0banks busy for read cycles: 28027464
0banks busy for write cycles: 30140
1banks busy for read cycles: 19425310
1banks busy for write cycles: 4199142
2banks busy for read cycles: 13122534
2banks busy for write cycles: 2535111
3banks busy for read cycles: 7177641
3banks busy for write cycles: 1930495
4banks busy for read cycles: 6918416
4banks busy for write cycles: 1715563
5banks busy for read cycles: 3983347
5banks busy for write cycles: 1637741
6banks busy for read cycles: 3450551
6banks busy for write cycles: 1947319
7banks busy for read cycles: 4324396
7banks busy for write cycles: 3951573
8banks busy for read cycles: 26577983
8banks busy for write cycles: 33324162

CPU 0 Branch Prediction Accuracy: 95.5125% MPKI: 7.55984 Average ROB Occupancy at Mispredict: 65.3766
Branch types
NOT_BRANCH: 41576625 83.1532%
BRANCH_DIRECT_JUMP: 465584 0.931168%
BRANCH_INDIRECT: 44299 0.088598%
BRANCH_CONDITIONAL: 6165096 12.3302%
BRANCH_DIRECT_CALL: 670381 1.34076%
BRANCH_INDIRECT_CALL: 203693 0.407386%
BRANCH_RETURN: 874075 1.74815%
BRANCH_OTHER: 0 0%

@sumon_overall_L1D    233711     67933    281307    514888   2038782   2062347
@Sumon_Early_by_class_L1D     97314    133925      1288        12
@Sumon_Late_by_class_L1D     23485     38879       184        12

@Sumon_Early_by_cycle_L1D    120411     65843     27571      1397      2953      2249      1025      5746      1217      4770       325       204
@Sumon_Late_by_cycle_L1D     37982     14303      3465      8901      3134       148         0         0         0         0         0         0
@Sumon_Early_stream_L1D     32892     34011     21483       961       838      1709       652       369       495      3391       312       201
@Sumon_Early_CS_L1D     86501     31484      5907       363      2040       325       182      5230       697      1196         0         0
@Sumon_Early_CPLX_L1D       277       103        73        63        69       200       181       130        16       161        12         3
@Sumon_Late_stream_L1D     13130      4522      1610      2546      1542       135         0         0         0         0         0         0
@Sumon_Late_CS_L1D     19691      9430      1809      6348      1589        12         0         0         0         0         0         0
@Sumon_Late_CPLX_L1D        56        82        41         3         2         0         0         0         0         0         0         0
@sumon_overall_L2C     54798      4166    539479    593579    525524    525525
@Sumon_Early_by_class_L2C      6525       735       576         0
@Sumon_Late_by_class_L2C         0       311         0         0

@Sumon_Early_by_cycle_L2C      5441      5937      4872      1952      1739     10250      2728       821      3369      2814      1819     13056
@Sumon_Late_by_cycle_L2C      3009      1113        37         3         1         3         0         0         0         0         0         0
@Sumon_Early_stream_L2C         0         0         0         0         0         2        72       222       139       343       434      5313
@Sumon_Early_CS_L2C       265        50        17         2         0         1         2         2         1        98         9       288
@Sumon_Early_CPLX_L2C         0         0         0         0         0         0         9        98        15        10        32       412
@Sumon_Late_stream_L2C         0         0         0         0         0         0         0         0         0         0         0         0
@Sumon_Late_CS_L2C        86       216         9         0         0         0         0         0         0         0         0         0
@Sumon_Late_CPLX_L2C         0         0         0         0         0         0         0         0         0         0         0         0
DRAM PAGES: 1048576
Allocated PAGES: 14638
