
*** ChampSim Multicore Out-of-Order Simulator ***

Warmup Instructions: 10000000
Simulation Instructions: 50000000
Number of CPUs: 1
LLC sets: 2048
LLC ways: 16
Off-chip DRAM Size: 4096 MB Channels: 1 Width: 64-bit Data Rate: 6400 MT/s
CPU 0 runs traces/SPEC2017/649.fotonik3d_s-7084B.champsimtrace.xz
.xz
CPU 0 Bimodal branch predictor
BTB has LRU replacement policy
ITLB has LRU replacement policy
DTLB has LRU replacement policy
STLB has LRU replacement policy
L1I has LRU replacement policy
IP Table Entries: 256
L1D has LRU replacement policy
IP_Table L2 entries: 256
L2C has LRU replacement policy
LLC has LRU replacement policy
Heartbeat CPU 0 instructions: 10000001 cycles: 2908397 heartbeat IPC: 3.43832 cumulative IPC: 3.43832 (Simulation time: 0 hr 25 min 5 sec) 

Warmup complete CPU 0 instructions: 10000001 cycles: 2908397 (Simulation time: 0 hr 25 min 5 sec) 

Heartbeat CPU 0 instructions: 20000002 cycles: 13089219 heartbeat IPC: 0.982239 cumulative IPC: 0.982239 (Simulation time: 0 hr 44 min 3 sec) 
Heartbeat CPU 0 instructions: 30000002 cycles: 23244573 heartbeat IPC: 0.984702 cumulative IPC: 0.983469 (Simulation time: 1 hr 3 min 20 sec) 
Heartbeat CPU 0 instructions: 40000003 cycles: 33411076 heartbeat IPC: 0.983622 cumulative IPC: 0.98352 (Simulation time: 1 hr 20 min 21 sec) 
Heartbeat CPU 0 instructions: 50000002 cycles: 43573428 heartbeat IPC: 0.984024 cumulative IPC: 0.983646 (Simulation time: 1 hr 29 min 44 sec) 
Heartbeat CPU 0 instructions: 60000002 cycles: 53733938 heartbeat IPC: 0.984203 cumulative IPC: 0.983757 (Simulation time: 1 hr 37 min 39 sec) 
Finished CPU 0 instructions: 50000001 cycles: 50825541 cumulative IPC: 0.983757 (Simulation time: 1 hr 37 min 39 sec) 

ChampSim completed all CPUs

Region of Interest Statistics

CPU 0 cumulative IPC: 0.983757 instructions: 50000001 cycles: 50825541
ITLB TOTAL     ACCESS:    6086231  HIT:    6086231  MISS:          0  HIT %:        100  MISS %:          0   MPKI: 0
ITLB LOAD TRANSLATION ACCESS:    6086231  HIT:    6086231  MISS:          0  HIT %:        100  MISS %:          0   MPKI: 0
ITLB PREFETCH  REQUESTED:          0  ISSUED:          0  USEFUL:          0  USELESS:          0
ITLB USEFUL LOAD PREFETCHES:          0 PREFETCH ISSUED TO LOWER LEVEL:          0  ACCURACY: -nan
ITLB TIMELY PREFETCHES:          0 LATE PREFETCHES: 0 DROPPED PREFETCHES: 0
ITLB PREFETCHES SAME FILL-ORIGIN LEVEL: 0 DIFFERENT FILL-ORIGIN LEVEL: 0
ITLB AVERAGE MISS LATENCY: -nan cycles
ITLB RQ	ACCESS:    7429833	FORWARD:          0	MERGED:    1343601	TO_CACHE:    6086232

DTLB TOTAL     ACCESS:   13369083  HIT:   13299553  MISS:      69530  HIT %:    99.4799  MISS %:   0.520081   MPKI: 1.3906
DTLB LOAD TRANSLATION ACCESS:   13369083  HIT:   13299553  MISS:      69530  HIT %:    99.4799  MISS %:   0.520081   MPKI: 1.3906
DTLB PREFETCH  REQUESTED:          0  ISSUED:          0  USEFUL:          0  USELESS:          0
DTLB USEFUL LOAD PREFETCHES:          0 PREFETCH ISSUED TO LOWER LEVEL:          0  ACCURACY: -nan
DTLB TIMELY PREFETCHES:          0 LATE PREFETCHES: 0 DROPPED PREFETCHES: 0
DTLB PREFETCHES SAME FILL-ORIGIN LEVEL: 0 DIFFERENT FILL-ORIGIN LEVEL: 0
DTLB AVERAGE MISS LATENCY: 35.822 cycles
DTLB RQ	ACCESS:   14654619	FORWARD:          0	MERGED:    1284207	TO_CACHE:   13370412

STLB TOTAL     ACCESS:    1267848  HIT:    1254202  MISS:      13646  HIT %:    98.9237  MISS %:    1.07631   MPKI: 0.27292
STLB LOAD TRANSLATION ACCESS:      69530  HIT:      55884  MISS:      13646  HIT %:    80.3739  MISS %:    19.6261   MPKI: 0.27292
STLB TRANSLATION FROM L1D PREFETCHER ACCESS:    1198318  HIT:    1198318  MISS:          0  HIT %:        100  MISS %:          0   MPKI: 0
STLB PREFETCH  REQUESTED:          0  ISSUED:          0  USEFUL:          0  USELESS:          0
STLB USEFUL LOAD PREFETCHES:          0 PREFETCH ISSUED TO LOWER LEVEL:          0  ACCURACY: -nan
STLB TIMELY PREFETCHES:          0 LATE PREFETCHES: 0 DROPPED PREFETCHES: 0
STLB PREFETCHES SAME FILL-ORIGIN LEVEL: 0 DIFFERENT FILL-ORIGIN LEVEL: 0
STLB AVERAGE MISS LATENCY: 135.694 cycles
STLB RQ	ACCESS:    6518123	FORWARD:          0	MERGED:    5250275	TO_CACHE:    1267848

STLB Hit, L1D data hit: 0
STLB Hit, L2C data hit: 0
STLB Hit, LLC data hit: 0
STLB Hit, LLC data miss: 0
STLB STLB hints to L2: 0
L1D TOTAL     ACCESS:   21098079  HIT:   20221219  MISS:     876860  HIT %:    95.8439  MISS %:    4.15611   MPKI: 17.5372
L1D LOAD      ACCESS:   12193012  HIT:   12177967  MISS:      15045  HIT %:    99.8766  MISS %:    0.12339   MPKI: 0.3009
L1D RFO       ACCESS:    2458592  HIT:    2458592  MISS:          0  HIT %:        100  MISS %:          0   MPKI: 0
L1D PREFETCH  ACCESS:    6446475  HIT:    5584660  MISS:     861815  HIT %:    86.6312  MISS %:    13.3688   MPKI: 17.2363
L1D PREFETCH  REQUESTED:   13184233  ISSUED:   12897350  USEFUL:     804315  USELESS:      57530
L1D USEFUL LOAD PREFETCHES:     804315 PREFETCH ISSUED TO LOWER LEVEL:     864003  ACCURACY: 93.0917
L1D TIMELY PREFETCHES:     804315 LATE PREFETCHES: 149 DROPPED PREFETCHES: 0
L1D PREFETCHES SAME FILL-ORIGIN LEVEL: 864003 DIFFERENT FILL-ORIGIN LEVEL: 0
L1D AVERAGE MISS LATENCY: 5225.6 cycles
L1D RQ	ACCESS:   17597355	FORWARD:          0	MERGED:    5390963	TO_CACHE:   12196027
L1D WQ	ACCESS:    2458592	FORWARD:      10365	MERGED:          0	TO_CACHE:    2458592
L1D PQ	ACCESS:    6448757	FORWARD:          0	MERGED:        164	TO_CACHE:    6448593

L1D UNIQUE REGIONS ACCESSED: 0
L1D REGIONS CONFLICTS: 0
L1D Cross Page Prefetch Requests: 0
L1D Same Page Prefetch Requests: 7722713
L1D ROI Sum of L1D PQ occupancy: 92899581
L1D PREFETCHES PUSHED FROM L2C: 0
L1I TOTAL     ACCESS:    7429832  HIT:    7429832  MISS:          0  HIT %:        100  MISS %:          0   MPKI: 0
L1I LOAD      ACCESS:    7429832  HIT:    7429832  MISS:          0  HIT %:        100  MISS %:          0   MPKI: 0
L1I PREFETCH  REQUESTED:          0  ISSUED:          0  USEFUL:          0  USELESS:          0
L1I USEFUL LOAD PREFETCHES:          0 PREFETCH ISSUED TO LOWER LEVEL:          0  ACCURACY: -nan
L1I TIMELY PREFETCHES:          0 LATE PREFETCHES: 0 DROPPED PREFETCHES: 0
L1I PREFETCHES SAME FILL-ORIGIN LEVEL: 0 DIFFERENT FILL-ORIGIN LEVEL: 0
L1I AVERAGE MISS LATENCY: -nan cycles
L1I RQ	ACCESS:   10819098	FORWARD:          0	MERGED:    3389265	TO_CACHE:    7429833

BTB TOTAL     ACCESS:     336775  HIT:     336772  MISS:          3  HIT %:    99.9991  MISS %: 0.000890802   MPKI: 6e-05
BTB BRANCH_DIRECT_JUMP	ACCESS:          0  HIT:          0  MISS:          0
BTB BRANCH_INDIRECT	ACCESS:          0  HIT:          0  MISS:          0
BTB BRANCH_CONDITIONAL	ACCESS:     336775  HIT:     336772  MISS:          3
BTB BRANCH_DIRECT_CALL	ACCESS:          0  HIT:          0  MISS:          0
BTB BRANCH_INDIRECT_CALL	ACCESS:          0  HIT:          0  MISS:          0
BTB BRANCH_RETURN	ACCESS:          0  HIT:          0  MISS:          0
BTB BRANCH_OTHER ACCESS:          0  HIT:          0  MISS:          0

L2C TOTAL     ACCESS:    4980139  HIT:    4106969  MISS:     873170  HIT %:     82.467  MISS %:     17.533   MPKI: 17.4634
L2C LOAD      ACCESS:      14896  HIT:       1039  MISS:      13857  HIT %:    6.97503  MISS %:     93.025   MPKI: 0.27714
L2C DATA LOAD MPKI: 0.27714
L2C INSTRUCTION LOAD MPKI: 0
L2C PREFETCH  ACCESS:    4691731  HIT:    3834245  MISS:     857486  HIT %:    81.7235  MISS %:    18.2765   MPKI: 17.1497
L2C DATA PREFETCH MPKI: 17.1497
L2C INSTRUCTION PREFETCH MPKI: 0
L2C WRITEBACK ACCESS:     259866  HIT:     259785  MISS:         81  HIT %:    99.9688  MISS %:  0.0311699   MPKI: 0.00162
L2C LOAD TRANSLATION ACCESS:      13646  HIT:      11900  MISS:       1746  HIT %:     87.205  MISS %:     12.795   MPKI: 0.03492
L2C PREFETCH  REQUESTED:    4448541  ISSUED:    4432443  USEFUL:        575  USELESS:     856910
L2C USEFUL LOAD PREFETCHES:        575 PREFETCH ISSUED TO LOWER LEVEL:     857497  ACCURACY: 0.0670556
L2C TIMELY PREFETCHES:        575 LATE PREFETCHES: 9 DROPPED PREFETCHES: 0
L2C PREFETCHES SAME FILL-ORIGIN LEVEL: 756540 DIFFERENT FILL-ORIGIN LEVEL: 0
L2C AVERAGE MISS LATENCY: 216.852 cycles
L2C RQ	ACCESS:      28542	FORWARD:          0	MERGED:          0	TO_CACHE:      28542
L2C WQ	ACCESS:     259866	FORWARD:          0	MERGED:          0	TO_CACHE:     259866
L2C PQ	ACCESS:    5294408	FORWARD:          0	MERGED:     578642	TO_CACHE:    4715766

L2C Instructions Evicting Data 0
L2C Translations Evicting Data 1746
L2C Data Evicting Data 869594
L2C Instructions Evicting Instructions 0
L2C Translations Evicting Instructions 0
L2C Data Evicting Instructions 0
L2C Instructions Evicting Translations 0
L2C Translations Evicting Translations 0
L2C Data Evicting Translations 1749
L2C Dense regions hint from L2: 0
PSCL5 TOTAL     ACCESS:      13646  HIT:      13646  MISS:          0  HIT %:        100  MISS %:          0   MPKI: 0
PSCL5 LOAD TRANSLATION ACCESS:      13646  HIT:      13646  MISS:          0  HIT %:        100  MISS %:          0   MPKI: 0
PSCL5 PREFETCH  REQUESTED:          0  ISSUED:          0  USEFUL:          0  USELESS:          0
PSCL5 USEFUL LOAD PREFETCHES:          0 PREFETCH ISSUED TO LOWER LEVEL:          0  ACCURACY: -nan
PSCL5 TIMELY PREFETCHES:          0 LATE PREFETCHES: 0 DROPPED PREFETCHES: 0
PSCL5 PREFETCHES SAME FILL-ORIGIN LEVEL: 0 DIFFERENT FILL-ORIGIN LEVEL: 0

PSCL4 TOTAL     ACCESS:      13646  HIT:      13646  MISS:          0  HIT %:        100  MISS %:          0   MPKI: 0
PSCL4 LOAD TRANSLATION ACCESS:      13646  HIT:      13646  MISS:          0  HIT %:        100  MISS %:          0   MPKI: 0
PSCL4 PREFETCH  REQUESTED:          0  ISSUED:          0  USEFUL:          0  USELESS:          0
PSCL4 USEFUL LOAD PREFETCHES:          0 PREFETCH ISSUED TO LOWER LEVEL:          0  ACCURACY: -nan
PSCL4 TIMELY PREFETCHES:          0 LATE PREFETCHES: 0 DROPPED PREFETCHES: 0
PSCL4 PREFETCHES SAME FILL-ORIGIN LEVEL: 0 DIFFERENT FILL-ORIGIN LEVEL: 0

PSCL3 TOTAL     ACCESS:      13646  HIT:      13646  MISS:          0  HIT %:        100  MISS %:          0   MPKI: 0
PSCL3 LOAD TRANSLATION ACCESS:      13646  HIT:      13646  MISS:          0  HIT %:        100  MISS %:          0   MPKI: 0
PSCL3 PREFETCH  REQUESTED:          0  ISSUED:          0  USEFUL:          0  USELESS:          0
PSCL3 USEFUL LOAD PREFETCHES:          0 PREFETCH ISSUED TO LOWER LEVEL:          0  ACCURACY: -nan
PSCL3 TIMELY PREFETCHES:          0 LATE PREFETCHES: 0 DROPPED PREFETCHES: 0
PSCL3 PREFETCHES SAME FILL-ORIGIN LEVEL: 0 DIFFERENT FILL-ORIGIN LEVEL: 0

PSCL2 TOTAL     ACCESS:      13646  HIT:      13625  MISS:         21  HIT %:    99.8461  MISS %:   0.153891   MPKI: 0.00042
PSCL2 LOAD TRANSLATION ACCESS:      13646  HIT:      13625  MISS:         21  HIT %:    99.8461  MISS %:   0.153891   MPKI: 0.00042
PSCL2 PREFETCH  REQUESTED:          0  ISSUED:          0  USEFUL:          0  USELESS:          0
PSCL2 USEFUL LOAD PREFETCHES:          0 PREFETCH ISSUED TO LOWER LEVEL:          0  ACCURACY: -nan
PSCL2 TIMELY PREFETCHES:          0 LATE PREFETCHES: 0 DROPPED PREFETCHES: 0
PSCL2 PREFETCHES SAME FILL-ORIGIN LEVEL: 0 DIFFERENT FILL-ORIGIN LEVEL: 0

LLC TOTAL     ACCESS:    1132844  HIT:     260051  MISS:     872793  HIT %:    22.9556  MISS %:    77.0444   MPKI: 17.4559
LLC LOAD      ACCESS:      13848  HIT:         40  MISS:      13808  HIT %:    0.28885  MISS %:    99.7111   MPKI: 0.27616
LLC PREFETCH  ACCESS:     857495  HIT:        302  MISS:     857193  HIT %:  0.0352189  MISS %:    99.9648   MPKI: 17.1439
LLC WRITEBACK ACCESS:     259755  HIT:     259709  MISS:         46  HIT %:    99.9823  MISS %:   0.017709   MPKI: 0.00092
LLC LOAD TRANSLATION ACCESS:       1746  HIT:          0  MISS:       1746  HIT %:          0  MISS %:        100   MPKI: 0.03492
LLC PREFETCH  REQUESTED:          0  ISSUED:          0  USEFUL:          5  USELESS:     857189
LLC USEFUL LOAD PREFETCHES:          5 PREFETCH ISSUED TO LOWER LEVEL:     857195  ACCURACY: 0.000583298
LLC TIMELY PREFETCHES:          5 LATE PREFETCHES: 0 DROPPED PREFETCHES: 0
LLC PREFETCHES SAME FILL-ORIGIN LEVEL: 0 DIFFERENT FILL-ORIGIN LEVEL: 0
LLC AVERAGE MISS LATENCY: 185.864 cycles
LLC RQ	ACCESS:      15594	FORWARD:          0	MERGED:          0	TO_CACHE:      15594
LLC WQ	ACCESS:     259755	FORWARD:          0	MERGED:          0	TO_CACHE:     259755
LLC PQ	ACCESS:     857497	FORWARD:          0	MERGED:          0	TO_CACHE:     857497

LLC Dense regions hint to LLC: 0

RAW hits: 89051
Loads Generated: 17686394
Loads sent to L1D: 17597355
Stores Generated: 2458593
Stores sent to L1D: 2458592
Major fault: 0 Minor fault: 13917
Allocated PAGES: 13917

stream: 
stream:times selected: 2069663
stream:pref_filled: 1021858
stream:pref_useful: 955723
stream:pref_late: 151
stream:misses: 75
stream:misses_by_poll: 0

CS: 
CS:times selected: 1801707
CS:pref_filled: 5311
CS:pref_useful: 5002
CS:pref_late: 0
CS:misses: 19853
CS:misses_by_poll: 14

CPLX: 
CPLX:times selected: 267844
CPLX:pref_filled: 7087
CPLX:pref_useful: 4468
CPLX:pref_late: 0
CPLX:misses: 190
CPLX:misses_by_poll: 9

NL_L1: 
NL:times selected: 6
NL:pref_filled: 5
NL:pref_useful: 5
NL:pref_late: 0
NL:misses: 0
NL:misses_by_poll: 0

total selections: 4139220
total_filled: 861815
total_useful: 804315
total_late: 157
total_polluted: 23
total_misses_after_warmup: 18063
conflicts: 10767
Degree Incremented Times: 71749
Degree Decremented Times: 0

L1 IP Table Write Accesses: 11792768
L1 IP Table Read Accesses: 11782001
L1 RST Write Accesses: 1722877
L1 RST Read Accesses: 3445754
L1 CSPT Write Accesses: 1722877
L1 CSPT Read Accesses: 2397725
L1 RR Filter Tag Write Accesses: 6735640
L1 RR Filter Tag Read Accesses: 405116408
L1 IP Table Tag Write Accesses: 12196030
L1 IP Table Tag Read Accesses: 12196030
L1 RST Tag Write Accesses: 0
L1 RST Tag Read Accesses: 15917249
L1 RR Filter Write Accesses: 0
L1 RR Filter Read Accesses: 14788009
test: 46980
L2 IP Table Read Accesses: 1597232
L2 IP Table Write Accesses: 1582455
L2 IP Table Tag Read Accesses: 798673
L2 IP Table Tag Write Accesses: 798673

DRAM Statistics
 CHANNEL 0
 RQ ROW_BUFFER_HIT:     273607  ROW_BUFFER_MISS:     599140
 DBUS_CONGESTED:        593
 WQ ROW_BUFFER_HIT:     116761  ROW_BUFFER_MISS:     143531  FULL:          0

 AVG_CONGESTED_CYCLE: 4
 All warmup complete: 2
Channel 0 Bank busy for read cycles: 0
Channel 0 Bank busy for write cycles: 0
Channel 0
Rank 0
0banks busy for read cycles: 591440
0banks busy for write cycles: 2846
1banks busy for read cycles: 13734566
1banks busy for write cycles: 406370
2banks busy for read cycles: 12093815
2banks busy for write cycles: 346395
3banks busy for read cycles: 6699122
3banks busy for write cycles: 302967
4banks busy for read cycles: 2843918
4banks busy for write cycles: 287469
5banks busy for read cycles: 1251834
5banks busy for write cycles: 301861
6banks busy for read cycles: 894197
6banks busy for write cycles: 352306
7banks busy for read cycles: 2175997
7banks busy for write cycles: 767880
8banks busy for read cycles: 989842
8banks busy for write cycles: 6782717

CPU 0 Branch Prediction Accuracy: 99.186% MPKI: 0.0562 Average ROB Occupancy at Mispredict: 56.7552
Branch types
NOT_BRANCH: 49654460 99.3089%
BRANCH_DIRECT_JUMP: 0 0%
BRANCH_INDIRECT: 0 0%
BRANCH_CONDITIONAL: 345199 0.690398%
BRANCH_DIRECT_CALL: 0 0%
BRANCH_INDIRECT_CALL: 0 0%
BRANCH_RETURN: 0 0%
BRANCH_OTHER: 0 0%

@sumon_overall_L1D    804315       149     57530    861815  12897350  13184233
@Sumon_Early_by_class_L1D    796072      4109      4134         0
@Sumon_Late_by_class_L1D       143         0         0         0

@Sumon_Early_by_cycle_L1D       369      1548      8934      2698      9471    142136    521161    112024      3952      1175       847         0
@Sumon_Late_by_cycle_L1D        82        50        14         2         1         0         0         0         0         0         0         0
@Sumon_Early_stream_L1D       361      1543      8924      2679      9462    141471    520633    110994         5         0         0         0
@Sumon_Early_CS_L1D         4         2         9        15         8       606       164         2      1394      1058       847         0
@Sumon_Early_CPLX_L1D         4         3         1         4         1        59       364      1028      2553       117         0         0
@Sumon_Late_stream_L1D        76        50        14         2         1         0         0         0         0         0         0         0
@Sumon_Late_CS_L1D         0         0         0         0         0         0         0         0         0         0         0         0
@Sumon_Late_CPLX_L1D         0         0         0         0         0         0         0         0         0         0         0         0
@sumon_overall_L2C       575         9    856910    857486   4432443   4448541
@Sumon_Early_by_class_L2C       555         4         0         0
@Sumon_Late_by_class_L2C         6         0         0         0

@Sumon_Early_by_cycle_L2C        22        22        44        13        41        91       285        52         0         1         0         4
@Sumon_Late_by_cycle_L2C         5         3         0         1         0         0         0         0         0         0         0         0
@Sumon_Early_stream_L2C        10        18        44        13        41        88       285        52         0         0         0         4
@Sumon_Early_CS_L2C         0         0         0         0         0         3         0         0         0         1         0         0
@Sumon_Early_CPLX_L2C         0         0         0         0         0         0         0         0         0         0         0         0
@Sumon_Late_stream_L2C         5         1         0         0         0         0         0         0         0         0         0         0
@Sumon_Late_CS_L2C         0         0         0         0         0         0         0         0         0         0         0         0
@Sumon_Late_CPLX_L2C         0         0         0         0         0         0         0         0         0         0         0         0
DRAM PAGES: 1048576
Allocated PAGES: 13917
