
*** ChampSim Multicore Out-of-Order Simulator ***

Warmup Instructions: 50000000
Simulation Instructions: 50000000
Number of CPUs: 1
LLC sets: 2048
LLC ways: 16
Off-chip DRAM Size: 4096 MB Channels: 1 Width: 64-bit Data Rate: 6400 MT/s
CPU 0 runs ../../biswa/SPEC2017Traces/605.mcf_s-1644B.champsimtrace.xz
.xz
CPU 0 Bimodal branch predictor
BTB has LRU replacement policy
ITLB has LRU replacement policy
DTLB has LRU replacement policy
STLB has LRU replacement policy
L1I has LRU replacement policy
IP Table Entries: 256
L1D has LRU replacement policy
IP_Table L2 entries: 256
Initialize DRRIP state for L2C
LLC has LRU replacement policy
Heartbeat CPU 0 instructions: 10000003 cycles: 5101827 heartbeat IPC: 1.96008 cumulative IPC: 1.96008 (Simulation time: 0 hr 5 min 33 sec) 
Heartbeat CPU 0 instructions: 20000001 cycles: 10201095 heartbeat IPC: 1.96107 cumulative IPC: 1.96057 (Simulation time: 0 hr 11 min 24 sec) 
Heartbeat CPU 0 instructions: 30000002 cycles: 15299450 heartbeat IPC: 1.96142 cumulative IPC: 1.96085 (Simulation time: 0 hr 17 min 8 sec) 
Heartbeat CPU 0 instructions: 40000000 cycles: 20386392 heartbeat IPC: 1.96582 cumulative IPC: 1.96209 (Simulation time: 0 hr 22 min 19 sec) 
Heartbeat CPU 0 instructions: 50000003 cycles: 25468757 heartbeat IPC: 1.96759 cumulative IPC: 1.96319 (Simulation time: 0 hr 26 min 55 sec) 

Warmup complete CPU 0 instructions: 50000003 cycles: 25468757 (Simulation time: 0 hr 26 min 55 sec) 

Heartbeat CPU 0 instructions: 60000001 cycles: 90737371 heartbeat IPC: 0.153213 cumulative IPC: 0.153213 (Simulation time: 0 hr 31 min 0 sec) 
Heartbeat CPU 0 instructions: 70000003 cycles: 156005055 heartbeat IPC: 0.153215 cumulative IPC: 0.153214 (Simulation time: 0 hr 32 min 46 sec) 
Heartbeat CPU 0 instructions: 80000000 cycles: 221958093 heartbeat IPC: 0.151623 cumulative IPC: 0.15268 (Simulation time: 0 hr 33 min 59 sec) 
Heartbeat CPU 0 instructions: 90000000 cycles: 287860505 heartbeat IPC: 0.15174 cumulative IPC: 0.152444 (Simulation time: 0 hr 35 min 4 sec) 
Heartbeat CPU 0 instructions: 100000003 cycles: 354815738 heartbeat IPC: 0.149354 cumulative IPC: 0.151816 (Simulation time: 0 hr 36 min 10 sec) 
Finished CPU 0 instructions: 50000000 cycles: 329346981 cumulative IPC: 0.151816 (Simulation time: 0 hr 36 min 10 sec) 

ChampSim completed all CPUs

Region of Interest Statistics

CPU 0 cumulative IPC: 0.151816 instructions: 50000000 cycles: 329346981
ITLB TOTAL     ACCESS:    8890281  HIT:    8890281  MISS:          0  HIT %:        100  MISS %:          0   MPKI: 0
ITLB LOAD TRANSLATION ACCESS:    8890281  HIT:    8890281  MISS:          0  HIT %:        100  MISS %:          0   MPKI: 0
ITLB PREFETCH  REQUESTED:          0  ISSUED:          0  USEFUL:          0  USELESS:          0
ITLB USEFUL LOAD PREFETCHES:          0 PREFETCH ISSUED TO LOWER LEVEL:          0  ACCURACY: -nan
ITLB TIMELY PREFETCHES:          0 LATE PREFETCHES: 0 DROPPED PREFETCHES: 0
ITLB PREFETCHES SAME FILL-ORIGIN LEVEL: 0 DIFFERENT FILL-ORIGIN LEVEL: 0
ITLB AVERAGE MISS LATENCY: -nan cycles
ITLB RQ	ACCESS:    8926288	FORWARD:          0	MERGED:      36008	TO_CACHE:    8890280

Revised Interactions: positive negative neutral
ITLB_interactions 0 0 0 -nan -nan -nan
ITLB_positive -nan -nan -nan
ITLB_negative -nan -nan -nan
ITLB_neutral -nan -nan -nan
DTLB TOTAL     ACCESS:   20421523  HIT:   18970618  MISS:    1450905  HIT %:    92.8952  MISS %:    7.10478   MPKI: 29.0181
DTLB LOAD TRANSLATION ACCESS:   20421523  HIT:   18970618  MISS:    1450905  HIT %:    92.8952  MISS %:    7.10478   MPKI: 29.0181
DTLB PREFETCH  REQUESTED:          0  ISSUED:          0  USEFUL:          0  USELESS:          0
DTLB USEFUL LOAD PREFETCHES:          0 PREFETCH ISSUED TO LOWER LEVEL:          0  ACCURACY: -nan
DTLB TIMELY PREFETCHES:          0 LATE PREFETCHES: 0 DROPPED PREFETCHES: 0
DTLB PREFETCHES SAME FILL-ORIGIN LEVEL: 0 DIFFERENT FILL-ORIGIN LEVEL: 0
DTLB AVERAGE MISS LATENCY: 1004.03 cycles
DTLB RQ	ACCESS:   32117190	FORWARD:          0	MERGED:    3881981	TO_CACHE:   28235209

Revised Interactions: positive negative neutral
DTLB_interactions 0 0 0 -nan -nan -nan
DTLB_positive -nan -nan -nan
DTLB_negative -nan -nan -nan
DTLB_neutral -nan -nan -nan
STLB TOTAL     ACCESS:    3602444  HIT:    2398108  MISS:    1204336  HIT %:    66.5689  MISS %:    33.4311   MPKI: 24.0867
STLB LOAD TRANSLATION ACCESS:    1450905  HIT:     246569  MISS:    1204336  HIT %:    16.9942  MISS %:    83.0058   MPKI: 24.0867
STLB TRANSLATION FROM L1D PREFETCHER ACCESS:    2151539  HIT:    2151539  MISS:          0  HIT %:        100  MISS %:          0   MPKI: 0
STLB PREFETCH  REQUESTED:          0  ISSUED:          0  USEFUL:          0  USELESS:          0
STLB USEFUL LOAD PREFETCHES:          0 PREFETCH ISSUED TO LOWER LEVEL:          0  ACCURACY: -nan
STLB TIMELY PREFETCHES:          0 LATE PREFETCHES: 0 DROPPED PREFETCHES: 0
STLB PREFETCHES SAME FILL-ORIGIN LEVEL: 0 DIFFERENT FILL-ORIGIN LEVEL: 0
STLB AVERAGE MISS LATENCY: 1198.68 cycles
STLB RQ	ACCESS:    4093311	FORWARD:          0	MERGED:     490865	TO_CACHE:    3602446

Revised Interactions: positive negative neutral
STLB_interactions 0 0 0 -nan -nan -nan
STLB_positive -nan -nan -nan
STLB_negative -nan -nan -nan
STLB_neutral -nan -nan -nan
STLB Hit, L1D data hit: 0
STLB Hit, L2C data hit: 0
STLB Hit, LLC data hit: 0
STLB Hit, LLC data miss: 0
STLB STLB hints to L2: 0
L1D TOTAL     ACCESS:   26940406  HIT:   21334413  MISS:    5605993  HIT %:    79.1911  MISS %:    20.8089   MPKI: 112.12
L1D LOAD      ACCESS:   14533650  HIT:   13392492  MISS:    1141158  HIT %:    92.1482  MISS %:    7.85183   MPKI: 22.8232
L1D RFO       ACCESS:    9830932  HIT:    7638369  MISS:    2192563  HIT %:    77.6973  MISS %:    22.3027   MPKI: 43.8513
L1D PREFETCH  ACCESS:    2575824  HIT:     303552  MISS:    2272272  HIT %:    11.7847  MISS %:    88.2153   MPKI: 45.4454
L1D PREFETCH  REQUESTED:    5284813  ISSUED:    5284813  USEFUL:    1169919  USELESS:    1102338
L1D USEFUL LOAD PREFETCHES:    1169919 PREFETCH ISSUED TO LOWER LEVEL:    2278193  ACCURACY: 51.3529
L1D TIMELY PREFETCHES:    1169919 LATE PREFETCHES: 83621 DROPPED PREFETCHES: 0
L1D PREFETCHES SAME FILL-ORIGIN LEVEL: 2278193 DIFFERENT FILL-ORIGIN LEVEL: 0
L1D AVERAGE MISS LATENCY: 193989 cycles
L1D RQ	ACCESS:   19382932	FORWARD:          0	MERGED:    4436652	TO_CACHE:   14625057
L1D WQ	ACCESS:   17493168	FORWARD:     321228	MERGED:       1035	TO_CACHE:   17492133
L1D PQ	ACCESS:    2642409	FORWARD:          0	MERGED:          0	TO_CACHE:    2642404

Revised Interactions: positive negative neutral
L1D_interactions 0 0 0 -nan -nan -nan
L1D_positive -nan -nan -nan
L1D_negative -nan -nan -nan
L1D_neutral -nan -nan -nan
L1D UNIQUE REGIONS ACCESSED: 0
L1D REGIONS CONFLICTS: 0
L1D Cross Page Prefetch Requests: 0
L1D Same Page Prefetch Requests: 5254085
L1D ROI Sum of L1D PQ occupancy: 34361802
L1D PREFETCHES PUSHED FROM L2C: 0
L1I TOTAL     ACCESS:    8926289  HIT:    8926289  MISS:          0  HIT %:        100  MISS %:          0   MPKI: 0
L1I LOAD      ACCESS:    8926289  HIT:    8926289  MISS:          0  HIT %:        100  MISS %:          0   MPKI: 0
L1I PREFETCH  REQUESTED:          0  ISSUED:          0  USEFUL:          0  USELESS:          0
L1I USEFUL LOAD PREFETCHES:          0 PREFETCH ISSUED TO LOWER LEVEL:          0  ACCURACY: -nan
L1I TIMELY PREFETCHES:          0 LATE PREFETCHES: 0 DROPPED PREFETCHES: 0
L1I PREFETCHES SAME FILL-ORIGIN LEVEL: 0 DIFFERENT FILL-ORIGIN LEVEL: 0
L1I AVERAGE MISS LATENCY: -nan cycles
L1I RQ	ACCESS:   14859446	FORWARD:          0	MERGED:    5933158	TO_CACHE:    8926288

Revised Interactions: positive negative neutral
L1I_interactions 0 0 0 -nan -nan -nan
L1I_positive -nan -nan -nan
L1I_negative -nan -nan -nan
L1I_neutral -nan -nan -nan
BTB TOTAL     ACCESS:    5120014  HIT:    5120009  MISS:          5  HIT %:    99.9999  MISS %: 9.7656e-05   MPKI: 0.0001
BTB BRANCH_DIRECT_JUMP	ACCESS:     746772  HIT:     746771  MISS:          1
BTB BRANCH_INDIRECT	ACCESS:          0  HIT:          0  MISS:          0
BTB BRANCH_CONDITIONAL	ACCESS:    2186606  HIT:    2186604  MISS:          2
BTB BRANCH_DIRECT_CALL	ACCESS:    1093318  HIT:    1093317  MISS:          1
BTB BRANCH_INDIRECT_CALL	ACCESS:          0  HIT:          0  MISS:          0
BTB BRANCH_RETURN	ACCESS:    1093318  HIT:    1093317  MISS:          1
BTB BRANCH_OTHER ACCESS:          0  HIT:          0  MISS:          0

L2C TOTAL     ACCESS:   12915137  HIT:    6659385  MISS:    6255752  HIT %:    51.5626  MISS %:    48.4374   MPKI: 125.115
L2C LOAD      ACCESS:    1141154  HIT:     251913  MISS:     889241  HIT %:    22.0753  MISS %:    77.9247   MPKI: 17.7848
L2C DATA LOAD MPKI: 17.7848
L2C INSTRUCTION LOAD MPKI: 0
L2C RFO       ACCESS:    2186642  HIT:         69  MISS:    2186573  HIT %: 0.00315552  MISS %:    99.9968   MPKI: 43.7315
L2C PREFETCH  ACCESS:    3331047  HIT:    1271237  MISS:    2059810  HIT %:    38.1633  MISS %:    61.8367   MPKI: 41.1962
L2C DATA PREFETCH MPKI: 41.1962
L2C INSTRUCTION PREFETCH MPKI: 0
L2C WRITEBACK ACCESS:    4506148  HIT:    4423249  MISS:      82899  HIT %:    98.1603  MISS %:    1.83969   MPKI: 1.65798
L2C LOAD TRANSLATION ACCESS:    1750146  HIT:     712917  MISS:    1037229  HIT %:    40.7347  MISS %:    59.2653   MPKI: 20.7446
L2C PREFETCH  REQUESTED:    2350977  ISSUED:    2350977  USEFUL:      51980  USELESS:    2007963
L2C USEFUL LOAD PREFETCHES:      51980 PREFETCH ISSUED TO LOWER LEVEL:    2062143  ACCURACY: 2.52068
L2C TIMELY PREFETCHES:      51980 LATE PREFETCHES: 2333 DROPPED PREFETCHES: 0
L2C PREFETCHES SAME FILL-ORIGIN LEVEL: 986723 DIFFERENT FILL-ORIGIN LEVEL: 0
L2C AVERAGE MISS LATENCY: 287.858 cycles
L2C RQ	ACCESS:    5077947	FORWARD:          0	MERGED:          0	TO_CACHE:    5077943
L2C WQ	ACCESS:    4506153	FORWARD:         15	MERGED:          0	TO_CACHE:    4506153
L2C PQ	ACCESS:    4629170	FORWARD:          0	MERGED:     631186	TO_CACHE:    3997973

Revised Interactions: positive negative neutral
L2C_interactions 28999 2038155 1309291 0.858862 60.3639 38.7772
L2C_positive 22.0318 52.1328 25.8354
L2C_negative 0.0568161 32.5619 67.3812
L2C_neutral 99.9937 0.00542278 0.000840149
L2C Instructions Evicting Data 0
L2C Translations Evicting Data 863696
L2C Data Evicting Data 4280538
L2C Instructions Evicting Instructions 0
L2C Translations Evicting Instructions 0
L2C Data Evicting Instructions 0
L2C Instructions Evicting Translations 0
L2C Translations Evicting Translations 173533
L2C Data Evicting Translations 855086
L2C Dense regions hint from L2: 0
PSCL5 TOTAL     ACCESS:    1204337  HIT:    1204337  MISS:          0  HIT %:        100  MISS %:          0   MPKI: 0
PSCL5 LOAD TRANSLATION ACCESS:    1204337  HIT:    1204337  MISS:          0  HIT %:        100  MISS %:          0   MPKI: 0
PSCL5 PREFETCH  REQUESTED:          0  ISSUED:          0  USEFUL:          0  USELESS:          0
PSCL5 USEFUL LOAD PREFETCHES:          0 PREFETCH ISSUED TO LOWER LEVEL:          0  ACCURACY: -nan
PSCL5 TIMELY PREFETCHES:          0 LATE PREFETCHES: 0 DROPPED PREFETCHES: 0
PSCL5 PREFETCHES SAME FILL-ORIGIN LEVEL: 0 DIFFERENT FILL-ORIGIN LEVEL: 0

Revised Interactions: positive negative neutral
PSCL5_interactions 0 0 0 -nan -nan -nan
PSCL5_positive -nan -nan -nan
PSCL5_negative -nan -nan -nan
PSCL5_neutral -nan -nan -nan
PSCL4 TOTAL     ACCESS:    1204337  HIT:    1204337  MISS:          0  HIT %:        100  MISS %:          0   MPKI: 0
PSCL4 LOAD TRANSLATION ACCESS:    1204337  HIT:    1204337  MISS:          0  HIT %:        100  MISS %:          0   MPKI: 0
PSCL4 PREFETCH  REQUESTED:          0  ISSUED:          0  USEFUL:          0  USELESS:          0
PSCL4 USEFUL LOAD PREFETCHES:          0 PREFETCH ISSUED TO LOWER LEVEL:          0  ACCURACY: -nan
PSCL4 TIMELY PREFETCHES:          0 LATE PREFETCHES: 0 DROPPED PREFETCHES: 0
PSCL4 PREFETCHES SAME FILL-ORIGIN LEVEL: 0 DIFFERENT FILL-ORIGIN LEVEL: 0

Revised Interactions: positive negative neutral
PSCL4_interactions 0 0 0 -nan -nan -nan
PSCL4_positive -nan -nan -nan
PSCL4_negative -nan -nan -nan
PSCL4_neutral -nan -nan -nan
PSCL3 TOTAL     ACCESS:    1204337  HIT:    1204337  MISS:          0  HIT %:        100  MISS %:          0   MPKI: 0
PSCL3 LOAD TRANSLATION ACCESS:    1204337  HIT:    1204337  MISS:          0  HIT %:        100  MISS %:          0   MPKI: 0
PSCL3 PREFETCH  REQUESTED:          0  ISSUED:          0  USEFUL:          0  USELESS:          0
PSCL3 USEFUL LOAD PREFETCHES:          0 PREFETCH ISSUED TO LOWER LEVEL:          0  ACCURACY: -nan
PSCL3 TIMELY PREFETCHES:          0 LATE PREFETCHES: 0 DROPPED PREFETCHES: 0
PSCL3 PREFETCHES SAME FILL-ORIGIN LEVEL: 0 DIFFERENT FILL-ORIGIN LEVEL: 0

Revised Interactions: positive negative neutral
PSCL3_interactions 0 0 0 -nan -nan -nan
PSCL3_positive -nan -nan -nan
PSCL3_negative -nan -nan -nan
PSCL3_neutral -nan -nan -nan
PSCL2 TOTAL     ACCESS:    1204337  HIT:     658490  MISS:     545847  HIT %:    54.6766  MISS %:    45.3234   MPKI: 10.9169
PSCL2 LOAD TRANSLATION ACCESS:    1204337  HIT:     658490  MISS:     545847  HIT %:    54.6766  MISS %:    45.3234   MPKI: 10.9169
PSCL2 PREFETCH  REQUESTED:          0  ISSUED:          0  USEFUL:          0  USELESS:          0
PSCL2 USEFUL LOAD PREFETCHES:          0 PREFETCH ISSUED TO LOWER LEVEL:          0  ACCURACY: -nan
PSCL2 TIMELY PREFETCHES:          0 LATE PREFETCHES: 0 DROPPED PREFETCHES: 0
PSCL2 PREFETCHES SAME FILL-ORIGIN LEVEL: 0 DIFFERENT FILL-ORIGIN LEVEL: 0

Revised Interactions: positive negative neutral
PSCL2_interactions 0 0 0 -nan -nan -nan
PSCL2_positive -nan -nan -nan
PSCL2_negative -nan -nan -nan
PSCL2_neutral -nan -nan -nan
LLC TOTAL     ACCESS:   10473504  HIT:    5508487  MISS:    4965017  HIT %:    52.5945  MISS %:    47.4055   MPKI: 99.3003
LLC LOAD      ACCESS:     886898  HIT:     527347  MISS:     359551  HIT %:    59.4597  MISS %:    40.5403   MPKI: 7.19102
LLC RFO       ACCESS:    2186573  HIT:       6315  MISS:    2180258  HIT %:   0.288808  MISS %:    99.7112   MPKI: 43.6052
LLC PREFETCH  ACCESS:    2062141  HIT:     479193  MISS:    1582948  HIT %:    23.2376  MISS %:    76.7624   MPKI: 31.659
LLC WRITEBACK ACCESS:    4300663  HIT:    4288436  MISS:      12227  HIT %:    99.7157  MISS %:   0.284305   MPKI: 0.24454
LLC LOAD TRANSLATION ACCESS:    1037229  HIT:     207196  MISS:     830033  HIT %:    19.9759  MISS %:    80.0241   MPKI: 16.6007
LLC PREFETCH  REQUESTED:          0  ISSUED:          0  USEFUL:      33881  USELESS:    1549021
LLC USEFUL LOAD PREFETCHES:      33881 PREFETCH ISSUED TO LOWER LEVEL:    1582948  ACCURACY: 2.14037
LLC TIMELY PREFETCHES:      33881 LATE PREFETCHES: 0 DROPPED PREFETCHES: 0
LLC PREFETCHES SAME FILL-ORIGIN LEVEL: 0 DIFFERENT FILL-ORIGIN LEVEL: 0
LLC AVERAGE MISS LATENCY: 325.139 cycles
LLC RQ	ACCESS:    4110711	FORWARD:          0	MERGED:          0	TO_CACHE:    4110701
LLC WQ	ACCESS:    4300668	FORWARD:         12	MERGED:          0	TO_CACHE:    4300668
LLC PQ	ACCESS:    2062143	FORWARD:          0	MERGED:          0	TO_CACHE:    2062141

Revised Interactions: positive negative neutral
LLC_interactions 15 1583068 1043043 0.000571184 60.2815 39.7179
LLC_positive 80 20 0
LLC_negative 0.0138339 31.6959 68.2903
LLC_neutral 100 0 0
LLC Dense regions hint to LLC: 0

RAW hits: 1390193
Loads Generated: 20773125
Loads sent to L1D: 19382932
Stores Generated: 17493169
Stores sent to L1D: 17493168
Major fault: 0 Minor fault: 247527
Allocated PAGES: 247527

stream: 
stream:times selected: 11283852
stream:pref_filled: 2048809
stream:pref_useful: 32398
stream:pref_late: 3605
stream:misses: 305732
stream:misses_by_poll: 0

CS: 
CS:times selected: 6249101
CS:pref_filled: 2324167
CS:pref_useful: 2318797
CS:pref_late: 57155
CS:misses: 165162
CS:misses_by_poll: 7594

CPLX: 
CPLX:times selected: 5012857
CPLX:pref_filled: 188975
CPLX:pref_useful: 32123
CPLX:pref_late: 457
CPLX:misses: 1849230
CPLX:misses_by_poll: 362

NL_L1: 
NL:times selected: 33246
NL:pref_filled: 7881
NL:pref_useful: 291
NL:pref_late: 9
NL:misses: 11038
NL:misses_by_poll: 0

total selections: 22579056
total_filled: 2272272
total_useful: 1169919
total_late: 61226
total_polluted: 7956
total_misses_after_warmup: 1232565
conflicts: 0
Degree Incremented Times: 117594
Degree Decremented Times: 355860

L1 IP Table Write Accesses: 14625057
L1 IP Table Read Accesses: 14625057
L1 RST Write Accesses: 5659796
L1 RST Read Accesses: 11319592
L1 CSPT Write Accesses: 5659796
L1 CSPT Read Accesses: 8261661
L1 RR Filter Tag Write Accesses: 2642409
L1 RR Filter Tag Read Accesses: 407977278
L1 IP Table Tag Write Accesses: 14625057
L1 IP Table Tag Read Accesses: 14625057
L1 RST Tag Write Accesses: 0
L1 RST Tag Read Accesses: 50865496
L1 RR Filter Write Accesses: 0
L1 RR Filter Read Accesses: 15258904
test: 2102496
L2 IP Table Read Accesses: 6047214
L2 IP Table Write Accesses: 4906060
L2 IP Table Tag Read Accesses: 3023607
L2 IP Table Tag Write Accesses: 3023607

DRAM Statistics
 CHANNEL 0
 RQ ROW_BUFFER_HIT:      49327  ROW_BUFFER_MISS:    4902398
 DBUS_CONGESTED:         12
 WQ ROW_BUFFER_HIT:     622284  ROW_BUFFER_MISS:    3154043  FULL:          0

 AVG_CONGESTED_CYCLE: 4
 All warmup complete: 2
Channel 0 Bank busy for read cycles: 0
Channel 0 Bank busy for write cycles: 0
Channel 0
Rank 0
0banks busy for read cycles: 352113
0banks busy for write cycles: 0
1banks busy for read cycles: 25970711
1banks busy for write cycles: 553380
2banks busy for read cycles: 35899648
2banks busy for write cycles: 553199
3banks busy for read cycles: 56019173
3banks busy for write cycles: 565289
4banks busy for read cycles: 40357177
4banks busy for write cycles: 1181751
5banks busy for read cycles: 30782624
5banks busy for write cycles: 2445281
6banks busy for read cycles: 19278836
6banks busy for write cycles: 5424388
7banks busy for read cycles: 9349461
7banks busy for write cycles: 21089318
8banks busy for read cycles: 2914375
8banks busy for write cycles: 76610258

CPU 0 Branch Prediction Accuracy: 94.9741% MPKI: 6.2455 Average ROB Occupancy at Mispredict: 106.769
Branch types
NOT_BRANCH: 43786403 87.5728%
BRANCH_DIRECT_JUMP: 746772 1.49354%
BRANCH_INDIRECT: 0 0%
BRANCH_CONDITIONAL: 3279955 6.55991%
BRANCH_DIRECT_CALL: 1093318 2.18664%
BRANCH_INDIRECT_CALL: 0 0%
BRANCH_RETURN: 1093318 2.18664%
BRANCH_OTHER: 0 0%

@sumon_overall_L1D   1169919     83621     83621   1102338   2272272   5284813   5284813
@Sumon_Early_by_class_L1D     15945   1127480     26450         5
@Sumon_Late_by_class_L1D      2534     54952       400         5

@Sumon_Early_by_cycle_L1D    103203    181115    299589    203449    138559    225603     13700      1373       755      1540       301       732
@Sumon_Late_by_cycle_L1D      3861      5976      7060     12700     27029      1265
@Sumon_Early_stream_L1D      2681      3800      2445      1183       686      1497       407       425       625      1337       258       601
@Sumon_Early_CS_L1D    100008    176366    294857    199098    134013    211976     10942       214         1         4         1         0
@Sumon_Early_CPLX_L1D       503       940      2283      3167      3858     12128      2349       732       128       192        40       130
@Sumon_Late_stream_L1D        67      1057       148       259       878       125
@Sumon_Late_CS_L1D      3770      4835      6860     12383     25975      1129
@Sumon_Late_CPLX_L1D        24        82        52        57       174        11
@sumon_overall_L2C     51980      2333         0   2007963   2059810   2350977   2350977
@Sumon_Early_by_class_L2C     25932     23042      2922         0
@Sumon_Late_by_class_L2C         0      2266         0         0

@Sumon_Early_by_cycle_L2C      1524      3069      5048      3932      3089      5686       329         9         2       415      2384     26493
@Sumon_Late_by_cycle_L2C        67       112       187       599      1232       136
@Sumon_Early_stream_L2C         0         0         0         0         0         0         0         0         0       353      2095     23484
@Sumon_Early_CS_L2C      1524      3069      5048      3932      3089      5686       329         9         2         7        25       322
@Sumon_Early_CPLX_L2C         0         0         0         0         0         0         0         0         0        53       259      2610
@Sumon_Late_stream_L2C         0         0         0         0         0         0
@Sumon_Late_CS_L2C         0       112       187       599      1232       136
@Sumon_Late_CPLX_L2C         0         0         0         0         0         0
DRAM PAGES: 1048576
Allocated PAGES: 247527
