
*** ChampSim Multicore Out-of-Order Simulator ***

Warmup Instructions: 50000000
Simulation Instructions: 50000000
Number of CPUs: 1
LLC sets: 2048
LLC ways: 16
Off-chip DRAM Size: 4096 MB Channels: 1 Width: 64-bit Data Rate: 6400 MT/s
CPU 0 runs ../../biswa/SPEC2017Traces/619.lbm_s-4268B.champsimtrace.xz
.xz
CPU 0 Bimodal branch predictor
BTB has LRU replacement policy
ITLB has LRU replacement policy
DTLB has LRU replacement policy
STLB has LRU replacement policy
L1I has LRU replacement policy
IP Table Entries: 256
L1D has LRU replacement policy
IP_Table L2 entries: 256
Initialize DRRIP state for L2C
LLC has LRU replacement policy
Heartbeat CPU 0 instructions: 10000000 cycles: 2904655 heartbeat IPC: 3.44275 cumulative IPC: 3.44275 (Simulation time: 0 hr 3 min 8 sec) 
Heartbeat CPU 0 instructions: 20000001 cycles: 5807632 heartbeat IPC: 3.44474 cumulative IPC: 3.44374 (Simulation time: 0 hr 6 min 13 sec) 
Heartbeat CPU 0 instructions: 30000000 cycles: 8706897 heartbeat IPC: 3.44915 cumulative IPC: 3.44554 (Simulation time: 0 hr 9 min 40 sec) 
Heartbeat CPU 0 instructions: 40000000 cycles: 11612408 heartbeat IPC: 3.44174 cumulative IPC: 3.44459 (Simulation time: 0 hr 13 min 6 sec) 
Heartbeat CPU 0 instructions: 50000002 cycles: 14518758 heartbeat IPC: 3.44074 cumulative IPC: 3.44382 (Simulation time: 0 hr 16 min 25 sec) 

Warmup complete CPU 0 instructions: 50000002 cycles: 14518758 (Simulation time: 0 hr 16 min 25 sec) 

Heartbeat CPU 0 instructions: 60000000 cycles: 34200390 heartbeat IPC: 0.508088 cumulative IPC: 0.508088 (Simulation time: 0 hr 22 min 38 sec) 
Heartbeat CPU 0 instructions: 70000000 cycles: 53515744 heartbeat IPC: 0.517723 cumulative IPC: 0.51286 (Simulation time: 0 hr 28 min 3 sec) 
Heartbeat CPU 0 instructions: 80000000 cycles: 72629186 heartbeat IPC: 0.523192 cumulative IPC: 0.516258 (Simulation time: 0 hr 30 min 57 sec) 
Heartbeat CPU 0 instructions: 90000001 cycles: 91937756 heartbeat IPC: 0.517905 cumulative IPC: 0.516669 (Simulation time: 0 hr 32 min 33 sec) 
Heartbeat CPU 0 instructions: 100000000 cycles: 110888465 heartbeat IPC: 0.527685 cumulative IPC: 0.518835 (Simulation time: 0 hr 33 min 31 sec) 
Finished CPU 0 instructions: 50000002 cycles: 96369708 cumulative IPC: 0.518835 (Simulation time: 0 hr 33 min 31 sec) 

ChampSim completed all CPUs

Region of Interest Statistics

CPU 0 cumulative IPC: 0.518835 instructions: 50000002 cycles: 96369708
ITLB TOTAL     ACCESS:    6758171  HIT:    6758171  MISS:          0  HIT %:        100  MISS %:          0   MPKI: 0
ITLB LOAD TRANSLATION ACCESS:    6758171  HIT:    6758171  MISS:          0  HIT %:        100  MISS %:          0   MPKI: 0
ITLB PREFETCH  REQUESTED:          0  ISSUED:          0  USEFUL:          0  USELESS:          0
ITLB USEFUL LOAD PREFETCHES:          0 PREFETCH ISSUED TO LOWER LEVEL:          0  ACCURACY: -nan
ITLB TIMELY PREFETCHES:          0 LATE PREFETCHES: 0 DROPPED PREFETCHES: 0
ITLB PREFETCHES SAME FILL-ORIGIN LEVEL: 0 DIFFERENT FILL-ORIGIN LEVEL: 0
ITLB AVERAGE MISS LATENCY: -nan cycles
ITLB RQ	ACCESS:    8702816	FORWARD:          0	MERGED:    1944645	TO_CACHE:    6758171

Revised Interactions: positive negative neutral
ITLB_interactions 0 0 0 -nan -nan -nan
ITLB_positive -nan -nan -nan
ITLB_negative -nan -nan -nan
ITLB_neutral -nan -nan -nan
DTLB TOTAL     ACCESS:    9043224  HIT:    8974798  MISS:      68426  HIT %:    99.2433  MISS %:   0.756655   MPKI: 1.36852
DTLB LOAD TRANSLATION ACCESS:    9043224  HIT:    8974798  MISS:      68426  HIT %:    99.2433  MISS %:   0.756655   MPKI: 1.36852
DTLB PREFETCH  REQUESTED:          0  ISSUED:          0  USEFUL:          0  USELESS:          0
DTLB USEFUL LOAD PREFETCHES:          0 PREFETCH ISSUED TO LOWER LEVEL:          0  ACCURACY: -nan
DTLB TIMELY PREFETCHES:          0 LATE PREFETCHES: 0 DROPPED PREFETCHES: 0
DTLB PREFETCHES SAME FILL-ORIGIN LEVEL: 0 DIFFERENT FILL-ORIGIN LEVEL: 0
DTLB AVERAGE MISS LATENCY: 112.021 cycles
DTLB RQ	ACCESS:   12484472	FORWARD:          0	MERGED:    3416076	TO_CACHE:    9068396

Revised Interactions: positive negative neutral
DTLB_interactions 0 0 0 -nan -nan -nan
DTLB_positive -nan -nan -nan
DTLB_negative -nan -nan -nan
DTLB_neutral -nan -nan -nan
STLB TOTAL     ACCESS:     428070  HIT:     390942  MISS:      37128  HIT %:    91.3267  MISS %:    8.67335   MPKI: 0.74256
STLB LOAD TRANSLATION ACCESS:      68426  HIT:      31298  MISS:      37128  HIT %:    45.7399  MISS %:    54.2601   MPKI: 0.74256
STLB TRANSLATION FROM L1D PREFETCHER ACCESS:     359644  HIT:     359644  MISS:          0  HIT %:        100  MISS %:          0   MPKI: 0
STLB PREFETCH  REQUESTED:          0  ISSUED:          0  USEFUL:          0  USELESS:          0
STLB USEFUL LOAD PREFETCHES:          0 PREFETCH ISSUED TO LOWER LEVEL:          0  ACCURACY: -nan
STLB TIMELY PREFETCHES:          0 LATE PREFETCHES: 0 DROPPED PREFETCHES: 0
STLB PREFETCHES SAME FILL-ORIGIN LEVEL: 0 DIFFERENT FILL-ORIGIN LEVEL: 0
STLB AVERAGE MISS LATENCY: 187.06 cycles
STLB RQ	ACCESS:     675249	FORWARD:          0	MERGED:     247179	TO_CACHE:     428070

Revised Interactions: positive negative neutral
STLB_interactions 0 0 0 -nan -nan -nan
STLB_positive -nan -nan -nan
STLB_negative -nan -nan -nan
STLB_neutral -nan -nan -nan
STLB Hit, L1D data hit: 0
STLB Hit, L2C data hit: 0
STLB Hit, LLC data hit: 0
STLB Hit, LLC data miss: 0
STLB STLB hints to L2: 0
L1D TOTAL     ACCESS:   12848489  HIT:    8928710  MISS:    3919779  HIT %:    69.4923  MISS %:    30.5077   MPKI: 78.3956
L1D LOAD      ACCESS:    4273464  HIT:    4098734  MISS:     174730  HIT %:    95.9113  MISS %:    4.08872   MPKI: 3.4946
L1D RFO       ACCESS:    8043673  HIT:    4717901  MISS:    3325772  HIT %:    58.6536  MISS %:    41.3464   MPKI: 66.5154
L1D PREFETCH  ACCESS:     531352  HIT:     112075  MISS:     419277  HIT %:    21.0924  MISS %:    78.9076   MPKI: 8.38554
L1D PREFETCH  REQUESTED:    1241043  ISSUED:    1213653  USEFUL:     395950  USELESS:      23325
L1D USEFUL LOAD PREFETCHES:     395950 PREFETCH ISSUED TO LOWER LEVEL:     419479  ACCURACY: 94.3909
L1D TIMELY PREFETCHES:     395950 LATE PREFETCHES: 70560 DROPPED PREFETCHES: 0
L1D PREFETCHES SAME FILL-ORIGIN LEVEL: 419479 DIFFERENT FILL-ORIGIN LEVEL: 0
L1D AVERAGE MISS LATENCY: 359.96 cycles
L1D RQ	ACCESS:   12539184	FORWARD:          0	MERGED:    5829044	TO_CACHE:    4376839
L1D WQ	ACCESS:    9208484	FORWARD:    2333301	MERGED:    1100851	TO_CACHE:    8107633
L1D PQ	ACCESS:     606830	FORWARD:          0	MERGED:          7	TO_CACHE:     606823

Revised Interactions: positive negative neutral
L1D_interactions 0 0 0 -nan -nan -nan
L1D_positive -nan -nan -nan
L1D_negative -nan -nan -nan
L1D_neutral -nan -nan -nan
L1D UNIQUE REGIONS ACCESSED: 0
L1D REGIONS CONFLICTS: 0
L1D Cross Page Prefetch Requests: 0
L1D Same Page Prefetch Requests: 1239281
L1D ROI Sum of L1D PQ occupancy: 552035409
L1D PREFETCHES PUSHED FROM L2C: 0
L1I TOTAL     ACCESS:    8702815  HIT:    8702815  MISS:          0  HIT %:        100  MISS %:          0   MPKI: 0
L1I LOAD      ACCESS:    8702815  HIT:    8702815  MISS:          0  HIT %:        100  MISS %:          0   MPKI: 0
L1I PREFETCH  REQUESTED:          0  ISSUED:          0  USEFUL:          0  USELESS:          0
L1I USEFUL LOAD PREFETCHES:          0 PREFETCH ISSUED TO LOWER LEVEL:          0  ACCURACY: -nan
L1I TIMELY PREFETCHES:          0 LATE PREFETCHES: 0 DROPPED PREFETCHES: 0
L1I PREFETCHES SAME FILL-ORIGIN LEVEL: 0 DIFFERENT FILL-ORIGIN LEVEL: 0
L1I AVERAGE MISS LATENCY: -nan cycles
L1I RQ	ACCESS:   12547968	FORWARD:          0	MERGED:    3845152	TO_CACHE:    8702816

Revised Interactions: positive negative neutral
L1I_interactions 0 0 0 -nan -nan -nan
L1I_positive -nan -nan -nan
L1I_negative -nan -nan -nan
L1I_neutral -nan -nan -nan
BTB TOTAL     ACCESS:     896753  HIT:     896747  MISS:          6  HIT %:    99.9993  MISS %: 0.000669081   MPKI: 0.00012
BTB BRANCH_DIRECT_JUMP	ACCESS:     145480  HIT:     145479  MISS:          1
BTB BRANCH_INDIRECT	ACCESS:          0  HIT:          0  MISS:          0
BTB BRANCH_CONDITIONAL	ACCESS:     751273  HIT:     751268  MISS:          5
BTB BRANCH_DIRECT_CALL	ACCESS:          0  HIT:          0  MISS:          0
BTB BRANCH_INDIRECT_CALL	ACCESS:          0  HIT:          0  MISS:          0
BTB BRANCH_RETURN	ACCESS:          0  HIT:          0  MISS:          0
BTB BRANCH_OTHER ACCESS:          0  HIT:          0  MISS:          0

L2C TOTAL     ACCESS:    7917758  HIT:    5336081  MISS:    2581677  HIT %:    67.3938  MISS %:    32.6062   MPKI: 51.6335
L2C LOAD      ACCESS:     174730  HIT:      92737  MISS:      81993  HIT %:    53.0745  MISS %:    46.9255   MPKI: 1.63986
L2C DATA LOAD MPKI: 1.63986
L2C INSTRUCTION LOAD MPKI: 0
L2C RFO       ACCESS:    3325767  HIT:    1437773  MISS:    1887994  HIT %:    43.2313  MISS %:    56.7687   MPKI: 37.7599
L2C PREFETCH  ACCESS:    1054359  HIT:     541440  MISS:     512919  HIT %:    51.3525  MISS %:    48.6475   MPKI: 10.2584
L2C DATA PREFETCH MPKI: 10.2584
L2C INSTRUCTION PREFETCH MPKI: 0
L2C WRITEBACK ACCESS:    3325772  HIT:    3231871  MISS:      93901  HIT %:    97.1766  MISS %:    2.82343   MPKI: 1.87802
L2C LOAD TRANSLATION ACCESS:      37130  HIT:      32260  MISS:       4870  HIT %:    86.8839  MISS %:    13.1161   MPKI: 0.0974
L2C PREFETCH  REQUESTED:     971214  ISSUED:     971184  USEFUL:      92696  USELESS:     420453
L2C USEFUL LOAD PREFETCHES:      92696 PREFETCH ISSUED TO LOWER LEVEL:     527367  ACCURACY: 17.5771
L2C TIMELY PREFETCHES:      92696 LATE PREFETCHES: 14440 DROPPED PREFETCHES: 0
L2C PREFETCHES SAME FILL-ORIGIN LEVEL: 350647 DIFFERENT FILL-ORIGIN LEVEL: 0
L2C AVERAGE MISS LATENCY: 595.3 cycles
L2C RQ	ACCESS:    3537642	FORWARD:          0	MERGED:          0	TO_CACHE:    3537637
L2C WQ	ACCESS:    3325774	FORWARD:          5	MERGED:          0	TO_CACHE:    3325774
L2C PQ	ACCESS:    1390467	FORWARD:          0	MERGED:     176904	TO_CACHE:    1213563

Revised Interactions: positive negative neutral
L2C_interactions 92598 420148 277268 11.7211 53.1823 35.0966
L2C_positive 0.908227 73.6981 25.3936
L2C_negative 0.0471263 26.5337 73.4191
L2C_neutral 99.5838 0.416204 0
L2C Instructions Evicting Data 0
L2C Translations Evicting Data 4866
L2C Data Evicting Data 2478280
L2C Instructions Evicting Instructions 0
L2C Translations Evicting Instructions 0
L2C Data Evicting Instructions 0
L2C Instructions Evicting Translations 0
L2C Translations Evicting Translations 4
L2C Data Evicting Translations 4626
L2C Dense regions hint from L2: 0
PSCL5 TOTAL     ACCESS:      37128  HIT:      37128  MISS:          0  HIT %:        100  MISS %:          0   MPKI: 0
PSCL5 LOAD TRANSLATION ACCESS:      37128  HIT:      37128  MISS:          0  HIT %:        100  MISS %:          0   MPKI: 0
PSCL5 PREFETCH  REQUESTED:          0  ISSUED:          0  USEFUL:          0  USELESS:          0
PSCL5 USEFUL LOAD PREFETCHES:          0 PREFETCH ISSUED TO LOWER LEVEL:          0  ACCURACY: -nan
PSCL5 TIMELY PREFETCHES:          0 LATE PREFETCHES: 0 DROPPED PREFETCHES: 0
PSCL5 PREFETCHES SAME FILL-ORIGIN LEVEL: 0 DIFFERENT FILL-ORIGIN LEVEL: 0

Revised Interactions: positive negative neutral
PSCL5_interactions 0 0 0 -nan -nan -nan
PSCL5_positive -nan -nan -nan
PSCL5_negative -nan -nan -nan
PSCL5_neutral -nan -nan -nan
PSCL4 TOTAL     ACCESS:      37128  HIT:      37128  MISS:          0  HIT %:        100  MISS %:          0   MPKI: 0
PSCL4 LOAD TRANSLATION ACCESS:      37128  HIT:      37128  MISS:          0  HIT %:        100  MISS %:          0   MPKI: 0
PSCL4 PREFETCH  REQUESTED:          0  ISSUED:          0  USEFUL:          0  USELESS:          0
PSCL4 USEFUL LOAD PREFETCHES:          0 PREFETCH ISSUED TO LOWER LEVEL:          0  ACCURACY: -nan
PSCL4 TIMELY PREFETCHES:          0 LATE PREFETCHES: 0 DROPPED PREFETCHES: 0
PSCL4 PREFETCHES SAME FILL-ORIGIN LEVEL: 0 DIFFERENT FILL-ORIGIN LEVEL: 0

Revised Interactions: positive negative neutral
PSCL4_interactions 0 0 0 -nan -nan -nan
PSCL4_positive -nan -nan -nan
PSCL4_negative -nan -nan -nan
PSCL4_neutral -nan -nan -nan
PSCL3 TOTAL     ACCESS:      37128  HIT:      37128  MISS:          0  HIT %:        100  MISS %:          0   MPKI: 0
PSCL3 LOAD TRANSLATION ACCESS:      37128  HIT:      37128  MISS:          0  HIT %:        100  MISS %:          0   MPKI: 0
PSCL3 PREFETCH  REQUESTED:          0  ISSUED:          0  USEFUL:          0  USELESS:          0
PSCL3 USEFUL LOAD PREFETCHES:          0 PREFETCH ISSUED TO LOWER LEVEL:          0  ACCURACY: -nan
PSCL3 TIMELY PREFETCHES:          0 LATE PREFETCHES: 0 DROPPED PREFETCHES: 0
PSCL3 PREFETCHES SAME FILL-ORIGIN LEVEL: 0 DIFFERENT FILL-ORIGIN LEVEL: 0

Revised Interactions: positive negative neutral
PSCL3_interactions 0 0 0 -nan -nan -nan
PSCL3_positive -nan -nan -nan
PSCL3_negative -nan -nan -nan
PSCL3_neutral -nan -nan -nan
PSCL2 TOTAL     ACCESS:      37128  HIT:      37090  MISS:         38  HIT %:    99.8977  MISS %:   0.102349   MPKI: 0.00076
PSCL2 LOAD TRANSLATION ACCESS:      37128  HIT:      37090  MISS:         38  HIT %:    99.8977  MISS %:   0.102349   MPKI: 0.00076
PSCL2 PREFETCH  REQUESTED:          0  ISSUED:          0  USEFUL:          0  USELESS:          0
PSCL2 USEFUL LOAD PREFETCHES:          0 PREFETCH ISSUED TO LOWER LEVEL:          0  ACCURACY: -nan
PSCL2 TIMELY PREFETCHES:          0 LATE PREFETCHES: 0 DROPPED PREFETCHES: 0
PSCL2 PREFETCHES SAME FILL-ORIGIN LEVEL: 0 DIFFERENT FILL-ORIGIN LEVEL: 0

Revised Interactions: positive negative neutral
PSCL2_interactions 0 0 0 -nan -nan -nan
PSCL2_positive -nan -nan -nan
PSCL2_negative -nan -nan -nan
PSCL2_neutral -nan -nan -nan
LLC TOTAL     ACCESS:    4376606  HIT:    1996296  MISS:    2380310  HIT %:    45.6129  MISS %:    54.3871   MPKI: 47.6062
LLC LOAD      ACCESS:      67553  HIT:        122  MISS:      67431  HIT %:   0.180599  MISS %:    99.8194   MPKI: 1.34862
LLC RFO       ACCESS:    1887900  HIT:     106354  MISS:    1781546  HIT %:    5.63346  MISS %:    94.3665   MPKI: 35.6309
LLC PREFETCH  ACCESS:     527361  HIT:        863  MISS:     526498  HIT %:   0.163645  MISS %:    99.8364   MPKI: 10.53
LLC WRITEBACK ACCESS:    1888922  HIT:    1888777  MISS:        145  HIT %:    99.9923  MISS %: 0.00767634   MPKI: 0.0029
LLC LOAD TRANSLATION ACCESS:       4870  HIT:        180  MISS:       4690  HIT %:     3.6961  MISS %:    96.3039   MPKI: 0.0938
LLC PREFETCH  REQUESTED:          0  ISSUED:          0  USEFUL:         86  USELESS:     525590
LLC USEFUL LOAD PREFETCHES:         86 PREFETCH ISSUED TO LOWER LEVEL:     526504  ACCURACY: 0.0163342
LLC TIMELY PREFETCHES:         86 LATE PREFETCHES: 0 DROPPED PREFETCHES: 0
LLC PREFETCHES SAME FILL-ORIGIN LEVEL: 0 DIFFERENT FILL-ORIGIN LEVEL: 0
LLC AVERAGE MISS LATENCY: 616.599 cycles
LLC RQ	ACCESS:    1960425	FORWARD:          0	MERGED:          0	TO_CACHE:    1960331
LLC WQ	ACCESS:    1888922	FORWARD:         94	MERGED:          0	TO_CACHE:    1888922
LLC PQ	ACCESS:     527367	FORWARD:          0	MERGED:          0	TO_CACHE:     527367

Revised Interactions: positive negative neutral
LLC_interactions 110 526312 407644 0.0117765 56.3463 43.6419
LLC_positive 21.8182 60.9091 17.2727
LLC_negative 0 22.3843 77.6157
LLC_neutral 100 0 0
LLC Dense regions hint to LLC: 0

RAW hits: 497248
Loads Generated: 13036432
Loads sent to L1D: 12539184
Stores Generated: 9208469
Stores sent to L1D: 9208484
Major fault: 0 Minor fault: 40146
Allocated PAGES: 40146

stream: 
stream:times selected: 3829658
stream:pref_filled: 194547
stream:pref_useful: 180921
stream:pref_late: 22545
stream:misses: 46687
stream:misses_by_poll: 0

CS: 
CS:times selected: 579432
CS:pref_filled: 360692
CS:pref_useful: 353332
CS:pref_late: 9963
CS:misses: 74522
CS:misses_by_poll: 1470

CPLX: 
CPLX:times selected: 3245600
CPLX:pref_filled: 432773
CPLX:pref_useful: 423437
CPLX:pref_late: 17390
CPLX:misses: 180452
CPLX:misses_by_poll: 1285

NL_L1: 
NL:times selected: 2416
NL:pref_filled: 183
NL:pref_useful: 153
NL:pref_late: 56
NL:misses: 243
NL:misses_by_poll: 0

total selections: 7657106
total_filled: 419277
total_useful: 395950
total_late: 49955
total_polluted: 2755
total_misses_after_warmup: 278105
conflicts: 72276
Degree Incremented Times: 115183
Degree Decremented Times: 0

L1 IP Table Write Accesses: 3923431
L1 IP Table Read Accesses: 3851155
L1 RST Write Accesses: 1856678
L1 RST Read Accesses: 3713356
L1 CSPT Write Accesses: 1856678
L1 CSPT Read Accesses: 5925927
L1 RR Filter Tag Write Accesses: 634220
L1 RR Filter Tag Read Accesses: 304906565
L1 IP Table Tag Write Accesses: 4376839
L1 IP Table Tag Read Accesses: 4376839
L1 RST Tag Write Accesses: 0
L1 RST Tag Read Accesses: 16674774
L1 RR Filter Write Accesses: 0
L1 RR Filter Read Accesses: 13705896
test: 612088
L2 IP Table Read Accesses: 1048127
L2 IP Table Write Accesses: 873458
L2 IP Table Tag Read Accesses: 524170
L2 IP Table Tag Write Accesses: 524170

DRAM Statistics
 CHANNEL 0
 RQ ROW_BUFFER_HIT:     232789  ROW_BUFFER_MISS:    2147378
 DBUS_CONGESTED:          0
 WQ ROW_BUFFER_HIT:     393686  ROW_BUFFER_MISS:    1389527  FULL:          0

 AVG_CONGESTED_CYCLE: -
 All warmup complete: 2
Channel 0 Bank busy for read cycles: 0
Channel 0 Bank busy for write cycles: 0
Channel 0
Rank 0
0banks busy for read cycles: 7840
0banks busy for write cycles: 0
1banks busy for read cycles: 567526
1banks busy for write cycles: 173470
2banks busy for read cycles: 900899
2banks busy for write cycles: 173467
3banks busy for read cycles: 1577644
3banks busy for write cycles: 173467
4banks busy for read cycles: 2546222
4banks busy for write cycles: 173463
5banks busy for read cycles: 7102438
5banks busy for write cycles: 173461
6banks busy for read cycles: 11201332
6banks busy for write cycles: 173665
7banks busy for read cycles: 16106407
7banks busy for write cycles: 1961395
8banks busy for read cycles: 19214076
8banks busy for write cycles: 34142937

CPU 0 Branch Prediction Accuracy: 94.9836% MPKI: 0.8997 Average ROB Occupancy at Mispredict: 160.188
Branch types
NOT_BRANCH: 49103187 98.2064%
BRANCH_DIRECT_JUMP: 145480 0.29096%
BRANCH_INDIRECT: 0 0%
BRANCH_CONDITIONAL: 751273 1.50255%
BRANCH_DIRECT_CALL: 0 0%
BRANCH_INDIRECT_CALL: 0 0%
BRANCH_RETURN: 0 0%
BRANCH_OTHER: 0 0%

@sumon_overall_L1D    395950     70560     70560     23325    419277   1213653   1241043
@Sumon_Early_by_class_L1D     62190    181331    152389        30
@Sumon_Late_by_class_L1D     11920      9504     15975        30

@Sumon_Early_by_cycle_L1D     34275     29965     32660     56652     34268    157394     44509      6217        10         0         0         0
@Sumon_Late_by_cycle_L1D      2975      2418      1960      2782     20106      7189
@Sumon_Early_stream_L1D      9869      9514      8271     14577      6851     13075        33         0         0         0         0         0
@Sumon_Early_CS_L1D     12211     10647     12390     23971     14033     89197     18846        36         0         0         0         0
@Sumon_Early_CPLX_L1D     12189      9795     11992     18096     13383     55114     25629      6181        10         0         0         0
@Sumon_Late_stream_L1D       805       845       539       880      6421      2430
@Sumon_Late_CS_L1D       973       662       478       602      4350      2439
@Sumon_Late_CPLX_L1D      1197       910       943      1300      9314      2311
@sumon_overall_L2C     92696     14440         0    420453    512919    971184    971214
@Sumon_Early_by_class_L2C     30988     61694         0         0
@Sumon_Late_by_class_L2C     10909      3455         0         0

@Sumon_Early_by_cycle_L2C      7410      4252      8626     12218      6206     41048     12915        21         0         0         0         0
@Sumon_Late_by_cycle_L2C        74       346      1154       439      7833      4594
@Sumon_Early_stream_L2C      5863      3360      6056      7697      2925      5075        12         0         0         0         0         0
@Sumon_Early_CS_L2C      1547       892      2570      4520      3281     35968     12896        20         0         0         0         0
@Sumon_Early_CPLX_L2C         0         0         0         0         0         0         0         0         0         0         0         0
@Sumon_Late_stream_L2C         0       266       852       363      6233      3195
@Sumon_Late_CS_L2C         0        80       302        76      1599      1398
@Sumon_Late_CPLX_L2C         0         0         0         0         0         0
DRAM PAGES: 1048576
Allocated PAGES: 40146
