
*** ChampSim Multicore Out-of-Order Simulator ***

Warmup Instructions: 50000000
Simulation Instructions: 50000000
Number of CPUs: 1
LLC sets: 2048
LLC ways: 16
Off-chip DRAM Size: 4096 MB Channels: 1 Width: 64-bit Data Rate: 6400 MT/s
CPU 0 runs ../../biswa/SPEC2017Traces/619.lbm_s-2677B.champsimtrace.xz
.xz
CPU 0 Bimodal branch predictor
BTB has LRU replacement policy
ITLB has LRU replacement policy
DTLB has LRU replacement policy
STLB has LRU replacement policy
L1I has LRU replacement policy
IP Table Entries: 256
L1D has LRU replacement policy
IP_Table L2 entries: 256
Initialize DRRIP state for L2C
LLC has LRU replacement policy
Heartbeat CPU 0 instructions: 10000001 cycles: 2910539 heartbeat IPC: 3.43579 cumulative IPC: 3.43579 (Simulation time: 0 hr 3 min 11 sec) 
Heartbeat CPU 0 instructions: 20000001 cycles: 5811064 heartbeat IPC: 3.44765 cumulative IPC: 3.44171 (Simulation time: 0 hr 6 min 22 sec) 
Heartbeat CPU 0 instructions: 30000000 cycles: 8718571 heartbeat IPC: 3.43937 cumulative IPC: 3.44093 (Simulation time: 0 hr 9 min 39 sec) 
Heartbeat CPU 0 instructions: 40000000 cycles: 11623384 heartbeat IPC: 3.44256 cumulative IPC: 3.44134 (Simulation time: 0 hr 12 min 54 sec) 
Heartbeat CPU 0 instructions: 50000001 cycles: 14536546 heartbeat IPC: 3.4327 cumulative IPC: 3.43961 (Simulation time: 0 hr 16 min 5 sec) 

Warmup complete CPU 0 instructions: 50000001 cycles: 14536546 (Simulation time: 0 hr 16 min 5 sec) 

Heartbeat CPU 0 instructions: 60000002 cycles: 33872387 heartbeat IPC: 0.517174 cumulative IPC: 0.517174 (Simulation time: 0 hr 22 min 14 sec) 
Heartbeat CPU 0 instructions: 70000002 cycles: 52955692 heartbeat IPC: 0.524018 cumulative IPC: 0.520574 (Simulation time: 0 hr 27 min 40 sec) 
Heartbeat CPU 0 instructions: 80000002 cycles: 72242709 heartbeat IPC: 0.518484 cumulative IPC: 0.519875 (Simulation time: 0 hr 30 min 49 sec) 
Heartbeat CPU 0 instructions: 90000000 cycles: 91866606 heartbeat IPC: 0.509583 cumulative IPC: 0.517263 (Simulation time: 0 hr 32 min 17 sec) 
Heartbeat CPU 0 instructions: 100000002 cycles: 111331137 heartbeat IPC: 0.513755 cumulative IPC: 0.516558 (Simulation time: 0 hr 33 min 20 sec) 
Finished CPU 0 instructions: 50000001 cycles: 96794591 cumulative IPC: 0.516558 (Simulation time: 0 hr 33 min 20 sec) 

ChampSim completed all CPUs

Region of Interest Statistics

CPU 0 cumulative IPC: 0.516558 instructions: 50000001 cycles: 96794591
ITLB TOTAL     ACCESS:    6758099  HIT:    6758099  MISS:          0  HIT %:        100  MISS %:          0   MPKI: 0
ITLB LOAD TRANSLATION ACCESS:    6758099  HIT:    6758099  MISS:          0  HIT %:        100  MISS %:          0   MPKI: 0
ITLB PREFETCH  REQUESTED:          0  ISSUED:          0  USEFUL:          0  USELESS:          0
ITLB USEFUL LOAD PREFETCHES:          0 PREFETCH ISSUED TO LOWER LEVEL:          0  ACCURACY: -nan
ITLB TIMELY PREFETCHES:          0 LATE PREFETCHES: 0 DROPPED PREFETCHES: 0
ITLB PREFETCHES SAME FILL-ORIGIN LEVEL: 0 DIFFERENT FILL-ORIGIN LEVEL: 0
ITLB AVERAGE MISS LATENCY: -nan cycles
ITLB RQ	ACCESS:    8702365	FORWARD:          0	MERGED:    1944266	TO_CACHE:    6758099

Revised Interactions: positive negative neutral
ITLB_interactions 0 0 0 -nan -nan -nan
ITLB_positive -nan -nan -nan
ITLB_negative -nan -nan -nan
ITLB_neutral -nan -nan -nan
DTLB TOTAL     ACCESS:    9097073  HIT:    9028416  MISS:      68657  HIT %:    99.2453  MISS %:   0.754715   MPKI: 1.37314
DTLB LOAD TRANSLATION ACCESS:    9097073  HIT:    9028416  MISS:      68657  HIT %:    99.2453  MISS %:   0.754715   MPKI: 1.37314
DTLB PREFETCH  REQUESTED:          0  ISSUED:          0  USEFUL:          0  USELESS:          0
DTLB USEFUL LOAD PREFETCHES:          0 PREFETCH ISSUED TO LOWER LEVEL:          0  ACCURACY: -nan
DTLB TIMELY PREFETCHES:          0 LATE PREFETCHES: 0 DROPPED PREFETCHES: 0
DTLB PREFETCHES SAME FILL-ORIGIN LEVEL: 0 DIFFERENT FILL-ORIGIN LEVEL: 0
DTLB AVERAGE MISS LATENCY: 112.715 cycles
DTLB RQ	ACCESS:   12509210	FORWARD:          0	MERGED:    3387039	TO_CACHE:    9122171

Revised Interactions: positive negative neutral
DTLB_interactions 0 0 0 -nan -nan -nan
DTLB_positive -nan -nan -nan
DTLB_negative -nan -nan -nan
DTLB_neutral -nan -nan -nan
STLB TOTAL     ACCESS:     429804  HIT:     392548  MISS:      37256  HIT %:    91.3319  MISS %:    8.66814   MPKI: 0.74512
STLB LOAD TRANSLATION ACCESS:      68657  HIT:      31401  MISS:      37256  HIT %:    45.7361  MISS %:    54.2639   MPKI: 0.74512
STLB TRANSLATION FROM L1D PREFETCHER ACCESS:     361147  HIT:     361147  MISS:          0  HIT %:        100  MISS %:          0   MPKI: 0
STLB PREFETCH  REQUESTED:          0  ISSUED:          0  USEFUL:          0  USELESS:          0
STLB USEFUL LOAD PREFETCHES:          0 PREFETCH ISSUED TO LOWER LEVEL:          0  ACCURACY: -nan
STLB TIMELY PREFETCHES:          0 LATE PREFETCHES: 0 DROPPED PREFETCHES: 0
STLB PREFETCHES SAME FILL-ORIGIN LEVEL: 0 DIFFERENT FILL-ORIGIN LEVEL: 0
STLB AVERAGE MISS LATENCY: 189.155 cycles
STLB RQ	ACCESS:     678068	FORWARD:          0	MERGED:     248264	TO_CACHE:     429804

Revised Interactions: positive negative neutral
STLB_interactions 0 0 0 -nan -nan -nan
STLB_positive -nan -nan -nan
STLB_negative -nan -nan -nan
STLB_neutral -nan -nan -nan
STLB Hit, L1D data hit: 0
STLB Hit, L2C data hit: 0
STLB Hit, LLC data hit: 0
STLB Hit, LLC data miss: 0
STLB STLB hints to L2: 0
L1D TOTAL     ACCESS:   12873748  HIT:    8940666  MISS:    3933082  HIT %:    69.4488  MISS %:    30.5512   MPKI: 78.6616
L1D LOAD      ACCESS:    4297230  HIT:    4120713  MISS:     176517  HIT %:    95.8923  MISS %:    4.10769   MPKI: 3.53034
L1D RFO       ACCESS:    8043284  HIT:    4706162  MISS:    3337122  HIT %:    58.5105  MISS %:    41.4895   MPKI: 66.7424
L1D PREFETCH  ACCESS:     533234  HIT:     113791  MISS:     419443  HIT %:    21.3398  MISS %:    78.6602   MPKI: 8.38886
L1D PREFETCH  REQUESTED:    1246623  ISSUED:    1218828  USEFUL:     395447  USELESS:      23994
L1D USEFUL LOAD PREFETCHES:     395447 PREFETCH ISSUED TO LOWER LEVEL:     419650  ACCURACY: 94.2326
L1D TIMELY PREFETCHES:     395447 LATE PREFETCHES: 71516 DROPPED PREFETCHES: 0
L1D PREFETCHES SAME FILL-ORIGIN LEVEL: 419650 DIFFERENT FILL-ORIGIN LEVEL: 0
L1D AVERAGE MISS LATENCY: 361.294 cycles
L1D RQ	ACCESS:   12545360	FORWARD:          0	MERGED:    5780972	TO_CACHE:    4402009
L1D WQ	ACCESS:    9219579	FORWARD:    2362379	MERGED:    1112378	TO_CACHE:    8107201
L1D PQ	ACCESS:     609417	FORWARD:          0	MERGED:          6	TO_CACHE:     609411

Revised Interactions: positive negative neutral
L1D_interactions 0 0 0 -nan -nan -nan
L1D_positive -nan -nan -nan
L1D_negative -nan -nan -nan
L1D_neutral -nan -nan -nan
L1D UNIQUE REGIONS ACCESSED: 0
L1D REGIONS CONFLICTS: 0
L1D Cross Page Prefetch Requests: 0
L1D Same Page Prefetch Requests: 1244424
L1D ROI Sum of L1D PQ occupancy: 558165114
L1D PREFETCHES PUSHED FROM L2C: 0
L1I TOTAL     ACCESS:    8702363  HIT:    8702363  MISS:          0  HIT %:        100  MISS %:          0   MPKI: 0
L1I LOAD      ACCESS:    8702363  HIT:    8702363  MISS:          0  HIT %:        100  MISS %:          0   MPKI: 0
L1I PREFETCH  REQUESTED:          0  ISSUED:          0  USEFUL:          0  USELESS:          0
L1I USEFUL LOAD PREFETCHES:          0 PREFETCH ISSUED TO LOWER LEVEL:          0  ACCURACY: -nan
L1I TIMELY PREFETCHES:          0 LATE PREFETCHES: 0 DROPPED PREFETCHES: 0
L1I PREFETCHES SAME FILL-ORIGIN LEVEL: 0 DIFFERENT FILL-ORIGIN LEVEL: 0
L1I AVERAGE MISS LATENCY: -nan cycles
L1I RQ	ACCESS:   12548629	FORWARD:          0	MERGED:    3846264	TO_CACHE:    8702365

Revised Interactions: positive negative neutral
L1I_interactions 0 0 0 -nan -nan -nan
L1I_positive -nan -nan -nan
L1I_negative -nan -nan -nan
L1I_neutral -nan -nan -nan
BTB TOTAL     ACCESS:     899010  HIT:     899004  MISS:          6  HIT %:    99.9993  MISS %: 0.000667401   MPKI: 0.00012
BTB BRANCH_DIRECT_JUMP	ACCESS:     146381  HIT:     146380  MISS:          1
BTB BRANCH_INDIRECT	ACCESS:          0  HIT:          0  MISS:          0
BTB BRANCH_CONDITIONAL	ACCESS:     752629  HIT:     752624  MISS:          5
BTB BRANCH_DIRECT_CALL	ACCESS:          0  HIT:          0  MISS:          0
BTB BRANCH_INDIRECT_CALL	ACCESS:          0  HIT:          0  MISS:          0
BTB BRANCH_RETURN	ACCESS:          0  HIT:          0  MISS:          0
BTB BRANCH_OTHER ACCESS:          0  HIT:          0  MISS:          0

L2C TOTAL     ACCESS:    7945798  HIT:    5228815  MISS:    2716983  HIT %:     65.806  MISS %:     34.194   MPKI: 54.3397
L2C LOAD      ACCESS:     176517  HIT:      94197  MISS:      82320  HIT %:    53.3643  MISS %:    46.6357   MPKI: 1.6464
L2C DATA LOAD MPKI: 1.6464
L2C INSTRUCTION LOAD MPKI: 0
L2C RFO       ACCESS:    3337121  HIT:    1448250  MISS:    1888871  HIT %:    43.3982  MISS %:    56.6018   MPKI: 37.7774
L2C PREFETCH  ACCESS:    1057781  HIT:     542162  MISS:     515619  HIT %:    51.2547  MISS %:    48.7453   MPKI: 10.3124
L2C DATA PREFETCH MPKI: 10.3124
L2C INSTRUCTION PREFETCH MPKI: 0
L2C WRITEBACK ACCESS:    3337121  HIT:    3112043  MISS:     225078  HIT %:    93.2553  MISS %:    6.74468   MPKI: 4.50156
L2C LOAD TRANSLATION ACCESS:      37258  HIT:      32163  MISS:       5095  HIT %:    86.3251  MISS %:    13.6749   MPKI: 0.1019
L2C PREFETCH  REQUESTED:     975298  ISSUED:     975266  USEFUL:      94195  USELESS:     422145
L2C USEFUL LOAD PREFETCHES:      94195 PREFETCH ISSUED TO LOWER LEVEL:     530513  ACCURACY: 17.7555
L2C TIMELY PREFETCHES:      94195 LATE PREFETCHES: 14891 DROPPED PREFETCHES: 0
L2C PREFETCHES SAME FILL-ORIGIN LEVEL: 351735 DIFFERENT FILL-ORIGIN LEVEL: 0
L2C AVERAGE MISS LATENCY: 569.216 cycles
L2C RQ	ACCESS:    3550909	FORWARD:          0	MERGED:          0	TO_CACHE:    3550909
L2C WQ	ACCESS:    3337121	FORWARD:          0	MERGED:          0	TO_CACHE:    3337121
L2C PQ	ACCESS:    1394711	FORWARD:          0	MERGED:     176059	TO_CACHE:    1218652

Revised Interactions: positive negative neutral
L2C_interactions 94569 421211 280484 11.8766 52.8984 35.225
L2C_positive 0.766636 76.5779 22.6554
L2C_negative 0.108259 23.2119 76.6799
L2C_neutral 99.672 0.328004 0
L2C Instructions Evicting Data 0
L2C Translations Evicting Data 5090
L2C Data Evicting Data 2482171
L2C Instructions Evicting Instructions 0
L2C Translations Evicting Instructions 0
L2C Data Evicting Instructions 0
L2C Instructions Evicting Translations 0
L2C Translations Evicting Translations 5
L2C Data Evicting Translations 4639
L2C Dense regions hint from L2: 0
PSCL5 TOTAL     ACCESS:      37256  HIT:      37256  MISS:          0  HIT %:        100  MISS %:          0   MPKI: 0
PSCL5 LOAD TRANSLATION ACCESS:      37256  HIT:      37256  MISS:          0  HIT %:        100  MISS %:          0   MPKI: 0
PSCL5 PREFETCH  REQUESTED:          0  ISSUED:          0  USEFUL:          0  USELESS:          0
PSCL5 USEFUL LOAD PREFETCHES:          0 PREFETCH ISSUED TO LOWER LEVEL:          0  ACCURACY: -nan
PSCL5 TIMELY PREFETCHES:          0 LATE PREFETCHES: 0 DROPPED PREFETCHES: 0
PSCL5 PREFETCHES SAME FILL-ORIGIN LEVEL: 0 DIFFERENT FILL-ORIGIN LEVEL: 0

Revised Interactions: positive negative neutral
PSCL5_interactions 0 0 0 -nan -nan -nan
PSCL5_positive -nan -nan -nan
PSCL5_negative -nan -nan -nan
PSCL5_neutral -nan -nan -nan
PSCL4 TOTAL     ACCESS:      37256  HIT:      37256  MISS:          0  HIT %:        100  MISS %:          0   MPKI: 0
PSCL4 LOAD TRANSLATION ACCESS:      37256  HIT:      37256  MISS:          0  HIT %:        100  MISS %:          0   MPKI: 0
PSCL4 PREFETCH  REQUESTED:          0  ISSUED:          0  USEFUL:          0  USELESS:          0
PSCL4 USEFUL LOAD PREFETCHES:          0 PREFETCH ISSUED TO LOWER LEVEL:          0  ACCURACY: -nan
PSCL4 TIMELY PREFETCHES:          0 LATE PREFETCHES: 0 DROPPED PREFETCHES: 0
PSCL4 PREFETCHES SAME FILL-ORIGIN LEVEL: 0 DIFFERENT FILL-ORIGIN LEVEL: 0

Revised Interactions: positive negative neutral
PSCL4_interactions 0 0 0 -nan -nan -nan
PSCL4_positive -nan -nan -nan
PSCL4_negative -nan -nan -nan
PSCL4_neutral -nan -nan -nan
PSCL3 TOTAL     ACCESS:      37256  HIT:      37256  MISS:          0  HIT %:        100  MISS %:          0   MPKI: 0
PSCL3 LOAD TRANSLATION ACCESS:      37256  HIT:      37256  MISS:          0  HIT %:        100  MISS %:          0   MPKI: 0
PSCL3 PREFETCH  REQUESTED:          0  ISSUED:          0  USEFUL:          0  USELESS:          0
PSCL3 USEFUL LOAD PREFETCHES:          0 PREFETCH ISSUED TO LOWER LEVEL:          0  ACCURACY: -nan
PSCL3 TIMELY PREFETCHES:          0 LATE PREFETCHES: 0 DROPPED PREFETCHES: 0
PSCL3 PREFETCHES SAME FILL-ORIGIN LEVEL: 0 DIFFERENT FILL-ORIGIN LEVEL: 0

Revised Interactions: positive negative neutral
PSCL3_interactions 0 0 0 -nan -nan -nan
PSCL3_positive -nan -nan -nan
PSCL3_negative -nan -nan -nan
PSCL3_neutral -nan -nan -nan
PSCL2 TOTAL     ACCESS:      37256  HIT:      37217  MISS:         39  HIT %:    99.8953  MISS %:   0.104681   MPKI: 0.00078
PSCL2 LOAD TRANSLATION ACCESS:      37256  HIT:      37217  MISS:         39  HIT %:    99.8953  MISS %:   0.104681   MPKI: 0.00078
PSCL2 PREFETCH  REQUESTED:          0  ISSUED:          0  USEFUL:          0  USELESS:          0
PSCL2 USEFUL LOAD PREFETCHES:          0 PREFETCH ISSUED TO LOWER LEVEL:          0  ACCURACY: -nan
PSCL2 TIMELY PREFETCHES:          0 LATE PREFETCHES: 0 DROPPED PREFETCHES: 0
PSCL2 PREFETCHES SAME FILL-ORIGIN LEVEL: 0 DIFFERENT FILL-ORIGIN LEVEL: 0

Revised Interactions: positive negative neutral
PSCL2_interactions 0 0 0 -nan -nan -nan
PSCL2_positive -nan -nan -nan
PSCL2_negative -nan -nan -nan
PSCL2_neutral -nan -nan -nan
LLC TOTAL     ACCESS:    4380827  HIT:    1992408  MISS:    2388419  HIT %:    45.4802  MISS %:    54.5198   MPKI: 47.7684
LLC LOAD      ACCESS:      67429  HIT:        240  MISS:      67189  HIT %:    0.35593  MISS %:    99.6441   MPKI: 1.34378
LLC RFO       ACCESS:    1888787  HIT:     101116  MISS:    1787671  HIT %:    5.35349  MISS %:    94.6465   MPKI: 35.7534
LLC PREFETCH  ACCESS:     530510  HIT:       1753  MISS:     528757  HIT %:   0.330437  MISS %:    99.6696   MPKI: 10.5751
LLC WRITEBACK ACCESS:    1889006  HIT:    1888910  MISS:         96  HIT %:    99.9949  MISS %: 0.00508204   MPKI: 0.00192
LLC LOAD TRANSLATION ACCESS:       5095  HIT:        389  MISS:       4706  HIT %:    7.63494  MISS %:    92.3651   MPKI: 0.09412
LLC PREFETCH  REQUESTED:          0  ISSUED:          0  USEFUL:        223  USELESS:     529344
LLC USEFUL LOAD PREFETCHES:        223 PREFETCH ISSUED TO LOWER LEVEL:     528759  ACCURACY: 0.0421742
LLC TIMELY PREFETCHES:        223 LATE PREFETCHES: 0 DROPPED PREFETCHES: 0
LLC PREFETCHES SAME FILL-ORIGIN LEVEL: 0 DIFFERENT FILL-ORIGIN LEVEL: 0
LLC AVERAGE MISS LATENCY: 618.602 cycles
LLC RQ	ACCESS:    1961408	FORWARD:          0	MERGED:          0	TO_CACHE:    1961324
LLC WQ	ACCESS:    1889006	FORWARD:         84	MERGED:          0	TO_CACHE:    1889006
LLC PQ	ACCESS:     530513	FORWARD:          0	MERGED:          0	TO_CACHE:     530513

Revised Interactions: positive negative neutral
LLC_interactions 276 528445 410271 0.0293932 56.2779 43.6927
LLC_positive 19.2029 61.5942 19.2029
LLC_negative 0 22.4754 77.5246
LLC_neutral 100 0 0
LLC Dense regions hint to LLC: 0

RAW hits: 499640
Loads Generated: 13045001
Loads sent to L1D: 12545360
Stores Generated: 9219571
Stores sent to L1D: 9219579
Major fault: 0 Minor fault: 40295
Allocated PAGES: 40295

stream: 
stream:times selected: 3816732
stream:pref_filled: 192088
stream:pref_useful: 178005
stream:pref_late: 23083
stream:misses: 47025
stream:misses_by_poll: 0

CS: 
CS:times selected: 591044
CS:pref_filled: 365836
CS:pref_useful: 358525
CS:pref_late: 9921
CS:misses: 75152
CS:misses_by_poll: 1384

CPLX: 
CPLX:times selected: 3220999
CPLX:pref_filled: 432610
CPLX:pref_useful: 423022
CPLX:pref_late: 17626
CPLX:misses: 182876
CPLX:misses_by_poll: 1235

NL_L1: 
NL:times selected: 2497
NL:pref_filled: 185
NL:pref_useful: 146
NL:pref_late: 57
NL:misses: 252
NL:misses_by_poll: 0

total selections: 7631272
total_filled: 419443
total_useful: 395447
total_late: 50694
total_polluted: 2619
total_misses_after_warmup: 281298
conflicts: 78613
Degree Incremented Times: 113463
Degree Decremented Times: 0

L1 IP Table Write Accesses: 3956926
L1 IP Table Read Accesses: 3878313
L1 RST Write Accesses: 1857435
L1 RST Read Accesses: 3714870
L1 CSPT Write Accesses: 1857435
L1 CSPT Read Accesses: 5937445
L1 RR Filter Tag Write Accesses: 637212
L1 RR Filter Tag Read Accesses: 304526292
L1 IP Table Tag Write Accesses: 4402011
L1 IP Table Tag Read Accesses: 4402011
L1 RST Tag Write Accesses: 0
L1 RST Tag Read Accesses: 16829033
L1 RR Filter Write Accesses: 0
L1 RR Filter Read Accesses: 13686679
test: 612623
L2 IP Table Read Accesses: 1051539
L2 IP Table Write Accesses: 875118
L2 IP Table Tag Read Accesses: 525895
L2 IP Table Tag Write Accesses: 525895

DRAM Statistics
 CHANNEL 0
 RQ ROW_BUFFER_HIT:     234209  ROW_BUFFER_MISS:    2154114
 DBUS_CONGESTED:          0
 WQ ROW_BUFFER_HIT:     385987  ROW_BUFFER_MISS:    1401611  FULL:          0

 AVG_CONGESTED_CYCLE: -
 All warmup complete: 2
Channel 0 Bank busy for read cycles: 0
Channel 0 Bank busy for write cycles: 0
Channel 0
Rank 0
0banks busy for read cycles: 7412
0banks busy for write cycles: 0
1banks busy for read cycles: 537289
1banks busy for write cycles: 173978
2banks busy for read cycles: 866028
2banks busy for write cycles: 173976
3banks busy for read cycles: 1492046
3banks busy for write cycles: 173974
4banks busy for read cycles: 2522010
4banks busy for write cycles: 173973
5banks busy for read cycles: 7090703
5banks busy for write cycles: 173971
6banks busy for read cycles: 11181824
6banks busy for write cycles: 174099
7banks busy for read cycles: 16205108
7banks busy for write cycles: 1964432
8banks busy for read cycles: 19413759
8banks busy for write cycles: 34470010

CPU 0 Branch Prediction Accuracy: 94.9437% MPKI: 0.90914 Average ROB Occupancy at Mispredict: 159.373
Branch types
NOT_BRANCH: 49100634 98.2013%
BRANCH_DIRECT_JUMP: 146381 0.292762%
BRANCH_INDIRECT: 0 0%
BRANCH_CONDITIONAL: 752641 1.50528%
BRANCH_DIRECT_CALL: 0 0%
BRANCH_INDIRECT_CALL: 0 0%
BRANCH_RETURN: 0 0%
BRANCH_OTHER: 0 0%

@sumon_overall_L1D    395447     71516     71516     23994    419443   1218828   1246623
@Sumon_Early_by_class_L1D     62740    178181    154469        24
@Sumon_Late_by_class_L1D     12434      9475     16228        24

@Sumon_Early_by_cycle_L1D     34584     30002     32425     56716     34247    157558     43660      6245        10         0         0         0
@Sumon_Late_by_cycle_L1D      3095      2531      2006      2768     20361      7403
@Sumon_Early_stream_L1D     10089      9609      8166     14559      6967     13309        41         0         0         0         0         0
@Sumon_Early_CS_L1D     12188     10615     12247     23943     13731     87847     17584        26         0         0         0         0
@Sumon_Early_CPLX_L1D     12300      9763     12004     18210     13547     56382     26035      6218        10         0         0         0
@Sumon_Late_stream_L1D       923       910       563       849      6567      2622
@Sumon_Late_CS_L1D      1016       625       469       610      4331      2424
@Sumon_Late_CPLX_L1D      1156       994       971      1307      9449      2351
@sumon_overall_L2C     94195     14891         0    422145    515619    975266    975298
@Sumon_Early_by_class_L2C     32481     61704         0         0
@Sumon_Late_by_class_L2C     11243      3576         0         0

@Sumon_Early_by_cycle_L2C      7729      4253      8916     12770      6076     41510     12926        15         0         0         0         0
@Sumon_Late_by_cycle_L2C        72       341      1212       448      8012      4806
@Sumon_Early_stream_L2C      6148      3408      6442      8068      2904      5488        23         0         0         0         0         0
@Sumon_Early_CS_L2C      1581       845      2471      4701      3171     36020     12900        15         0         0         0         0
@Sumon_Early_CPLX_L2C         0         0         0         0         0         0         0         0         0         0         0         0
@Sumon_Late_stream_L2C         0       253       919       370      6377      3324
@Sumon_Late_CS_L2C         0        88       293        78      1635      1482
@Sumon_Late_CPLX_L2C         0         0         0         0         0         0
DRAM PAGES: 1048576
Allocated PAGES: 40295
