
*** ChampSim Multicore Out-of-Order Simulator ***

Warmup Instructions: 50000000
Simulation Instructions: 50000000
Number of CPUs: 1
LLC sets: 2048
LLC ways: 16
Off-chip DRAM Size: 4096 MB Channels: 1 Width: 64-bit Data Rate: 6400 MT/s
CPU 0 runs ../../biswa/SPEC2017Traces/654.roms_s-1007B.champsimtrace.xz
.xz
CPU 0 Bimodal branch predictor
BTB has LRU replacement policy
ITLB has LRU replacement policy
DTLB has LRU replacement policy
STLB has LRU replacement policy
L1I has LRU replacement policy
IP Table Entries: 256
L1D has LRU replacement policy
IP_Table L2 entries: 256
Initialize DRRIP state for L2C
LLC has LRU replacement policy
Heartbeat CPU 0 instructions: 10000000 cycles: 3015935 heartbeat IPC: 3.31572 cumulative IPC: 3.31572 (Simulation time: 0 hr 3 min 2 sec) 
Heartbeat CPU 0 instructions: 20000002 cycles: 6031695 heartbeat IPC: 3.31591 cumulative IPC: 3.31582 (Simulation time: 0 hr 6 min 9 sec) 
Heartbeat CPU 0 instructions: 30000000 cycles: 9047571 heartbeat IPC: 3.31579 cumulative IPC: 3.31581 (Simulation time: 0 hr 9 min 12 sec) 
Heartbeat CPU 0 instructions: 40000000 cycles: 12063362 heartbeat IPC: 3.31588 cumulative IPC: 3.31583 (Simulation time: 0 hr 12 min 14 sec) 
Heartbeat CPU 0 instructions: 50000003 cycles: 15186287 heartbeat IPC: 3.20213 cumulative IPC: 3.29244 (Simulation time: 0 hr 15 min 47 sec) 

Warmup complete CPU 0 instructions: 50000003 cycles: 15186287 (Simulation time: 0 hr 15 min 47 sec) 

Heartbeat CPU 0 instructions: 60000002 cycles: 32437834 heartbeat IPC: 0.579658 cumulative IPC: 0.579658 (Simulation time: 0 hr 18 min 19 sec) 
Heartbeat CPU 0 instructions: 70000000 cycles: 51931742 heartbeat IPC: 0.512981 cumulative IPC: 0.544285 (Simulation time: 0 hr 20 min 51 sec) 
Heartbeat CPU 0 instructions: 80000000 cycles: 71419173 heartbeat IPC: 0.513151 cumulative IPC: 0.533496 (Simulation time: 0 hr 23 min 31 sec) 
Heartbeat CPU 0 instructions: 90000000 cycles: 90901077 heartbeat IPC: 0.513297 cumulative IPC: 0.528298 (Simulation time: 0 hr 25 min 58 sec) 
Heartbeat CPU 0 instructions: 100000000 cycles: 110377601 heartbeat IPC: 0.513439 cumulative IPC: 0.525258 (Simulation time: 0 hr 28 min 1 sec) 
Finished CPU 0 instructions: 50000002 cycles: 95191337 cumulative IPC: 0.525258 (Simulation time: 0 hr 28 min 1 sec) 

ChampSim completed all CPUs

Region of Interest Statistics

CPU 0 cumulative IPC: 0.525258 instructions: 50000002 cycles: 95191337
ITLB TOTAL     ACCESS:    8485873  HIT:    8485871  MISS:          2  HIT %:        100  MISS %: 2.35686e-05   MPKI: 4e-05
ITLB LOAD TRANSLATION ACCESS:    8485873  HIT:    8485871  MISS:          2  HIT %:        100  MISS %: 2.35686e-05   MPKI: 4e-05
ITLB PREFETCH  REQUESTED:          0  ISSUED:          0  USEFUL:          0  USELESS:          0
ITLB USEFUL LOAD PREFETCHES:          0 PREFETCH ISSUED TO LOWER LEVEL:          0  ACCURACY: -nan
ITLB TIMELY PREFETCHES:          0 LATE PREFETCHES: 0 DROPPED PREFETCHES: 0
ITLB PREFETCHES SAME FILL-ORIGIN LEVEL: 0 DIFFERENT FILL-ORIGIN LEVEL: 0
ITLB AVERAGE MISS LATENCY: 325.5 cycles
ITLB RQ	ACCESS:   10714970	FORWARD:          0	MERGED:    2229098	TO_CACHE:    8485872

Revised Interactions: positive negative neutral
ITLB_interactions 0 0 0 -nan -nan -nan
ITLB_positive -nan -nan -nan
ITLB_negative -nan -nan -nan
ITLB_neutral -nan -nan -nan
DTLB TOTAL     ACCESS:   14244043  HIT:   14238167  MISS:       5876  HIT %:    99.9587  MISS %:  0.0412523   MPKI: 0.11752
DTLB LOAD TRANSLATION ACCESS:   14244043  HIT:   14238167  MISS:       5876  HIT %:    99.9587  MISS %:  0.0412523   MPKI: 0.11752
DTLB PREFETCH  REQUESTED:          0  ISSUED:          0  USEFUL:          0  USELESS:          0
DTLB USEFUL LOAD PREFETCHES:          0 PREFETCH ISSUED TO LOWER LEVEL:          0  ACCURACY: -nan
DTLB TIMELY PREFETCHES:          0 LATE PREFETCHES: 0 DROPPED PREFETCHES: 0
DTLB PREFETCHES SAME FILL-ORIGIN LEVEL: 0 DIFFERENT FILL-ORIGIN LEVEL: 0
DTLB AVERAGE MISS LATENCY: 176.673 cycles
DTLB RQ	ACCESS:   16106265	FORWARD:          0	MERGED:    1855985	TO_CACHE:   14250280

Revised Interactions: positive negative neutral
DTLB_interactions 0 0 0 -nan -nan -nan
DTLB_positive -nan -nan -nan
DTLB_negative -nan -nan -nan
DTLB_neutral -nan -nan -nan
STLB TOTAL     ACCESS:     484675  HIT:     478807  MISS:       5868  HIT %:    98.7893  MISS %:    1.21071   MPKI: 0.11736
STLB LOAD TRANSLATION ACCESS:       5878  HIT:         10  MISS:       5868  HIT %:   0.170126  MISS %:    99.8299   MPKI: 0.11736
STLB TRANSLATION FROM L1D PREFETCHER ACCESS:     478797  HIT:     478797  MISS:          0  HIT %:        100  MISS %:          0   MPKI: 0
STLB PREFETCH  REQUESTED:          0  ISSUED:          0  USEFUL:          0  USELESS:          0
STLB USEFUL LOAD PREFETCHES:          0 PREFETCH ISSUED TO LOWER LEVEL:          0  ACCURACY: -nan
STLB TIMELY PREFETCHES:          0 LATE PREFETCHES: 0 DROPPED PREFETCHES: 0
STLB PREFETCHES SAME FILL-ORIGIN LEVEL: 0 DIFFERENT FILL-ORIGIN LEVEL: 0
STLB AVERAGE MISS LATENCY: 167.803 cycles
STLB RQ	ACCESS:    2559587	FORWARD:          0	MERGED:    2074913	TO_CACHE:     484674

Revised Interactions: positive negative neutral
STLB_interactions 0 0 0 -nan -nan -nan
STLB_positive -nan -nan -nan
STLB_negative -nan -nan -nan
STLB_neutral -nan -nan -nan
STLB Hit, L1D data hit: 0
STLB Hit, L2C data hit: 0
STLB Hit, LLC data hit: 0
STLB Hit, LLC data miss: 0
STLB STLB hints to L2: 0
L1D TOTAL     ACCESS:   18257911  HIT:   18004448  MISS:     253463  HIT %:    98.6118  MISS %:    1.38824   MPKI: 5.06926
L1D LOAD      ACCESS:   10110937  HIT:   10104700  MISS:       6237  HIT %:    99.9383  MISS %:  0.0616857   MPKI: 0.12474
L1D RFO       ACCESS:    5594997  HIT:    5510429  MISS:      84568  HIT %:    98.4885  MISS %:    1.51149   MPKI: 1.69136
L1D PREFETCH  ACCESS:    2551977  HIT:    2389319  MISS:     162658  HIT %:    93.6262  MISS %:     6.3738   MPKI: 3.25316
L1D PREFETCH  REQUESTED:    5107716  ISSUED:    5107418  USEFUL:     149888  USELESS:      12754
L1D USEFUL LOAD PREFETCHES:     149888 PREFETCH ISSUED TO LOWER LEVEL:     162874  ACCURACY: 92.027
L1D TIMELY PREFETCHES:     149888 LATE PREFETCHES: 9018 DROPPED PREFETCHES: 0
L1D PREFETCHES SAME FILL-ORIGIN LEVEL: 162874 DIFFERENT FILL-ORIGIN LEVEL: 0
L1D AVERAGE MISS LATENCY: 146.625 cycles
L1D RQ	ACCESS:   11911866	FORWARD:          0	MERGED:    1776617	TO_CACHE:   10127168
L1D WQ	ACCESS:    6358286	FORWARD:       8081	MERGED:     379189	TO_CACHE:    5979097
L1D PQ	ACCESS:    2553709	FORWARD:          0	MERGED:          0	TO_CACHE:    2553709

Revised Interactions: positive negative neutral
L1D_interactions 0 0 0 -nan -nan -nan
L1D_positive -nan -nan -nan
L1D_negative -nan -nan -nan
L1D_neutral -nan -nan -nan
L1D UNIQUE REGIONS ACCESSED: 0
L1D REGIONS CONFLICTS: 0
L1D Cross Page Prefetch Requests: 0
L1D Same Page Prefetch Requests: 4702424
L1D ROI Sum of L1D PQ occupancy: 37981489
L1D PREFETCHES PUSHED FROM L2C: 0
L1I TOTAL     ACCESS:   10714963  HIT:   10714927  MISS:         36  HIT %:    99.9997  MISS %: 0.000335979   MPKI: 0.00072
L1I LOAD      ACCESS:   10714963  HIT:   10714927  MISS:         36  HIT %:    99.9997  MISS %: 0.000335979   MPKI: 0.00072
L1I PREFETCH  REQUESTED:          0  ISSUED:          0  USEFUL:          0  USELESS:          0
L1I USEFUL LOAD PREFETCHES:          0 PREFETCH ISSUED TO LOWER LEVEL:          0  ACCURACY: -nan
L1I TIMELY PREFETCHES:          0 LATE PREFETCHES: 0 DROPPED PREFETCHES: 0
L1I PREFETCHES SAME FILL-ORIGIN LEVEL: 0 DIFFERENT FILL-ORIGIN LEVEL: 0
L1I AVERAGE MISS LATENCY: 231.889 cycles
L1I RQ	ACCESS:   14212929	FORWARD:          0	MERGED:    3497959	TO_CACHE:   10714970

Revised Interactions: positive negative neutral
L1I_interactions 0 0 0 -nan -nan -nan
L1I_positive -nan -nan -nan
L1I_negative -nan -nan -nan
L1I_neutral -nan -nan -nan
BTB TOTAL     ACCESS:    3368720  HIT:    2989493  MISS:     379227  HIT %:    88.7427  MISS %:    11.2573   MPKI: 7.58454
BTB BRANCH_DIRECT_JUMP	ACCESS:     379197  HIT:     379193  MISS:          4
BTB BRANCH_INDIRECT	ACCESS:          0  HIT:          0  MISS:          0
BTB BRANCH_CONDITIONAL	ACCESS:    1472750  HIT:    1472730  MISS:         20
BTB BRANCH_DIRECT_CALL	ACCESS:     758387  HIT:     758379  MISS:          8
BTB BRANCH_INDIRECT_CALL	ACCESS:          0  HIT:          0  MISS:          0
BTB BRANCH_RETURN	ACCESS:     758386  HIT:     379191  MISS:     379195
BTB BRANCH_OTHER ACCESS:          0  HIT:          0  MISS:          0

L2C TOTAL     ACCESS:     914931  HIT:     649956  MISS:     264975  HIT %:    71.0388  MISS %:    28.9612   MPKI: 5.2995
L2C LOAD      ACCESS:       6273  HIT:        261  MISS:       6012  HIT %:    4.16069  MISS %:    95.8393   MPKI: 0.12024
L2C DATA LOAD MPKI: 0.11952
L2C INSTRUCTION LOAD MPKI: 0.00072
L2C RFO       ACCESS:      84568  HIT:         13  MISS:      84555  HIT %:  0.0153722  MISS %:    99.9846   MPKI: 1.6911
L2C PREFETCH  ACCESS:     733750  HIT:     562642  MISS:     171108  HIT %:    76.6803  MISS %:    23.3197   MPKI: 3.42216
L2C DATA PREFETCH MPKI: 3.42216
L2C INSTRUCTION PREFETCH MPKI: 0
L2C WRITEBACK ACCESS:      84462  HIT:      82410  MISS:       2052  HIT %:    97.5705  MISS %:    2.42949   MPKI: 0.04104
L2C LOAD TRANSLATION ACCESS:       5878  HIT:       4630  MISS:       1248  HIT %:    78.7683  MISS %:    21.2317   MPKI: 0.02496
L2C PREFETCH  REQUESTED:     738192  ISSUED:     735472  USEFUL:        200  USELESS:     171541
L2C USEFUL LOAD PREFETCHES:        200 PREFETCH ISSUED TO LOWER LEVEL:     171155  ACCURACY: 0.116853
L2C TIMELY PREFETCHES:        200 LATE PREFETCHES: 47 DROPPED PREFETCHES: 0
L2C PREFETCHES SAME FILL-ORIGIN LEVEL: 141983 DIFFERENT FILL-ORIGIN LEVEL: 0
L2C AVERAGE MISS LATENCY: 254.383 cycles
L2C RQ	ACCESS:      96719	FORWARD:          0	MERGED:          0	TO_CACHE:      96719
L2C WQ	ACCESS:      84462	FORWARD:          0	MERGED:          0	TO_CACHE:      84462
L2C PQ	ACCESS:     898130	FORWARD:          0	MERGED:      48235	TO_CACHE:     849895

Revised Interactions: positive negative neutral
L2C_interactions 892 170655 55681 0.392557 75.103 24.5045
L2C_positive 79.0359 8.74439 12.2197
L2C_negative 0 66.4475 33.5525
L2C_neutral 100 0 0
L2C Instructions Evicting Data 36
L2C Translations Evicting Data 1246
L2C Data Evicting Data 260349
L2C Instructions Evicting Instructions 0
L2C Translations Evicting Instructions 0
L2C Data Evicting Instructions 36
L2C Instructions Evicting Translations 0
L2C Translations Evicting Translations 2
L2C Data Evicting Translations 1254
L2C Dense regions hint from L2: 0
PSCL5 TOTAL     ACCESS:       5868  HIT:       5868  MISS:          0  HIT %:        100  MISS %:          0   MPKI: 0
PSCL5 LOAD TRANSLATION ACCESS:       5868  HIT:       5868  MISS:          0  HIT %:        100  MISS %:          0   MPKI: 0
PSCL5 PREFETCH  REQUESTED:          0  ISSUED:          0  USEFUL:          0  USELESS:          0
PSCL5 USEFUL LOAD PREFETCHES:          0 PREFETCH ISSUED TO LOWER LEVEL:          0  ACCURACY: -nan
PSCL5 TIMELY PREFETCHES:          0 LATE PREFETCHES: 0 DROPPED PREFETCHES: 0
PSCL5 PREFETCHES SAME FILL-ORIGIN LEVEL: 0 DIFFERENT FILL-ORIGIN LEVEL: 0

Revised Interactions: positive negative neutral
PSCL5_interactions 0 0 0 -nan -nan -nan
PSCL5_positive -nan -nan -nan
PSCL5_negative -nan -nan -nan
PSCL5_neutral -nan -nan -nan
PSCL4 TOTAL     ACCESS:       5868  HIT:       5868  MISS:          0  HIT %:        100  MISS %:          0   MPKI: 0
PSCL4 LOAD TRANSLATION ACCESS:       5868  HIT:       5868  MISS:          0  HIT %:        100  MISS %:          0   MPKI: 0
PSCL4 PREFETCH  REQUESTED:          0  ISSUED:          0  USEFUL:          0  USELESS:          0
PSCL4 USEFUL LOAD PREFETCHES:          0 PREFETCH ISSUED TO LOWER LEVEL:          0  ACCURACY: -nan
PSCL4 TIMELY PREFETCHES:          0 LATE PREFETCHES: 0 DROPPED PREFETCHES: 0
PSCL4 PREFETCHES SAME FILL-ORIGIN LEVEL: 0 DIFFERENT FILL-ORIGIN LEVEL: 0

Revised Interactions: positive negative neutral
PSCL4_interactions 0 0 0 -nan -nan -nan
PSCL4_positive -nan -nan -nan
PSCL4_negative -nan -nan -nan
PSCL4_neutral -nan -nan -nan
PSCL3 TOTAL     ACCESS:       5868  HIT:       5867  MISS:          1  HIT %:     99.983  MISS %:  0.0170416   MPKI: 2e-05
PSCL3 LOAD TRANSLATION ACCESS:       5868  HIT:       5867  MISS:          1  HIT %:     99.983  MISS %:  0.0170416   MPKI: 2e-05
PSCL3 PREFETCH  REQUESTED:          0  ISSUED:          0  USEFUL:          0  USELESS:          0
PSCL3 USEFUL LOAD PREFETCHES:          0 PREFETCH ISSUED TO LOWER LEVEL:          0  ACCURACY: -nan
PSCL3 TIMELY PREFETCHES:          0 LATE PREFETCHES: 0 DROPPED PREFETCHES: 0
PSCL3 PREFETCHES SAME FILL-ORIGIN LEVEL: 0 DIFFERENT FILL-ORIGIN LEVEL: 0

Revised Interactions: positive negative neutral
PSCL3_interactions 0 0 0 -nan -nan -nan
PSCL3_positive -nan -nan -nan
PSCL3_negative -nan -nan -nan
PSCL3_neutral -nan -nan -nan
PSCL2 TOTAL     ACCESS:       5868  HIT:       5843  MISS:         25  HIT %:     99.574  MISS %:    0.42604   MPKI: 0.0005
PSCL2 LOAD TRANSLATION ACCESS:       5868  HIT:       5843  MISS:         25  HIT %:     99.574  MISS %:    0.42604   MPKI: 0.0005
PSCL2 PREFETCH  REQUESTED:          0  ISSUED:          0  USEFUL:          0  USELESS:          0
PSCL2 USEFUL LOAD PREFETCHES:          0 PREFETCH ISSUED TO LOWER LEVEL:          0  ACCURACY: -nan
PSCL2 TIMELY PREFETCHES:          0 LATE PREFETCHES: 0 DROPPED PREFETCHES: 0
PSCL2 PREFETCHES SAME FILL-ORIGIN LEVEL: 0 DIFFERENT FILL-ORIGIN LEVEL: 0

Revised Interactions: positive negative neutral
PSCL2_interactions 0 0 0 -nan -nan -nan
PSCL2_positive -nan -nan -nan
PSCL2_negative -nan -nan -nan
PSCL2_neutral -nan -nan -nan
LLC TOTAL     ACCESS:     346697  HIT:      83823  MISS:     262874  HIT %:    24.1776  MISS %:    75.8224   MPKI: 5.25748
LLC LOAD      ACCESS:       5965  HIT:         11  MISS:       5954  HIT %:   0.184409  MISS %:    99.8156   MPKI: 0.11908
LLC RFO       ACCESS:      84555  HIT:          0  MISS:      84555  HIT %:          0  MISS %:        100   MPKI: 1.6911
LLC PREFETCH  ACCESS:     171155  HIT:         48  MISS:     171107  HIT %:  0.0280448  MISS %:     99.972   MPKI: 3.42214
LLC WRITEBACK ACCESS:      83774  HIT:      83739  MISS:         35  HIT %:    99.9582  MISS %:  0.0417791   MPKI: 0.0007
LLC LOAD TRANSLATION ACCESS:       1248  HIT:         25  MISS:       1223  HIT %:    2.00321  MISS %:    97.9968   MPKI: 0.02446
LLC PREFETCH  REQUESTED:          0  ISSUED:          0  USEFUL:          3  USELESS:     173556
LLC USEFUL LOAD PREFETCHES:          3 PREFETCH ISSUED TO LOWER LEVEL:     171107  ACCURACY: 0.00175329
LLC TIMELY PREFETCHES:          3 LATE PREFETCHES: 0 DROPPED PREFETCHES: 0
LLC PREFETCHES SAME FILL-ORIGIN LEVEL: 0 DIFFERENT FILL-ORIGIN LEVEL: 0
LLC AVERAGE MISS LATENCY: 224.336 cycles
LLC RQ	ACCESS:      91768	FORWARD:          0	MERGED:          0	TO_CACHE:      91768
LLC WQ	ACCESS:      83774	FORWARD:          0	MERGED:          0	TO_CACHE:      83774
LLC PQ	ACCESS:     171155	FORWARD:          0	MERGED:          0	TO_CACHE:     171155

Revised Interactions: positive negative neutral
LLC_interactions 4 170899 58096 0.00174673 74.6287 25.3695
LLC_positive 100 0 0
LLC_negative 0 67.4 32.6
LLC_neutral 100 0 0
LLC Dense regions hint to LLC: 0

RAW hits: 1549822
Loads Generated: 13461689
Loads sent to L1D: 11911866
Stores Generated: 6358282
Stores sent to L1D: 6358286
Major fault: 0 Minor fault: 10630
Allocated PAGES: 10630

stream: 
stream:times selected: 2830968
stream:pref_filled: 342522
stream:pref_useful: 320571
stream:pref_late: 2620
stream:misses: 50
stream:misses_by_poll: 0

CS: 
CS:times selected: 493466
CS:pref_filled: 4281
CS:pref_useful: 4181
CS:pref_late: 7
CS:misses: 26887
CS:misses_by_poll: 1

CPLX: 
CPLX:times selected: 2335557
CPLX:pref_filled: 159
CPLX:pref_useful: 29
CPLX:pref_late: 8
CPLX:misses: 555
CPLX:misses_by_poll: 0

NL_L1: 
NL:times selected: 5
NL:pref_filled: 4
NL:pref_useful: 3
NL:pref_late: 0
NL:misses: 0
NL:misses_by_poll: 0

total selections: 5659996
total_filled: 162658
total_useful: 149888
total_late: 2635
total_polluted: 1
total_misses_after_warmup: 22473
conflicts: 829
Degree Incremented Times: 78003
Degree Decremented Times: 0

L1 IP Table Write Accesses: 10125645
L1 IP Table Read Accesses: 10124816
L1 RST Write Accesses: 1549800
L1 RST Read Accesses: 3099600
L1 CSPT Write Accesses: 1549800
L1 CSPT Read Accesses: 5490547
L1 RR Filter Tag Write Accesses: 2554007
L1 RR Filter Tag Read Accesses: 292621975
L1 IP Table Tag Write Accesses: 10127173
L1 IP Table Tag Read Accesses: 10127173
L1 RST Tag Write Accesses: 0
L1 RST Tag Read Accesses: 17749372
L1 RR Filter Write Accesses: 0
L1 RR Filter Read Accesses: 13814435
test: 641620
L2 IP Table Read Accesses: 263718
L2 IP Table Write Accesses: 257554
L2 IP Table Tag Read Accesses: 131879
L2 IP Table Tag Write Accesses: 131879

DRAM Statistics
 CHANNEL 0
 RQ ROW_BUFFER_HIT:     110783  ROW_BUFFER_MISS:     152056
 DBUS_CONGESTED:         35
 WQ ROW_BUFFER_HIT:      11705  ROW_BUFFER_MISS:      70218  FULL:          0

 AVG_CONGESTED_CYCLE: 5
 All warmup complete: 2
Channel 0 Bank busy for read cycles: 0
Channel 0 Bank busy for write cycles: 0
Channel 0
Rank 0
0banks busy for read cycles: 80245516
0banks busy for write cycles: 16093
1banks busy for read cycles: 6008072
1banks busy for write cycles: 2437505
2banks busy for read cycles: 651459
2banks busy for write cycles: 76381
3banks busy for read cycles: 896370
3banks busy for write cycles: 33765
4banks busy for read cycles: 843945
4banks busy for write cycles: 31252
5banks busy for read cycles: 523579
5banks busy for write cycles: 27590
6banks busy for read cycles: 532286
6banks busy for write cycles: 33683
7banks busy for read cycles: 628181
7banks busy for write cycles: 109727
8banks busy for read cycles: 709964
8banks busy for write cycles: 1385970

CPU 0 Branch Prediction Accuracy: 99.9746% MPKI: 0.0287 Average ROB Occupancy at Mispredict: 33.5624
Branch types
NOT_BRANCH: 44355134 88.7103%
BRANCH_DIRECT_JUMP: 379197 0.758394%
BRANCH_INDIRECT: 0 0%
BRANCH_CONDITIONAL: 3748583 7.49717%
BRANCH_DIRECT_CALL: 758387 1.51677%
BRANCH_INDIRECT_CALL: 0 0%
BRANCH_RETURN: 758386 1.51677%
BRANCH_OTHER: 0 0%

@sumon_overall_L1D    149888      9018      9018     12754    162658   5107418   5107716
@Sumon_Early_by_class_L1D    149271       599        18         0
@Sumon_Late_by_class_L1D      2541         5         8         0

@Sumon_Early_by_cycle_L1D      5478      7902     12390     39149      2995     56742      2109       378      1840     20885         0        20
@Sumon_Late_by_cycle_L1D       480       435       262       524       805        48
@Sumon_Early_stream_L1D      5456      7885     12381     39131      2888     56727      2107       375      1422     20885         0        14
@Sumon_Early_CS_L1D        17        14         9        18       107        11         2         3       418         0         0         0
@Sumon_Early_CPLX_L1D         5         3         0         0         0         4         0         0         0         0         0         6
@Sumon_Late_stream_L1D       479       434       260       524       797        47
@Sumon_Late_CS_L1D         0         0         0         0         5         0
@Sumon_Late_CPLX_L1D         1         1         2         0         3         1
@sumon_overall_L2C       200        47         0    171541    171108    735472    738192
@Sumon_Early_by_class_L2C       195         2         0         0
@Sumon_Late_by_class_L2C        47         0         0         0

@Sumon_Early_by_cycle_L2C         3         3         4         4         2         3        31         3         5       127         0        15
@Sumon_Late_by_cycle_L2C         0         0         0         5        39         3
@Sumon_Early_stream_L2C         2         3         4         4         2         3        30         1         4       127         0        15
@Sumon_Early_CS_L2C         0         0         0         0         0         0         0         1         1         0         0         0
@Sumon_Early_CPLX_L2C         0         0         0         0         0         0         0         0         0         0         0         0
@Sumon_Late_stream_L2C         0         0         0         5        39         3
@Sumon_Late_CS_L2C         0         0         0         0         0         0
@Sumon_Late_CPLX_L2C         0         0         0         0         0         0
DRAM PAGES: 1048576
Allocated PAGES: 10630
