
*** ChampSim Multicore Out-of-Order Simulator ***

Warmup Instructions: 10000000
Simulation Instructions: 50000000
Number of CPUs: 1
LLC sets: 2048
LLC ways: 16
Off-chip DRAM Size: 4096 MB Channels: 1 Width: 64-bit Data Rate: 800 MT/s
CPU 0 runs traces/SPEC2017/603.bwaves_s-1740B.champsimtrace.xz
.xz
CPU 0 Bimodal branch predictor
BTB has LRU replacement policy
ITLB has LRU replacement policy
DTLB has LRU replacement policy
STLB has LRU replacement policy
L1I has LRU replacement policy
L1D has LRU replacement policy
L2C has LRU replacement policy
LLC has LRU replacement policy
Heartbeat CPU 0 instructions: 10000000 cycles: 3317080 heartbeat IPC: 3.0147 cumulative IPC: 3.0147 (Simulation time: 0 hr 18 min 5 sec) 

Warmup complete CPU 0 instructions: 10000003 cycles: 3317081 (Simulation time: 0 hr 18 min 6 sec) 

Heartbeat CPU 0 instructions: 20000000 cycles: 22210704 heartbeat IPC: 0.529279 cumulative IPC: 0.529279 (Simulation time: 0 hr 39 min 8 sec) 
Heartbeat CPU 0 instructions: 30000003 cycles: 41151218 heartbeat IPC: 0.527969 cumulative IPC: 0.528623 (Simulation time: 1 hr 0 min 28 sec) 
Heartbeat CPU 0 instructions: 40000000 cycles: 60074798 heartbeat IPC: 0.528441 cumulative IPC: 0.528562 (Simulation time: 1 hr 21 min 44 sec) 
Heartbeat CPU 0 instructions: 50000000 cycles: 79018745 heartbeat IPC: 0.527873 cumulative IPC: 0.52839 (Simulation time: 1 hr 42 min 38 sec) 
Heartbeat CPU 0 instructions: 60000000 cycles: 97953051 heartbeat IPC: 0.528142 cumulative IPC: 0.52834 (Simulation time: 2 hr 1 min 6 sec) 
Finished CPU 0 instructions: 50000000 cycles: 94635974 cumulative IPC: 0.52834 (Simulation time: 2 hr 1 min 6 sec) 

ChampSim completed all CPUs

Region of Interest Statistics

CPU 0 cumulative IPC: 0.52834 instructions: 50000000 cycles: 94635974
ITLB TOTAL     ACCESS:    6356185  HIT:    6356185  MISS:          0  HIT %:        100  MISS %:          0   MPKI: 0
ITLB LOAD TRANSLATION ACCESS:    6356185  HIT:    6356185  MISS:          0  HIT %:        100  MISS %:          0   MPKI: 0
ITLB PREFETCH  REQUESTED:          0  ISSUED:          0  USEFUL:          0  USELESS:          0
ITLB USEFUL LOAD PREFETCHES:          0 PREFETCH ISSUED TO LOWER LEVEL:          0  ACCURACY: -nan
ITLB TIMELY PREFETCHES:          0 LATE PREFETCHES: 0 DROPPED PREFETCHES: 0
ITLB PREFETCHES SAME FILL-ORIGIN LEVEL: 0 DIFFERENT FILL-ORIGIN LEVEL: 0
ITLB AVERAGE MISS LATENCY: -nan cycles
ITLB RQ	ACCESS:    8462492	FORWARD:          0	MERGED:    2106308	TO_CACHE:    6356184

DTLB TOTAL     ACCESS:   16083562  HIT:   15988686  MISS:      94876  HIT %:    99.4101  MISS %:   0.589894   MPKI: 1.89752
DTLB LOAD TRANSLATION ACCESS:   16083562  HIT:   15988686  MISS:      94876  HIT %:    99.4101  MISS %:   0.589894   MPKI: 1.89752
DTLB PREFETCH  REQUESTED:          0  ISSUED:          0  USEFUL:          0  USELESS:          0
DTLB USEFUL LOAD PREFETCHES:          0 PREFETCH ISSUED TO LOWER LEVEL:          0  ACCURACY: -nan
DTLB TIMELY PREFETCHES:          0 LATE PREFETCHES: 0 DROPPED PREFETCHES: 0
DTLB PREFETCHES SAME FILL-ORIGIN LEVEL: 0 DIFFERENT FILL-ORIGIN LEVEL: 0
DTLB AVERAGE MISS LATENCY: 84.6993 cycles
DTLB RQ	ACCESS:   18768603	FORWARD:          0	MERGED:    2670382	TO_CACHE:   16098221

STLB TOTAL     ACCESS:      94876  HIT:      80034  MISS:      14842  HIT %:    84.3564  MISS %:    15.6436   MPKI: 0.29684
STLB LOAD TRANSLATION ACCESS:      94876  HIT:      80034  MISS:      14842  HIT %:    84.3564  MISS %:    15.6436   MPKI: 0.29684
STLB PREFETCH  REQUESTED:          0  ISSUED:          0  USEFUL:          0  USELESS:          0
STLB USEFUL LOAD PREFETCHES:          0 PREFETCH ISSUED TO LOWER LEVEL:          0  ACCURACY: -nan
STLB TIMELY PREFETCHES:          0 LATE PREFETCHES: 0 DROPPED PREFETCHES: 0
STLB PREFETCHES SAME FILL-ORIGIN LEVEL: 0 DIFFERENT FILL-ORIGIN LEVEL: 0
STLB AVERAGE MISS LATENCY: 462.387 cycles
STLB RQ	ACCESS:      94876	FORWARD:          0	MERGED:          0	TO_CACHE:      94876

STLB Hit, L1D data hit: 0
STLB Hit, L2C data hit: 0
STLB Hit, LLC data hit: 0
STLB Hit, LLC data miss: 0
STLB STLB hints to L2: 0
L1D TOTAL     ACCESS:   18476115  HIT:   17476535  MISS:     999580  HIT %:    94.5899  MISS %:    5.41012   MPKI: 19.9916
L1D LOAD      ACCESS:   15667391  HIT:   14692173  MISS:     975218  HIT %:    93.7755  MISS %:    6.22451   MPKI: 19.5044
L1D RFO       ACCESS:    2808724  HIT:    2784362  MISS:      24362  HIT %:    99.1326  MISS %:   0.867369   MPKI: 0.48724
L1D PREFETCH  REQUESTED:          0  ISSUED:          0  USEFUL:          0  USELESS:          0
L1D USEFUL LOAD PREFETCHES:          0 PREFETCH ISSUED TO LOWER LEVEL:          0  ACCURACY: -nan
L1D TIMELY PREFETCHES:          0 LATE PREFETCHES: 0 DROPPED PREFETCHES: 0
L1D PREFETCHES SAME FILL-ORIGIN LEVEL: 0 DIFFERENT FILL-ORIGIN LEVEL: 0
L1D AVERAGE MISS LATENCY: 385.481 cycles
L1D RQ	ACCESS:   21207368	FORWARD:          0	MERGED:    5189127	TO_CACHE:   15951938
L1D WQ	ACCESS:    2816683	FORWARD:      66303	MERGED:         18	TO_CACHE:    2816665

L1D UNIQUE REGIONS ACCESSED: 0
L1D REGIONS CONFLICTS: 0
L1D Cross Page Prefetch Requests: 0
L1D Same Page Prefetch Requests: 0
L1D ROI Sum of L1D PQ occupancy: 0
L1D PREFETCHES PUSHED FROM L2C: 0
L1I TOTAL     ACCESS:    8462492  HIT:    8462492  MISS:          0  HIT %:        100  MISS %:          0   MPKI: 0
L1I LOAD      ACCESS:    8462492  HIT:    8462492  MISS:          0  HIT %:        100  MISS %:          0   MPKI: 0
L1I PREFETCH  REQUESTED:          0  ISSUED:          0  USEFUL:          0  USELESS:          0
L1I USEFUL LOAD PREFETCHES:          0 PREFETCH ISSUED TO LOWER LEVEL:          0  ACCURACY: -nan
L1I TIMELY PREFETCHES:          0 LATE PREFETCHES: 0 DROPPED PREFETCHES: 0
L1I PREFETCHES SAME FILL-ORIGIN LEVEL: 0 DIFFERENT FILL-ORIGIN LEVEL: 0
L1I AVERAGE MISS LATENCY: -nan cycles
L1I RQ	ACCESS:   11737772	FORWARD:          0	MERGED:    3275280	TO_CACHE:    8462492

BTB TOTAL     ACCESS:    1208720  HIT:    1208715  MISS:          5  HIT %:    99.9996  MISS %: 0.000413661   MPKI: 0.0001
BTB BRANCH_DIRECT_JUMP	ACCESS:          0  HIT:          0  MISS:          0
BTB BRANCH_INDIRECT	ACCESS:          0  HIT:          0  MISS:          0
BTB BRANCH_CONDITIONAL	ACCESS:    1208720  HIT:    1208715  MISS:          5
BTB BRANCH_DIRECT_CALL	ACCESS:          0  HIT:          0  MISS:          0
BTB BRANCH_INDIRECT_CALL	ACCESS:          0  HIT:          0  MISS:          0
BTB BRANCH_RETURN	ACCESS:          0  HIT:          0  MISS:          0
BTB BRANCH_OTHER ACCESS:          0  HIT:          0  MISS:          0

L2C TOTAL     ACCESS:    1039158  HIT:      87153  MISS:     952005  HIT %:    8.38689  MISS %:    91.6131   MPKI: 19.0401
L2C LOAD      ACCESS:     975218  HIT:      49456  MISS:     925762  HIT %:    5.07128  MISS %:    94.9287   MPKI: 18.5152
L2C DATA LOAD MPKI: 18.5152
L2C INSTRUCTION LOAD MPKI: 0
L2C RFO       ACCESS:      24362  HIT:          0  MISS:      24362  HIT %:          0  MISS %:        100   MPKI: 0.48724
L2C WRITEBACK ACCESS:      24735  HIT:      24735  MISS:          0  HIT %:        100  MISS %:          0   MPKI: 0
L2C LOAD TRANSLATION ACCESS:      14843  HIT:      12962  MISS:       1881  HIT %:    87.3274  MISS %:    12.6726   MPKI: 0.03762
L2C PREFETCH  REQUESTED:          0  ISSUED:          0  USEFUL:          0  USELESS:          0
L2C USEFUL LOAD PREFETCHES:          0 PREFETCH ISSUED TO LOWER LEVEL:          0  ACCURACY: -nan
L2C TIMELY PREFETCHES:          0 LATE PREFETCHES: 0 DROPPED PREFETCHES: 0
L2C PREFETCHES SAME FILL-ORIGIN LEVEL: 0 DIFFERENT FILL-ORIGIN LEVEL: 0
L2C AVERAGE MISS LATENCY: 387.396 cycles
L2C RQ	ACCESS:    1014424	FORWARD:          0	MERGED:          0	TO_CACHE:    1014424
L2C WQ	ACCESS:      24735	FORWARD:          0	MERGED:          0	TO_CACHE:      24735

L2C Instructions Evicting Data 0
L2C Translations Evicting Data 1881
L2C Data Evicting Data 948241
L2C Instructions Evicting Instructions 0
L2C Translations Evicting Instructions 0
L2C Data Evicting Instructions 0
L2C Instructions Evicting Translations 0
L2C Translations Evicting Translations 0
L2C Data Evicting Translations 1883
L2C Dense regions hint from L2: 0
PSCL5 TOTAL     ACCESS:      14842  HIT:      14842  MISS:          0  HIT %:        100  MISS %:          0   MPKI: 0
PSCL5 LOAD TRANSLATION ACCESS:      14842  HIT:      14842  MISS:          0  HIT %:        100  MISS %:          0   MPKI: 0
PSCL5 PREFETCH  REQUESTED:          0  ISSUED:          0  USEFUL:          0  USELESS:          0
PSCL5 USEFUL LOAD PREFETCHES:          0 PREFETCH ISSUED TO LOWER LEVEL:          0  ACCURACY: -nan
PSCL5 TIMELY PREFETCHES:          0 LATE PREFETCHES: 0 DROPPED PREFETCHES: 0
PSCL5 PREFETCHES SAME FILL-ORIGIN LEVEL: 0 DIFFERENT FILL-ORIGIN LEVEL: 0

PSCL4 TOTAL     ACCESS:      14842  HIT:      14842  MISS:          0  HIT %:        100  MISS %:          0   MPKI: 0
PSCL4 LOAD TRANSLATION ACCESS:      14842  HIT:      14842  MISS:          0  HIT %:        100  MISS %:          0   MPKI: 0
PSCL4 PREFETCH  REQUESTED:          0  ISSUED:          0  USEFUL:          0  USELESS:          0
PSCL4 USEFUL LOAD PREFETCHES:          0 PREFETCH ISSUED TO LOWER LEVEL:          0  ACCURACY: -nan
PSCL4 TIMELY PREFETCHES:          0 LATE PREFETCHES: 0 DROPPED PREFETCHES: 0
PSCL4 PREFETCHES SAME FILL-ORIGIN LEVEL: 0 DIFFERENT FILL-ORIGIN LEVEL: 0

PSCL3 TOTAL     ACCESS:      14842  HIT:      14842  MISS:          0  HIT %:        100  MISS %:          0   MPKI: 0
PSCL3 LOAD TRANSLATION ACCESS:      14842  HIT:      14842  MISS:          0  HIT %:        100  MISS %:          0   MPKI: 0
PSCL3 PREFETCH  REQUESTED:          0  ISSUED:          0  USEFUL:          0  USELESS:          0
PSCL3 USEFUL LOAD PREFETCHES:          0 PREFETCH ISSUED TO LOWER LEVEL:          0  ACCURACY: -nan
PSCL3 TIMELY PREFETCHES:          0 LATE PREFETCHES: 0 DROPPED PREFETCHES: 0
PSCL3 PREFETCHES SAME FILL-ORIGIN LEVEL: 0 DIFFERENT FILL-ORIGIN LEVEL: 0

PSCL2 TOTAL     ACCESS:      14842  HIT:      14813  MISS:         29  HIT %:    99.8046  MISS %:   0.195391   MPKI: 0.00058
PSCL2 LOAD TRANSLATION ACCESS:      14842  HIT:      14813  MISS:         29  HIT %:    99.8046  MISS %:   0.195391   MPKI: 0.00058
PSCL2 PREFETCH  REQUESTED:          0  ISSUED:          0  USEFUL:          0  USELESS:          0
PSCL2 USEFUL LOAD PREFETCHES:          0 PREFETCH ISSUED TO LOWER LEVEL:          0  ACCURACY: -nan
PSCL2 TIMELY PREFETCHES:          0 LATE PREFETCHES: 0 DROPPED PREFETCHES: 0
PSCL2 PREFETCHES SAME FILL-ORIGIN LEVEL: 0 DIFFERENT FILL-ORIGIN LEVEL: 0

LLC TOTAL     ACCESS:     976386  HIT:      24381  MISS:     952005  HIT %:    2.49707  MISS %:    97.5029   MPKI: 19.0401
LLC LOAD      ACCESS:     925762  HIT:          0  MISS:     925762  HIT %:          0  MISS %:        100   MPKI: 18.5152
LLC RFO       ACCESS:      24362  HIT:          0  MISS:      24362  HIT %:          0  MISS %:        100   MPKI: 0.48724
LLC WRITEBACK ACCESS:      24381  HIT:      24381  MISS:          0  HIT %:        100  MISS %:          0   MPKI: 0
LLC LOAD TRANSLATION ACCESS:       1881  HIT:          0  MISS:       1881  HIT %:          0  MISS %:        100   MPKI: 0.03762
LLC PREFETCH  REQUESTED:          0  ISSUED:          0  USEFUL:          0  USELESS:          0
LLC USEFUL LOAD PREFETCHES:          0 PREFETCH ISSUED TO LOWER LEVEL:          0  ACCURACY: -nan
LLC TIMELY PREFETCHES:          0 LATE PREFETCHES: 0 DROPPED PREFETCHES: 0
LLC PREFETCHES SAME FILL-ORIGIN LEVEL: 0 DIFFERENT FILL-ORIGIN LEVEL: 0
LLC AVERAGE MISS LATENCY: 356.701 cycles
LLC RQ	ACCESS:     952006	FORWARD:          0	MERGED:          0	TO_CACHE:     952006
LLC WQ	ACCESS:      24381	FORWARD:          0	MERGED:          0	TO_CACHE:      24381

LLC Dense regions hint to LLC: 0

RAW hits: 282641
Loads Generated: 21490010
Loads sent to L1D: 21207368
Stores Generated: 2816683
Stores sent to L1D: 2816683
Major fault: 0 Minor fault: 17247
Allocated PAGES: 17247

DRAM Statistics
 CHANNEL 0
 RQ ROW_BUFFER_HIT:     723288  ROW_BUFFER_MISS:     228717
 DBUS_CONGESTED:     548105
 WQ ROW_BUFFER_HIT:       3466  ROW_BUFFER_MISS:      20818  FULL:          0

 AVG_CONGESTED_CYCLE: 32
 All warmup complete: 2
Channel 0 Bank busy for read cycles: 0
Channel 0 Bank busy for write cycles: 0
Channel 0
Rank 0
0banks busy for read cycles: 39425923
0banks busy for write cycles: 11860
1banks busy for read cycles: 25491021
1banks busy for write cycles: 1357382
2banks busy for read cycles: 14185327
2banks busy for write cycles: 723330
3banks busy for read cycles: 10445337
3banks busy for write cycles: 638007
4banks busy for read cycles: 2087320
4banks busy for write cycles: 18802
5banks busy for read cycles: 251492
5banks busy for write cycles: 0
6banks busy for read cycles: 174
6banks busy for write cycles: 0
7banks busy for read cycles: 0
7banks busy for write cycles: 0
8banks busy for read cycles: 0
8banks busy for write cycles: 0

CPU 0 Branch Prediction Accuracy: 81.2318% MPKI: 4.68478 Average ROB Occupancy at Mispredict: 100.187
Branch types
NOT_BRANCH: 48751613 97.5032%
BRANCH_DIRECT_JUMP: 0 0%
BRANCH_INDIRECT: 0 0%
BRANCH_CONDITIONAL: 1248062 2.49612%
BRANCH_DIRECT_CALL: 0 0%
BRANCH_INDIRECT_CALL: 0 0%
BRANCH_RETURN: 0 0%
BRANCH_OTHER: 0 0%

@sumon_overall_L1D         0         0         0         0         0         0
@Sumon_Early_by_class_L1D         0         0         0         0
@Sumon_Late_by_class_L1D         0         0         0         0

@Sumon_Early_by_cycle_L1D         0         0         0         0         0         0         0         0         0         0         0         0
@Sumon_Late_by_cycle_L1D         0         0         0         0         0         0         0         0         0         0         0         0
@Sumon_Early_stream_L1D         0         0         0         0         0         0         0         0         0         0         0         0
@Sumon_Early_CS_L1D         0         0         0         0         0         0         0         0         0         0         0         0
@Sumon_Early_CPLX_L1D         0         0         0         0         0         0         0         0         0         0         0         0
@Sumon_Late_stream_L1D         0         0         0         0         0         0         0         0         0         0         0         0
@Sumon_Late_CS_L1D         0         0         0         0         0         0         0         0         0         0         0         0
@Sumon_Late_CPLX_L1D         0         0         0         0         0         0         0         0         0         0         0         0
@sumon_overall_L2C         0         0         0         0         0         0
@Sumon_Early_by_class_L2C         0         0         0         0
@Sumon_Late_by_class_L2C         0         0         0         0

@Sumon_Early_by_cycle_L2C         0         0         0         0         0         0         0         0         0         0         0         0
@Sumon_Late_by_cycle_L2C         0         0         0         0         0         0         0         0         0         0         0         0
@Sumon_Early_stream_L2C         0         0         0         0         0         0         0         0         0         0         0         0
@Sumon_Early_CS_L2C         0         0         0         0         0         0         0         0         0         0         0         0
@Sumon_Early_CPLX_L2C         0         0         0         0         0         0         0         0         0         0         0         0
@Sumon_Late_stream_L2C         0         0         0         0         0         0         0         0         0         0         0         0
@Sumon_Late_CS_L2C         0         0         0         0         0         0         0         0         0         0         0         0
@Sumon_Late_CPLX_L2C         0         0         0         0         0         0         0         0         0         0         0         0
DRAM PAGES: 1048576
Allocated PAGES: 17247
