
*** ChampSim Multicore Out-of-Order Simulator ***

Warmup Instructions: 10000000
Simulation Instructions: 50000000
Number of CPUs: 1
LLC sets: 2048
LLC ways: 16
Off-chip DRAM Size: 4096 MB Channels: 1 Width: 64-bit Data Rate: 800 MT/s
CPU 0 runs traces/SPEC2017/605.mcf_s-484B.champsimtrace.xz
.xz
CPU 0 Bimodal branch predictor
BTB has LRU replacement policy
ITLB has LRU replacement policy
DTLB has LRU replacement policy
STLB has LRU replacement policy
L1I has LRU replacement policy
L1D has LRU replacement policy
L2C has LRU replacement policy
LLC has LRU replacement policy
Heartbeat CPU 0 instructions: 10000001 cycles: 3227108 heartbeat IPC: 3.09875 cumulative IPC: 3.09875 (Simulation time: 0 hr 19 min 44 sec) 

Warmup complete CPU 0 instructions: 10000001 cycles: 3227108 (Simulation time: 0 hr 19 min 44 sec) 

Heartbeat CPU 0 instructions: 20000000 cycles: 43444483 heartbeat IPC: 0.248649 cumulative IPC: 0.248649 (Simulation time: 0 hr 55 min 25 sec) 
Heartbeat CPU 0 instructions: 30000000 cycles: 80563581 heartbeat IPC: 0.269403 cumulative IPC: 0.25861 (Simulation time: 1 hr 30 min 19 sec) 
Heartbeat CPU 0 instructions: 40000000 cycles: 115360632 heartbeat IPC: 0.287381 cumulative IPC: 0.267538 (Simulation time: 2 hr 0 min 17 sec) 
Heartbeat CPU 0 instructions: 50000000 cycles: 153625556 heartbeat IPC: 0.261336 cumulative IPC: 0.26596 (Simulation time: 2 hr 18 min 44 sec) 
Heartbeat CPU 0 instructions: 60000000 cycles: 190330013 heartbeat IPC: 0.272446 cumulative IPC: 0.267233 (Simulation time: 2 hr 28 min 34 sec) 
Finished CPU 0 instructions: 50000000 cycles: 187102922 cumulative IPC: 0.267233 (Simulation time: 2 hr 28 min 34 sec) 

ChampSim completed all CPUs

Region of Interest Statistics

CPU 0 cumulative IPC: 0.267233 instructions: 50000000 cycles: 187102922
ITLB TOTAL     ACCESS:    8322116  HIT:    8322116  MISS:          0  HIT %:        100  MISS %:          0   MPKI: 0
ITLB LOAD TRANSLATION ACCESS:    8322116  HIT:    8322116  MISS:          0  HIT %:        100  MISS %:          0   MPKI: 0
ITLB PREFETCH  REQUESTED:          0  ISSUED:          0  USEFUL:          0  USELESS:          0
ITLB USEFUL LOAD PREFETCHES:          0 PREFETCH ISSUED TO LOWER LEVEL:          0  ACCURACY: -nan
ITLB TIMELY PREFETCHES:          0 LATE PREFETCHES: 0 DROPPED PREFETCHES: 0
ITLB PREFETCHES SAME FILL-ORIGIN LEVEL: 0 DIFFERENT FILL-ORIGIN LEVEL: 0
ITLB AVERAGE MISS LATENCY: -nan cycles
ITLB RQ	ACCESS:   10807756	FORWARD:          0	MERGED:    2485641	TO_CACHE:    8322115

DTLB TOTAL     ACCESS:   13235467  HIT:   13128558  MISS:     106909  HIT %:    99.1923  MISS %:   0.807746   MPKI: 2.13818
DTLB LOAD TRANSLATION ACCESS:   13235467  HIT:   13128558  MISS:     106909  HIT %:    99.1923  MISS %:   0.807746   MPKI: 2.13818
DTLB PREFETCH  REQUESTED:          0  ISSUED:          0  USEFUL:          0  USELESS:          0
DTLB USEFUL LOAD PREFETCHES:          0 PREFETCH ISSUED TO LOWER LEVEL:          0  ACCURACY: -nan
DTLB TIMELY PREFETCHES:          0 LATE PREFETCHES: 0 DROPPED PREFETCHES: 0
DTLB PREFETCHES SAME FILL-ORIGIN LEVEL: 0 DIFFERENT FILL-ORIGIN LEVEL: 0
DTLB AVERAGE MISS LATENCY: 37.2184 cycles
DTLB RQ	ACCESS:   23527064	FORWARD:          0	MERGED:   10283719	TO_CACHE:   13243345

STLB TOTAL     ACCESS:     106909  HIT:      72402  MISS:      34507  HIT %:     67.723  MISS %:     32.277   MPKI: 0.69014
STLB LOAD TRANSLATION ACCESS:     106909  HIT:      72402  MISS:      34507  HIT %:     67.723  MISS %:     32.277   MPKI: 0.69014
STLB PREFETCH  REQUESTED:          0  ISSUED:          0  USEFUL:          0  USELESS:          0
STLB USEFUL LOAD PREFETCHES:          0 PREFETCH ISSUED TO LOWER LEVEL:          0  ACCURACY: -nan
STLB TIMELY PREFETCHES:          0 LATE PREFETCHES: 0 DROPPED PREFETCHES: 0
STLB PREFETCHES SAME FILL-ORIGIN LEVEL: 0 DIFFERENT FILL-ORIGIN LEVEL: 0
STLB AVERAGE MISS LATENCY: 87.4138 cycles
STLB RQ	ACCESS:     106909	FORWARD:          0	MERGED:          0	TO_CACHE:     106909

STLB Hit, L1D data hit: 0
STLB Hit, L2C data hit: 0
STLB Hit, LLC data hit: 0
STLB Hit, LLC data miss: 0
STLB STLB hints to L2: 0
L1D TOTAL     ACCESS:   23086919  HIT:   21871476  MISS:    1215443  HIT %:    94.7354  MISS %:    5.26464   MPKI: 24.3089
L1D LOAD      ACCESS:    8949687  HIT:    7842757  MISS:    1106930  HIT %:    87.6316  MISS %:    12.3684   MPKI: 22.1386
L1D RFO       ACCESS:   14137232  HIT:   14028719  MISS:     108513  HIT %:    99.2324  MISS %:   0.767569   MPKI: 2.17026
L1D PREFETCH  REQUESTED:          0  ISSUED:          0  USEFUL:          0  USELESS:          0
L1D USEFUL LOAD PREFETCHES:          0 PREFETCH ISSUED TO LOWER LEVEL:          0  ACCURACY: -nan
L1D TIMELY PREFETCHES:          0 LATE PREFETCHES: 0 DROPPED PREFETCHES: 0
L1D PREFETCHES SAME FILL-ORIGIN LEVEL: 0 DIFFERENT FILL-ORIGIN LEVEL: 0
L1D AVERAGE MISS LATENCY: 223.758 cycles
L1D RQ	ACCESS:   15555484	FORWARD:          0	MERGED:    6481541	TO_CACHE:    9069538
L1D WQ	ACCESS:   14570723	FORWARD:       4405	MERGED:     113197	TO_CACHE:   14457526

L1D UNIQUE REGIONS ACCESSED: 0
L1D REGIONS CONFLICTS: 0
L1D Cross Page Prefetch Requests: 0
L1D Same Page Prefetch Requests: 0
L1D ROI Sum of L1D PQ occupancy: 0
L1D PREFETCHES PUSHED FROM L2C: 0
L1I TOTAL     ACCESS:   10807757  HIT:   10807757  MISS:          0  HIT %:        100  MISS %:          0   MPKI: 0
L1I LOAD      ACCESS:   10807757  HIT:   10807757  MISS:          0  HIT %:        100  MISS %:          0   MPKI: 0
L1I PREFETCH  REQUESTED:          0  ISSUED:          0  USEFUL:          0  USELESS:          0
L1I USEFUL LOAD PREFETCHES:          0 PREFETCH ISSUED TO LOWER LEVEL:          0  ACCURACY: -nan
L1I TIMELY PREFETCHES:          0 LATE PREFETCHES: 0 DROPPED PREFETCHES: 0
L1I PREFETCHES SAME FILL-ORIGIN LEVEL: 0 DIFFERENT FILL-ORIGIN LEVEL: 0
L1I AVERAGE MISS LATENCY: -nan cycles
L1I RQ	ACCESS:   14690468	FORWARD:          0	MERGED:    3882712	TO_CACHE:   10807756

BTB TOTAL     ACCESS:    4772229  HIT:    4772195  MISS:         34  HIT %:    99.9993  MISS %: 0.000712455   MPKI: 0.00068
BTB BRANCH_DIRECT_JUMP	ACCESS:     215829  HIT:     215823  MISS:          6
BTB BRANCH_INDIRECT	ACCESS:          0  HIT:          0  MISS:          0
BTB BRANCH_CONDITIONAL	ACCESS:    4556360  HIT:    4556336  MISS:         24
BTB BRANCH_DIRECT_CALL	ACCESS:         20  HIT:         18  MISS:          2
BTB BRANCH_INDIRECT_CALL	ACCESS:          0  HIT:          0  MISS:          0
BTB BRANCH_RETURN	ACCESS:         20  HIT:         18  MISS:          2
BTB BRANCH_OTHER ACCESS:          0  HIT:          0  MISS:          0

L2C TOTAL     ACCESS:    1563618  HIT:     365462  MISS:    1198156  HIT %:    23.3728  MISS %:    76.6272   MPKI: 23.9631
L2C LOAD      ACCESS:    1106927  HIT:      22334  MISS:    1084593  HIT %:    2.01766  MISS %:    97.9823   MPKI: 21.6919
L2C DATA LOAD MPKI: 21.6919
L2C INSTRUCTION LOAD MPKI: 0
L2C RFO       ACCESS:     108511  HIT:        759  MISS:     107752  HIT %:   0.699468  MISS %:    99.3005   MPKI: 2.15504
L2C WRITEBACK ACCESS:     313591  HIT:     312831  MISS:        760  HIT %:    99.7576  MISS %:   0.242354   MPKI: 0.0152
L2C LOAD TRANSLATION ACCESS:      34589  HIT:      29538  MISS:       5051  HIT %:    85.3971  MISS %:    14.6029   MPKI: 0.10102
L2C PREFETCH  REQUESTED:          0  ISSUED:          0  USEFUL:          0  USELESS:          0
L2C USEFUL LOAD PREFETCHES:          0 PREFETCH ISSUED TO LOWER LEVEL:          0  ACCURACY: -nan
L2C TIMELY PREFETCHES:          0 LATE PREFETCHES: 0 DROPPED PREFETCHES: 0
L2C PREFETCHES SAME FILL-ORIGIN LEVEL: 0 DIFFERENT FILL-ORIGIN LEVEL: 0
L2C AVERAGE MISS LATENCY: 212.66 cycles
L2C RQ	ACCESS:    1250035	FORWARD:          0	MERGED:          0	TO_CACHE:    1250030
L2C WQ	ACCESS:     313591	FORWARD:          5	MERGED:          0	TO_CACHE:     313591

L2C Instructions Evicting Data 0
L2C Translations Evicting Data 5036
L2C Data Evicting Data 1187307
L2C Instructions Evicting Instructions 0
L2C Translations Evicting Instructions 0
L2C Data Evicting Instructions 0
L2C Instructions Evicting Translations 0
L2C Translations Evicting Translations 15
L2C Data Evicting Translations 5038
L2C Dense regions hint from L2: 0
PSCL5 TOTAL     ACCESS:      34507  HIT:      34507  MISS:          0  HIT %:        100  MISS %:          0   MPKI: 0
PSCL5 LOAD TRANSLATION ACCESS:      34507  HIT:      34507  MISS:          0  HIT %:        100  MISS %:          0   MPKI: 0
PSCL5 PREFETCH  REQUESTED:          0  ISSUED:          0  USEFUL:          0  USELESS:          0
PSCL5 USEFUL LOAD PREFETCHES:          0 PREFETCH ISSUED TO LOWER LEVEL:          0  ACCURACY: -nan
PSCL5 TIMELY PREFETCHES:          0 LATE PREFETCHES: 0 DROPPED PREFETCHES: 0
PSCL5 PREFETCHES SAME FILL-ORIGIN LEVEL: 0 DIFFERENT FILL-ORIGIN LEVEL: 0

PSCL4 TOTAL     ACCESS:      34507  HIT:      34507  MISS:          0  HIT %:        100  MISS %:          0   MPKI: 0
PSCL4 LOAD TRANSLATION ACCESS:      34507  HIT:      34507  MISS:          0  HIT %:        100  MISS %:          0   MPKI: 0
PSCL4 PREFETCH  REQUESTED:          0  ISSUED:          0  USEFUL:          0  USELESS:          0
PSCL4 USEFUL LOAD PREFETCHES:          0 PREFETCH ISSUED TO LOWER LEVEL:          0  ACCURACY: -nan
PSCL4 TIMELY PREFETCHES:          0 LATE PREFETCHES: 0 DROPPED PREFETCHES: 0
PSCL4 PREFETCHES SAME FILL-ORIGIN LEVEL: 0 DIFFERENT FILL-ORIGIN LEVEL: 0

PSCL3 TOTAL     ACCESS:      34507  HIT:      34507  MISS:          0  HIT %:        100  MISS %:          0   MPKI: 0
PSCL3 LOAD TRANSLATION ACCESS:      34507  HIT:      34507  MISS:          0  HIT %:        100  MISS %:          0   MPKI: 0
PSCL3 PREFETCH  REQUESTED:          0  ISSUED:          0  USEFUL:          0  USELESS:          0
PSCL3 USEFUL LOAD PREFETCHES:          0 PREFETCH ISSUED TO LOWER LEVEL:          0  ACCURACY: -nan
PSCL3 TIMELY PREFETCHES:          0 LATE PREFETCHES: 0 DROPPED PREFETCHES: 0
PSCL3 PREFETCHES SAME FILL-ORIGIN LEVEL: 0 DIFFERENT FILL-ORIGIN LEVEL: 0

PSCL2 TOTAL     ACCESS:      34507  HIT:      34394  MISS:        113  HIT %:    99.6725  MISS %:    0.32747   MPKI: 0.00226
PSCL2 LOAD TRANSLATION ACCESS:      34507  HIT:      34394  MISS:        113  HIT %:    99.6725  MISS %:    0.32747   MPKI: 0.00226
PSCL2 PREFETCH  REQUESTED:          0  ISSUED:          0  USEFUL:          0  USELESS:          0
PSCL2 USEFUL LOAD PREFETCHES:          0 PREFETCH ISSUED TO LOWER LEVEL:          0  ACCURACY: -nan
PSCL2 TIMELY PREFETCHES:          0 LATE PREFETCHES: 0 DROPPED PREFETCHES: 0
PSCL2 PREFETCHES SAME FILL-ORIGIN LEVEL: 0 DIFFERENT FILL-ORIGIN LEVEL: 0

LLC TOTAL     ACCESS:    1496284  HIT:     300506  MISS:    1195778  HIT %:    20.0835  MISS %:    79.9165   MPKI: 23.9156
LLC LOAD      ACCESS:    1084593  HIT:       1857  MISS:    1082736  HIT %:   0.171216  MISS %:    99.8288   MPKI: 21.6547
LLC RFO       ACCESS:     107752  HIT:         19  MISS:     107733  HIT %:  0.0176331  MISS %:    99.9824   MPKI: 2.15466
LLC WRITEBACK ACCESS:     298888  HIT:     298417  MISS:        471  HIT %:    99.8424  MISS %:   0.157584   MPKI: 0.00942
LLC LOAD TRANSLATION ACCESS:       5051  HIT:        213  MISS:       4838  HIT %:    4.21699  MISS %:     95.783   MPKI: 0.09676
LLC PREFETCH  REQUESTED:          0  ISSUED:          0  USEFUL:          0  USELESS:          0
LLC USEFUL LOAD PREFETCHES:          0 PREFETCH ISSUED TO LOWER LEVEL:          0  ACCURACY: -nan
LLC TIMELY PREFETCHES:          0 LATE PREFETCHES: 0 DROPPED PREFETCHES: 0
LLC PREFETCHES SAME FILL-ORIGIN LEVEL: 0 DIFFERENT FILL-ORIGIN LEVEL: 0
LLC AVERAGE MISS LATENCY: 182.997 cycles
LLC RQ	ACCESS:    1197399	FORWARD:          0	MERGED:          0	TO_CACHE:    1197399
LLC WQ	ACCESS:     298888	FORWARD:          0	MERGED:          0	TO_CACHE:     298888

LLC Dense regions hint to LLC: 0

RAW hits: 266076
Loads Generated: 15821569
Loads sent to L1D: 15555484
Stores Generated: 14570730
Stores sent to L1D: 14570723
Major fault: 0 Minor fault: 18248
Allocated PAGES: 18248

DRAM Statistics
 CHANNEL 0
 RQ ROW_BUFFER_HIT:     455287  ROW_BUFFER_MISS:     740005
 DBUS_CONGESTED:     827671
 WQ ROW_BUFFER_HIT:     119286  ROW_BUFFER_MISS:     186831  FULL:          0

 AVG_CONGESTED_CYCLE: 32
 All warmup complete: 2
Channel 0 Bank busy for read cycles: 0
Channel 0 Bank busy for write cycles: 0
Channel 0
Rank 0
0banks busy for read cycles: 51797263
0banks busy for write cycles: 49646
1banks busy for read cycles: 61652248
1banks busy for write cycles: 10638096
2banks busy for read cycles: 20299019
2banks busy for write cycles: 7254219
3banks busy for read cycles: 10853780
3banks busy for write cycles: 4624582
4banks busy for read cycles: 4864410
4banks busy for write cycles: 2761028
5banks busy for read cycles: 1281782
5banks busy for write cycles: 1549381
6banks busy for read cycles: 203143
6banks busy for write cycles: 959265
7banks busy for read cycles: 15869
7banks busy for write cycles: 1048701
8banks busy for read cycles: 143
8banks busy for write cycles: 7250348

CPU 0 Branch Prediction Accuracy: 98.133% MPKI: 1.81274 Average ROB Occupancy at Mispredict: 212
Branch types
NOT_BRANCH: 45145342 90.2907%
BRANCH_DIRECT_JUMP: 215829 0.431658%
BRANCH_INDIRECT: 0 0%
BRANCH_CONDITIONAL: 4638791 9.27758%
BRANCH_DIRECT_CALL: 20 4e-05%
BRANCH_INDIRECT_CALL: 0 0%
BRANCH_RETURN: 20 4e-05%
BRANCH_OTHER: 0 0%

@sumon_overall_L1D         0         0         0         0         0         0
@Sumon_Early_by_class_L1D         0         0         0         0
@Sumon_Late_by_class_L1D         0         0         0         0

@Sumon_Early_by_cycle_L1D         0         0         0         0         0         0         0         0         0         0         0         0
@Sumon_Late_by_cycle_L1D         0         0         0         0         0         0         0         0         0         0         0         0
@Sumon_Early_stream_L1D         0         0         0         0         0         0         0         0         0         0         0         0
@Sumon_Early_CS_L1D         0         0         0         0         0         0         0         0         0         0         0         0
@Sumon_Early_CPLX_L1D         0         0         0         0         0         0         0         0         0         0         0         0
@Sumon_Late_stream_L1D         0         0         0         0         0         0         0         0         0         0         0         0
@Sumon_Late_CS_L1D         0         0         0         0         0         0         0         0         0         0         0         0
@Sumon_Late_CPLX_L1D         0         0         0         0         0         0         0         0         0         0         0         0
@sumon_overall_L2C         0         0         0         0         0         0
@Sumon_Early_by_class_L2C         0         0         0         0
@Sumon_Late_by_class_L2C         0         0         0         0

@Sumon_Early_by_cycle_L2C         0         0         0         0         0         0         0         0         0         0         0         0
@Sumon_Late_by_cycle_L2C         0         0         0         0         0         0         0         0         0         0         0         0
@Sumon_Early_stream_L2C         0         0         0         0         0         0         0         0         0         0         0         0
@Sumon_Early_CS_L2C         0         0         0         0         0         0         0         0         0         0         0         0
@Sumon_Early_CPLX_L2C         0         0         0         0         0         0         0         0         0         0         0         0
@Sumon_Late_stream_L2C         0         0         0         0         0         0         0         0         0         0         0         0
@Sumon_Late_CS_L2C         0         0         0         0         0         0         0         0         0         0         0         0
@Sumon_Late_CPLX_L2C         0         0         0         0         0         0         0         0         0         0         0         0
DRAM PAGES: 1048576
Allocated PAGES: 18248
