
*** ChampSim Multicore Out-of-Order Simulator ***

Warmup Instructions: 10000000
Simulation Instructions: 50000000
Number of CPUs: 1
LLC sets: 2048
LLC ways: 16
Off-chip DRAM Size: 4096 MB Channels: 1 Width: 64-bit Data Rate: 800 MT/s
CPU 0 runs traces/SPEC2017/605.mcf_s-782B.champsimtrace.xz
.xz
CPU 0 Bimodal branch predictor
BTB has LRU replacement policy
ITLB has LRU replacement policy
DTLB has LRU replacement policy
STLB has LRU replacement policy
L1I has LRU replacement policy
L1D has LRU replacement policy
L2C has LRU replacement policy
LLC has LRU replacement policy
Heartbeat CPU 0 instructions: 10000001 cycles: 3773575 heartbeat IPC: 2.65001 cumulative IPC: 2.65001 (Simulation time: 0 hr 19 min 26 sec) 

Warmup complete CPU 0 instructions: 10000001 cycles: 3773575 (Simulation time: 0 hr 19 min 26 sec) 

Heartbeat CPU 0 instructions: 20000000 cycles: 73424910 heartbeat IPC: 0.143572 cumulative IPC: 0.143572 (Simulation time: 0 hr 54 min 40 sec) 
Heartbeat CPU 0 instructions: 30000001 cycles: 150750795 heartbeat IPC: 0.129323 cumulative IPC: 0.136076 (Simulation time: 1 hr 31 min 22 sec) 
Heartbeat CPU 0 instructions: 40000002 cycles: 226505665 heartbeat IPC: 0.132005 cumulative IPC: 0.134691 (Simulation time: 2 hr 3 min 39 sec) 
Heartbeat CPU 0 instructions: 50000000 cycles: 305941964 heartbeat IPC: 0.125887 cumulative IPC: 0.132377 (Simulation time: 2 hr 21 min 0 sec) 
Heartbeat CPU 0 instructions: 60000003 cycles: 378280746 heartbeat IPC: 0.138238 cumulative IPC: 0.133509 (Simulation time: 2 hr 30 min 28 sec) 
Finished CPU 0 instructions: 50000002 cycles: 374507171 cumulative IPC: 0.133509 (Simulation time: 2 hr 30 min 28 sec) 

ChampSim completed all CPUs

Region of Interest Statistics

CPU 0 cumulative IPC: 0.133509 instructions: 50000002 cycles: 374507171
ITLB TOTAL     ACCESS:    8208334  HIT:    8208334  MISS:          0  HIT %:        100  MISS %:          0   MPKI: 0
ITLB LOAD TRANSLATION ACCESS:    8208334  HIT:    8208334  MISS:          0  HIT %:        100  MISS %:          0   MPKI: 0
ITLB PREFETCH  REQUESTED:          0  ISSUED:          0  USEFUL:          0  USELESS:          0
ITLB USEFUL LOAD PREFETCHES:          0 PREFETCH ISSUED TO LOWER LEVEL:          0  ACCURACY: -nan
ITLB TIMELY PREFETCHES:          0 LATE PREFETCHES: 0 DROPPED PREFETCHES: 0
ITLB PREFETCHES SAME FILL-ORIGIN LEVEL: 0 DIFFERENT FILL-ORIGIN LEVEL: 0
ITLB AVERAGE MISS LATENCY: -nan cycles
ITLB RQ	ACCESS:    8321386	FORWARD:          0	MERGED:     113052	TO_CACHE:    8208334

DTLB TOTAL     ACCESS:   10654784  HIT:    6325819  MISS:    4328965  HIT %:    59.3707  MISS %:    40.6293   MPKI: 86.5793
DTLB LOAD TRANSLATION ACCESS:   10654784  HIT:    6325819  MISS:    4328965  HIT %:    59.3707  MISS %:    40.6293   MPKI: 86.5793
DTLB PREFETCH  REQUESTED:          0  ISSUED:          0  USEFUL:          0  USELESS:          0
DTLB USEFUL LOAD PREFETCHES:          0 PREFETCH ISSUED TO LOWER LEVEL:          0  ACCURACY: -nan
DTLB TIMELY PREFETCHES:          0 LATE PREFETCHES: 0 DROPPED PREFETCHES: 0
DTLB PREFETCHES SAME FILL-ORIGIN LEVEL: 0 DIFFERENT FILL-ORIGIN LEVEL: 0
DTLB AVERAGE MISS LATENCY: 10.8903 cycles
DTLB RQ	ACCESS:   11776299	FORWARD:          0	MERGED:    1060908	TO_CACHE:   10715391

STLB TOTAL     ACCESS:    4328965  HIT:    4272230  MISS:      56735  HIT %:    98.6894  MISS %:    1.31059   MPKI: 1.1347
STLB LOAD TRANSLATION ACCESS:    4328965  HIT:    4272230  MISS:      56735  HIT %:    98.6894  MISS %:    1.31059   MPKI: 1.1347
STLB PREFETCH  REQUESTED:          0  ISSUED:          0  USEFUL:          0  USELESS:          0
STLB USEFUL LOAD PREFETCHES:          0 PREFETCH ISSUED TO LOWER LEVEL:          0  ACCURACY: -nan
STLB TIMELY PREFETCHES:          0 LATE PREFETCHES: 0 DROPPED PREFETCHES: 0
STLB PREFETCHES SAME FILL-ORIGIN LEVEL: 0 DIFFERENT FILL-ORIGIN LEVEL: 0
STLB AVERAGE MISS LATENCY: 137.995 cycles
STLB RQ	ACCESS:    4328965	FORWARD:          0	MERGED:          0	TO_CACHE:    4328965

STLB Hit, L1D data hit: 0
STLB Hit, L2C data hit: 0
STLB Hit, LLC data hit: 0
STLB Hit, LLC data miss: 0
STLB STLB hints to L2: 0
L1D TOTAL     ACCESS:   11306785  HIT:    3726219  MISS:    7580566  HIT %:    32.9556  MISS %:    67.0444   MPKI: 151.611
L1D LOAD      ACCESS:   10359306  HIT:    2796137  MISS:    7563169  HIT %:    26.9915  MISS %:    73.0085   MPKI: 151.263
L1D RFO       ACCESS:     947479  HIT:     930082  MISS:      17397  HIT %:    98.1639  MISS %:    1.83614   MPKI: 0.34794
L1D PREFETCH  REQUESTED:          0  ISSUED:          0  USEFUL:          0  USELESS:          0
L1D USEFUL LOAD PREFETCHES:          0 PREFETCH ISSUED TO LOWER LEVEL:          0  ACCURACY: -nan
L1D TIMELY PREFETCHES:          0 LATE PREFETCHES: 0 DROPPED PREFETCHES: 0
L1D PREFETCHES SAME FILL-ORIGIN LEVEL: 0 DIFFERENT FILL-ORIGIN LEVEL: 0
L1D AVERAGE MISS LATENCY: 134.348 cycles
L1D RQ	ACCESS:   17869433	FORWARD:          0	MERGED:    6935531	TO_CACHE:   10786734
L1D WQ	ACCESS:    1026019	FORWARD:     147168	MERGED:      36454	TO_CACHE:     989565

L1D UNIQUE REGIONS ACCESSED: 0
L1D REGIONS CONFLICTS: 0
L1D Cross Page Prefetch Requests: 0
L1D Same Page Prefetch Requests: 0
L1D ROI Sum of L1D PQ occupancy: 0
L1D PREFETCHES PUSHED FROM L2C: 0
L1I TOTAL     ACCESS:    8321386  HIT:    8321386  MISS:          0  HIT %:        100  MISS %:          0   MPKI: 0
L1I LOAD      ACCESS:    8321386  HIT:    8321386  MISS:          0  HIT %:        100  MISS %:          0   MPKI: 0
L1I PREFETCH  REQUESTED:          0  ISSUED:          0  USEFUL:          0  USELESS:          0
L1I USEFUL LOAD PREFETCHES:          0 PREFETCH ISSUED TO LOWER LEVEL:          0  ACCURACY: -nan
L1I TIMELY PREFETCHES:          0 LATE PREFETCHES: 0 DROPPED PREFETCHES: 0
L1I PREFETCHES SAME FILL-ORIGIN LEVEL: 0 DIFFERENT FILL-ORIGIN LEVEL: 0
L1I AVERAGE MISS LATENCY: -nan cycles
L1I RQ	ACCESS:   11260462	FORWARD:          0	MERGED:    2939076	TO_CACHE:    8321386

BTB TOTAL     ACCESS:   14274117  HIT:   14220061  MISS:      54056  HIT %:    99.6213  MISS %:   0.378699   MPKI: 1.08112
BTB BRANCH_DIRECT_JUMP	ACCESS:    1888246  HIT:    1888209  MISS:         37
BTB BRANCH_INDIRECT	ACCESS:          0  HIT:          0  MISS:          0
BTB BRANCH_CONDITIONAL	ACCESS:   11987047  HIT:   11986967  MISS:         80
BTB BRANCH_DIRECT_CALL	ACCESS:     184334  HIT:     184317  MISS:         17
BTB BRANCH_INDIRECT_CALL	ACCESS:      15078  HIT:      15070  MISS:          8
BTB BRANCH_RETURN	ACCESS:     199412  HIT:     145498  MISS:      53914
BTB BRANCH_OTHER ACCESS:          0  HIT:          0  MISS:          0

L2C TOTAL     ACCESS:    7785964  HIT:     995499  MISS:    6790465  HIT %:    12.7858  MISS %:    87.2142   MPKI: 135.809
L2C LOAD      ACCESS:    7563161  HIT:     805937  MISS:    6757224  HIT %:    10.6561  MISS %:    89.3439   MPKI: 135.144
L2C DATA LOAD MPKI: 135.144
L2C INSTRUCTION LOAD MPKI: 0
L2C RFO       ACCESS:      17397  HIT:       2165  MISS:      15232  HIT %:    12.4447  MISS %:    87.5553   MPKI: 0.30464
L2C WRITEBACK ACCESS:     148263  HIT:     148263  MISS:          0  HIT %:        100  MISS %:          0   MPKI: 0
L2C LOAD TRANSLATION ACCESS:      57143  HIT:      39134  MISS:      18009  HIT %:    68.4843  MISS %:    31.5157   MPKI: 0.36018
L2C PREFETCH  REQUESTED:          0  ISSUED:          0  USEFUL:          0  USELESS:          0
L2C USEFUL LOAD PREFETCHES:          0 PREFETCH ISSUED TO LOWER LEVEL:          0  ACCURACY: -nan
L2C TIMELY PREFETCHES:          0 LATE PREFETCHES: 0 DROPPED PREFETCHES: 0
L2C PREFETCHES SAME FILL-ORIGIN LEVEL: 0 DIFFERENT FILL-ORIGIN LEVEL: 0
L2C AVERAGE MISS LATENCY: 133.484 cycles
L2C RQ	ACCESS:    7637707	FORWARD:          0	MERGED:          0	TO_CACHE:    7637700
L2C WQ	ACCESS:     148263	FORWARD:          7	MERGED:          0	TO_CACHE:     148263

L2C Instructions Evicting Data 0
L2C Translations Evicting Data 17941
L2C Data Evicting Data 6754521
L2C Instructions Evicting Instructions 0
L2C Translations Evicting Instructions 0
L2C Data Evicting Instructions 0
L2C Instructions Evicting Translations 0
L2C Translations Evicting Translations 68
L2C Data Evicting Translations 17935
L2C Dense regions hint from L2: 0
PSCL5 TOTAL     ACCESS:      56735  HIT:      56735  MISS:          0  HIT %:        100  MISS %:          0   MPKI: 0
PSCL5 LOAD TRANSLATION ACCESS:      56735  HIT:      56735  MISS:          0  HIT %:        100  MISS %:          0   MPKI: 0
PSCL5 PREFETCH  REQUESTED:          0  ISSUED:          0  USEFUL:          0  USELESS:          0
PSCL5 USEFUL LOAD PREFETCHES:          0 PREFETCH ISSUED TO LOWER LEVEL:          0  ACCURACY: -nan
PSCL5 TIMELY PREFETCHES:          0 LATE PREFETCHES: 0 DROPPED PREFETCHES: 0
PSCL5 PREFETCHES SAME FILL-ORIGIN LEVEL: 0 DIFFERENT FILL-ORIGIN LEVEL: 0

PSCL4 TOTAL     ACCESS:      56735  HIT:      56735  MISS:          0  HIT %:        100  MISS %:          0   MPKI: 0
PSCL4 LOAD TRANSLATION ACCESS:      56735  HIT:      56735  MISS:          0  HIT %:        100  MISS %:          0   MPKI: 0
PSCL4 PREFETCH  REQUESTED:          0  ISSUED:          0  USEFUL:          0  USELESS:          0
PSCL4 USEFUL LOAD PREFETCHES:          0 PREFETCH ISSUED TO LOWER LEVEL:          0  ACCURACY: -nan
PSCL4 TIMELY PREFETCHES:          0 LATE PREFETCHES: 0 DROPPED PREFETCHES: 0
PSCL4 PREFETCHES SAME FILL-ORIGIN LEVEL: 0 DIFFERENT FILL-ORIGIN LEVEL: 0

PSCL3 TOTAL     ACCESS:      56735  HIT:      56735  MISS:          0  HIT %:        100  MISS %:          0   MPKI: 0
PSCL3 LOAD TRANSLATION ACCESS:      56735  HIT:      56735  MISS:          0  HIT %:        100  MISS %:          0   MPKI: 0
PSCL3 PREFETCH  REQUESTED:          0  ISSUED:          0  USEFUL:          0  USELESS:          0
PSCL3 USEFUL LOAD PREFETCHES:          0 PREFETCH ISSUED TO LOWER LEVEL:          0  ACCURACY: -nan
PSCL3 TIMELY PREFETCHES:          0 LATE PREFETCHES: 0 DROPPED PREFETCHES: 0
PSCL3 PREFETCHES SAME FILL-ORIGIN LEVEL: 0 DIFFERENT FILL-ORIGIN LEVEL: 0

PSCL2 TOTAL     ACCESS:      56735  HIT:      56041  MISS:        694  HIT %:    98.7768  MISS %:    1.22323   MPKI: 0.01388
PSCL2 LOAD TRANSLATION ACCESS:      56735  HIT:      56041  MISS:        694  HIT %:    98.7768  MISS %:    1.22323   MPKI: 0.01388
PSCL2 PREFETCH  REQUESTED:          0  ISSUED:          0  USEFUL:          0  USELESS:          0
PSCL2 USEFUL LOAD PREFETCHES:          0 PREFETCH ISSUED TO LOWER LEVEL:          0  ACCURACY: -nan
PSCL2 TIMELY PREFETCHES:          0 LATE PREFETCHES: 0 DROPPED PREFETCHES: 0
PSCL2 PREFETCHES SAME FILL-ORIGIN LEVEL: 0 DIFFERENT FILL-ORIGIN LEVEL: 0

LLC TOTAL     ACCESS:    6929205  HIT:    3052913  MISS:    3876292  HIT %:    44.0586  MISS %:    55.9414   MPKI: 77.5258
LLC LOAD      ACCESS:    6757223  HIT:    2893291  MISS:    3863932  HIT %:    42.8178  MISS %:    57.1822   MPKI: 77.2786
LLC RFO       ACCESS:      15232  HIT:      13113  MISS:       2119  HIT %:    86.0885  MISS %:    13.9115   MPKI: 0.04238
LLC WRITEBACK ACCESS:     138741  HIT:     138461  MISS:        280  HIT %:    99.7982  MISS %:   0.201815   MPKI: 0.0056
LLC LOAD TRANSLATION ACCESS:      18009  HIT:       8048  MISS:       9961  HIT %:    44.6888  MISS %:    55.3112   MPKI: 0.19922
LLC PREFETCH  REQUESTED:          0  ISSUED:          0  USEFUL:          0  USELESS:          0
LLC USEFUL LOAD PREFETCHES:          0 PREFETCH ISSUED TO LOWER LEVEL:          0  ACCURACY: -nan
LLC TIMELY PREFETCHES:          0 LATE PREFETCHES: 0 DROPPED PREFETCHES: 0
LLC PREFETCHES SAME FILL-ORIGIN LEVEL: 0 DIFFERENT FILL-ORIGIN LEVEL: 0
LLC AVERAGE MISS LATENCY: 180.705 cycles
LLC RQ	ACCESS:    6790464	FORWARD:          0	MERGED:          0	TO_CACHE:    6790464
LLC WQ	ACCESS:     138741	FORWARD:          0	MERGED:          0	TO_CACHE:     138741

LLC Dense regions hint to LLC: 0

RAW hits: 134561
Loads Generated: 18003993
Loads sent to L1D: 17869433
Stores Generated: 1026019
Stores sent to L1D: 1026019
Major fault: 0 Minor fault: 52663
Allocated PAGES: 52663

DRAM Statistics
 CHANNEL 0
 RQ ROW_BUFFER_HIT:    1809002  ROW_BUFFER_MISS:    2066974
 DBUS_CONGESTED:    2364945
 WQ ROW_BUFFER_HIT:      28643  ROW_BUFFER_MISS:      29337  FULL:          0

 AVG_CONGESTED_CYCLE: 32
 All warmup complete: 2
Channel 0 Bank busy for read cycles: 0
Channel 0 Bank busy for write cycles: 0
Channel 0
Rank 0
0banks busy for read cycles: 128639956
0banks busy for write cycles: 22691
1banks busy for read cycles: 102296663
1banks busy for write cycles: 4858612
2banks busy for read cycles: 49605772
2banks busy for write cycles: 815982
3banks busy for read cycles: 31584069
3banks busy for write cycles: 336223
4banks busy for read cycles: 22969284
4banks busy for write cycles: 207995
5banks busy for read cycles: 15373081
5banks busy for write cycles: 171973
6banks busy for read cycles: 8747193
6banks busy for write cycles: 182631
7banks busy for read cycles: 4427619
7banks busy for write cycles: 290010
8banks busy for read cycles: 2842076
8banks busy for write cycles: 1135342

CPU 0 Branch Prediction Accuracy: 96.3481% MPKI: 11.0798 Average ROB Occupancy at Mispredict: 50.3106
Branch types
NOT_BRANCH: 34829909 69.6598%
BRANCH_DIRECT_JUMP: 1888246 3.77649%
BRANCH_INDIRECT: 0 0%
BRANCH_CONDITIONAL: 12882823 25.7656%
BRANCH_DIRECT_CALL: 184334 0.368668%
BRANCH_INDIRECT_CALL: 15078 0.030156%
BRANCH_RETURN: 199412 0.398824%
BRANCH_OTHER: 0 0%

@sumon_overall_L1D         0         0         0         0         0         0
@Sumon_Early_by_class_L1D         0         0         0         0
@Sumon_Late_by_class_L1D         0         0         0         0

@Sumon_Early_by_cycle_L1D         0         0         0         0         0         0         0         0         0         0         0         0
@Sumon_Late_by_cycle_L1D         0         0         0         0         0         0         0         0         0         0         0         0
@Sumon_Early_stream_L1D         0         0         0         0         0         0         0         0         0         0         0         0
@Sumon_Early_CS_L1D         0         0         0         0         0         0         0         0         0         0         0         0
@Sumon_Early_CPLX_L1D         0         0         0         0         0         0         0         0         0         0         0         0
@Sumon_Late_stream_L1D         0         0         0         0         0         0         0         0         0         0         0         0
@Sumon_Late_CS_L1D         0         0         0         0         0         0         0         0         0         0         0         0
@Sumon_Late_CPLX_L1D         0         0         0         0         0         0         0         0         0         0         0         0
@sumon_overall_L2C         0         0         0         0         0         0
@Sumon_Early_by_class_L2C         0         0         0         0
@Sumon_Late_by_class_L2C         0         0         0         0

@Sumon_Early_by_cycle_L2C         0         0         0         0         0         0         0         0         0         0         0         0
@Sumon_Late_by_cycle_L2C         0         0         0         0         0         0         0         0         0         0         0         0
@Sumon_Early_stream_L2C         0         0         0         0         0         0         0         0         0         0         0         0
@Sumon_Early_CS_L2C         0         0         0         0         0         0         0         0         0         0         0         0
@Sumon_Early_CPLX_L2C         0         0         0         0         0         0         0         0         0         0         0         0
@Sumon_Late_stream_L2C         0         0         0         0         0         0         0         0         0         0         0         0
@Sumon_Late_CS_L2C         0         0         0         0         0         0         0         0         0         0         0         0
@Sumon_Late_CPLX_L2C         0         0         0         0         0         0         0         0         0         0         0         0
DRAM PAGES: 1048576
Allocated PAGES: 52663
