
*** ChampSim Multicore Out-of-Order Simulator ***

Warmup Instructions: 10000000
Simulation Instructions: 50000000
Number of CPUs: 1
LLC sets: 2048
LLC ways: 16
Off-chip DRAM Size: 4096 MB Channels: 1 Width: 64-bit Data Rate: 6400 MT/s
CPU 0 runs traces/SPEC2017/602.gcc_s-2226B.champsimtrace.xz
.xz
CPU 0 Bimodal branch predictor
BTB has LRU replacement policy
ITLB has LRU replacement policy
DTLB has LRU replacement policy
STLB has LRU replacement policy
L1I has LRU replacement policy
IP Table Entries: 256
L1D has LRU replacement policy
IP_Table L2 entries: 256
Initialize DRRIP state for L2C
LLC has LRU replacement policy
Heartbeat CPU 0 instructions: 10000002 cycles: 3737075 heartbeat IPC: 2.67589 cumulative IPC: 2.67589 (Simulation time: 0 hr 27 min 47 sec) 

Warmup complete CPU 0 instructions: 10000002 cycles: 3737075 (Simulation time: 0 hr 27 min 47 sec) 

Heartbeat CPU 0 instructions: 20000000 cycles: 30487036 heartbeat IPC: 0.373832 cumulative IPC: 0.373832 (Simulation time: 0 hr 55 min 2 sec) 
Heartbeat CPU 0 instructions: 30000001 cycles: 56909563 heartbeat IPC: 0.378465 cumulative IPC: 0.376134 (Simulation time: 1 hr 22 min 36 sec) 
Heartbeat CPU 0 instructions: 40000002 cycles: 82900721 heartbeat IPC: 0.384746 cumulative IPC: 0.378962 (Simulation time: 1 hr 48 min 44 sec) 
Heartbeat CPU 0 instructions: 50000000 cycles: 108425028 heartbeat IPC: 0.391783 cumulative IPC: 0.382088 (Simulation time: 2 hr 5 min 32 sec) 
Heartbeat CPU 0 instructions: 60000001 cycles: 134001556 heartbeat IPC: 0.390984 cumulative IPC: 0.383834 (Simulation time: 2 hr 15 min 10 sec) 
Finished CPU 0 instructions: 50000000 cycles: 130264490 cumulative IPC: 0.383834 (Simulation time: 2 hr 15 min 10 sec) 

ChampSim completed all CPUs

Region of Interest Statistics

CPU 0 cumulative IPC: 0.383834 instructions: 50000000 cycles: 130264490
ITLB TOTAL     ACCESS:    9013942  HIT:    9013942  MISS:          0  HIT %:        100  MISS %:          0   MPKI: 0
ITLB LOAD TRANSLATION ACCESS:    9013942  HIT:    9013942  MISS:          0  HIT %:        100  MISS %:          0   MPKI: 0
ITLB PREFETCH  REQUESTED:          0  ISSUED:          0  USEFUL:          0  USELESS:          0
ITLB USEFUL LOAD PREFETCHES:          0 PREFETCH ISSUED TO LOWER LEVEL:          0  ACCURACY: -nan
ITLB TIMELY PREFETCHES:          0 LATE PREFETCHES: 0 DROPPED PREFETCHES: 0
ITLB PREFETCHES SAME FILL-ORIGIN LEVEL: 0 DIFFERENT FILL-ORIGIN LEVEL: 0
ITLB AVERAGE MISS LATENCY: -nan cycles
ITLB RQ	ACCESS:    9188711	FORWARD:          0	MERGED:     174769	TO_CACHE:    9013942

DTLB TOTAL     ACCESS:    7726285  HIT:    7657229  MISS:      69056  HIT %:    99.1062  MISS %:    0.89378   MPKI: 1.38112
DTLB LOAD TRANSLATION ACCESS:    7726285  HIT:    7657229  MISS:      69056  HIT %:    99.1062  MISS %:    0.89378   MPKI: 1.38112
DTLB PREFETCH  REQUESTED:          0  ISSUED:          0  USEFUL:          0  USELESS:          0
DTLB USEFUL LOAD PREFETCHES:          0 PREFETCH ISSUED TO LOWER LEVEL:          0  ACCURACY: -nan
DTLB TIMELY PREFETCHES:          0 LATE PREFETCHES: 0 DROPPED PREFETCHES: 0
DTLB PREFETCHES SAME FILL-ORIGIN LEVEL: 0 DIFFERENT FILL-ORIGIN LEVEL: 0
DTLB AVERAGE MISS LATENCY: 117.288 cycles
DTLB RQ	ACCESS:    9092750	FORWARD:          0	MERGED:    1366212	TO_CACHE:    7726538

STLB TOTAL     ACCESS:    3060713  HIT:    2994287  MISS:      66426  HIT %:    97.8297  MISS %:    2.17028   MPKI: 1.32852
STLB LOAD TRANSLATION ACCESS:      69056  HIT:       2635  MISS:      66421  HIT %:    3.81574  MISS %:    96.1843   MPKI: 1.32842
STLB TRANSLATION FROM L1D PREFETCHER ACCESS:    2991657  HIT:    2991652  MISS:          5  HIT %:    99.9998  MISS %: 0.000167131   MPKI: 0.0001
STLB PREFETCH  REQUESTED:          0  ISSUED:          0  USEFUL:          5  USELESS:          0
STLB USEFUL LOAD PREFETCHES:          5 PREFETCH ISSUED TO LOWER LEVEL:          0  ACCURACY: inf
STLB TIMELY PREFETCHES:          5 LATE PREFETCHES: 0 DROPPED PREFETCHES: 0
STLB PREFETCHES SAME FILL-ORIGIN LEVEL: 0 DIFFERENT FILL-ORIGIN LEVEL: 0
STLB AVERAGE MISS LATENCY: 112.575 cycles
STLB RQ	ACCESS:    5041897	FORWARD:          0	MERGED:    1981184	TO_CACHE:    3060713

STLB Hit, L1D data hit: 0
STLB Hit, L2C data hit: 0
STLB Hit, LLC data hit: 0
STLB Hit, LLC data miss: 0
STLB STLB hints to L2: 0
L1D TOTAL     ACCESS:   14018501  HIT:   10186272  MISS:    3832229  HIT %:    72.6631  MISS %:    27.3369   MPKI: 76.6446
L1D LOAD      ACCESS:    8424478  HIT:    8288580  MISS:     135898  HIT %:    98.3869  MISS %:    1.61313   MPKI: 2.71796
L1D RFO       ACCESS:     654026  HIT:     653878  MISS:        148  HIT %:    99.9774  MISS %:  0.0226291   MPKI: 0.00296
L1D PREFETCH  ACCESS:    4939997  HIT:    1243814  MISS:    3696183  HIT %:    25.1784  MISS %:    74.8216   MPKI: 73.9237
L1D PREFETCH  REQUESTED:    9945761  ISSUED:    9945682  USEFUL:    3386920  USELESS:     309229
L1D USEFUL LOAD PREFETCHES:    3386920 PREFETCH ISSUED TO LOWER LEVEL:    3726292  ACCURACY: 90.8925
L1D TIMELY PREFETCHES:    3386920 LATE PREFETCHES: 29728 DROPPED PREFETCHES: 0
L1D PREFETCHES SAME FILL-ORIGIN LEVEL: 3726292 DIFFERENT FILL-ORIGIN LEVEL: 0
L1D AVERAGE MISS LATENCY: 542940 cycles
L1D RQ	ACCESS:   17944815	FORWARD:          0	MERGED:    9504535	TO_CACHE:    8438720
L1D WQ	ACCESS:     726008	FORWARD:       1560	MERGED:      71978	TO_CACHE:     654030
L1D PQ	ACCESS:    4972841	FORWARD:          0	MERGED:          0	TO_CACHE:    4972841

L1D UNIQUE REGIONS ACCESSED: 0
L1D REGIONS CONFLICTS: 0
L1D Cross Page Prefetch Requests: 0
L1D Same Page Prefetch Requests: 5944306
L1D ROI Sum of L1D PQ occupancy: 65521743
L1D PREFETCHES PUSHED FROM L2C: 0
L1I TOTAL     ACCESS:    9188710  HIT:    9188710  MISS:          0  HIT %:        100  MISS %:          0   MPKI: 0
L1I LOAD      ACCESS:    9188710  HIT:    9188710  MISS:          0  HIT %:        100  MISS %:          0   MPKI: 0
L1I PREFETCH  REQUESTED:          0  ISSUED:          0  USEFUL:          0  USELESS:          0
L1I USEFUL LOAD PREFETCHES:          0 PREFETCH ISSUED TO LOWER LEVEL:          0  ACCURACY: -nan
L1I TIMELY PREFETCHES:          0 LATE PREFETCHES: 0 DROPPED PREFETCHES: 0
L1I PREFETCHES SAME FILL-ORIGIN LEVEL: 0 DIFFERENT FILL-ORIGIN LEVEL: 0
L1I AVERAGE MISS LATENCY: -nan cycles
L1I RQ	ACCESS:   13803404	FORWARD:          0	MERGED:    4614693	TO_CACHE:    9188711

BTB TOTAL     ACCESS:   11916744  HIT:   11916646  MISS:         98  HIT %:    99.9992  MISS %: 0.000822372   MPKI: 0.00196
BTB BRANCH_DIRECT_JUMP	ACCESS:     169060  HIT:     169034  MISS:         26
BTB BRANCH_INDIRECT	ACCESS:          0  HIT:          0  MISS:          0
BTB BRANCH_CONDITIONAL	ACCESS:   11581020  HIT:   11580971  MISS:         49
BTB BRANCH_DIRECT_CALL	ACCESS:      83332  HIT:      83322  MISS:         10
BTB BRANCH_INDIRECT_CALL	ACCESS:          0  HIT:          0  MISS:          0
BTB BRANCH_RETURN	ACCESS:      83332  HIT:      83319  MISS:         13
BTB BRANCH_OTHER ACCESS:          0  HIT:          0  MISS:          0

L2C TOTAL     ACCESS:    6958218  HIT:    3211077  MISS:    3747141  HIT %:     46.148  MISS %:     53.852   MPKI: 74.9428
L2C LOAD      ACCESS:     106144  HIT:      27846  MISS:      78298  HIT %:    26.2342  MISS %:    73.7658   MPKI: 1.56596
L2C DATA LOAD MPKI: 1.56596
L2C INSTRUCTION LOAD MPKI: 0
L2C RFO       ACCESS:        124  HIT:         99  MISS:         25  HIT %:    79.8387  MISS %:    20.1613   MPKI: 0.0005
L2C PREFETCH  ACCESS:    6778237  HIT:    3125952  MISS:    3652285  HIT %:    46.1175  MISS %:    53.8825   MPKI: 73.0457
L2C DATA PREFETCH MPKI: 73.0457
L2C INSTRUCTION PREFETCH MPKI: 0
L2C WRITEBACK ACCESS:       6134  HIT:       5740  MISS:        394  HIT %:    93.5768  MISS %:    6.42321   MPKI: 0.00788
L2C LOAD TRANSLATION ACCESS:      67571  HIT:      51437  MISS:      16134  HIT %:    76.1229  MISS %:    23.8771   MPKI: 0.32268
L2C TRANSLATION FROM L1D PREFETCHER ACCESS:          8  HIT:          3  MISS:          5  HIT %:       37.5  MISS %:       62.5   MPKI: 0.0001
L2C PREFETCH  REQUESTED:    7544490  ISSUED:    7544445  USEFUL:      12194  USELESS:    3640110
L2C USEFUL LOAD PREFETCHES:      12194 PREFETCH ISSUED TO LOWER LEVEL:    3652536  ACCURACY: 0.33385
L2C TIMELY PREFETCHES:      12194 LATE PREFETCHES: 251 DROPPED PREFETCHES: 0
L2C PREFETCHES SAME FILL-ORIGIN LEVEL: 2882643 DIFFERENT FILL-ORIGIN LEVEL: 0
L2C AVERAGE MISS LATENCY: 109.16 cycles
L2C RQ	ACCESS:     173873	FORWARD:          0	MERGED:          0	TO_CACHE:     173847
L2C WQ	ACCESS:       6134	FORWARD:         26	MERGED:          0	TO_CACHE:       6134
L2C PQ	ACCESS:   11270380	FORWARD:          0	MERGED:    2097552	TO_CACHE:    9172828

L2C Instructions Evicting Data 0
L2C Translations Evicting Data 16066
L2C Data Evicting Data 3714547
L2C Instructions Evicting Instructions 0
L2C Translations Evicting Instructions 0
L2C Data Evicting Instructions 0
L2C Instructions Evicting Translations 0
L2C Translations Evicting Translations 73
L2C Data Evicting Translations 16061
L2C Dense regions hint from L2: 0
PSCL5 TOTAL     ACCESS:      66426  HIT:      66426  MISS:          0  HIT %:        100  MISS %:          0   MPKI: 0
PSCL5 LOAD TRANSLATION ACCESS:      66421  HIT:      66421  MISS:          0  HIT %:        100  MISS %:          0   MPKI: 0
PSCL5 TRANSLATION FROM L1D PREFETCHER ACCESS:          5  HIT:          5  MISS:          0  HIT %:        100  MISS %:          0   MPKI: 0
PSCL5 PREFETCH  REQUESTED:          0  ISSUED:          0  USEFUL:          0  USELESS:          0
PSCL5 USEFUL LOAD PREFETCHES:          0 PREFETCH ISSUED TO LOWER LEVEL:          0  ACCURACY: -nan
PSCL5 TIMELY PREFETCHES:          0 LATE PREFETCHES: 0 DROPPED PREFETCHES: 0
PSCL5 PREFETCHES SAME FILL-ORIGIN LEVEL: 0 DIFFERENT FILL-ORIGIN LEVEL: 0

PSCL4 TOTAL     ACCESS:      66426  HIT:      66426  MISS:          0  HIT %:        100  MISS %:          0   MPKI: 0
PSCL4 LOAD TRANSLATION ACCESS:      66421  HIT:      66421  MISS:          0  HIT %:        100  MISS %:          0   MPKI: 0
PSCL4 TRANSLATION FROM L1D PREFETCHER ACCESS:          5  HIT:          5  MISS:          0  HIT %:        100  MISS %:          0   MPKI: 0
PSCL4 PREFETCH  REQUESTED:          0  ISSUED:          0  USEFUL:          0  USELESS:          0
PSCL4 USEFUL LOAD PREFETCHES:          0 PREFETCH ISSUED TO LOWER LEVEL:          0  ACCURACY: -nan
PSCL4 TIMELY PREFETCHES:          0 LATE PREFETCHES: 0 DROPPED PREFETCHES: 0
PSCL4 PREFETCHES SAME FILL-ORIGIN LEVEL: 0 DIFFERENT FILL-ORIGIN LEVEL: 0

PSCL3 TOTAL     ACCESS:      66424  HIT:      66417  MISS:          7  HIT %:    99.9895  MISS %:  0.0105384   MPKI: 0.00014
PSCL3 LOAD TRANSLATION ACCESS:      66420  HIT:      66413  MISS:          7  HIT %:    99.9895  MISS %:   0.010539   MPKI: 0.00014
PSCL3 TRANSLATION FROM L1D PREFETCHER ACCESS:          4  HIT:          4  MISS:          0  HIT %:        100  MISS %:          0   MPKI: 0
PSCL3 PREFETCH  REQUESTED:          0  ISSUED:          0  USEFUL:          0  USELESS:          0
PSCL3 USEFUL LOAD PREFETCHES:          0 PREFETCH ISSUED TO LOWER LEVEL:          0  ACCURACY: -nan
PSCL3 TIMELY PREFETCHES:          0 LATE PREFETCHES: 0 DROPPED PREFETCHES: 0
PSCL3 PREFETCHES SAME FILL-ORIGIN LEVEL: 0 DIFFERENT FILL-ORIGIN LEVEL: 0

PSCL2 TOTAL     ACCESS:      66426  HIT:      64852  MISS:       1574  HIT %:    97.6304  MISS %:    2.36955   MPKI: 0.03148
PSCL2 LOAD TRANSLATION ACCESS:      66423  HIT:      64849  MISS:       1574  HIT %:    97.6303  MISS %:    2.36966   MPKI: 0.03148
PSCL2 TRANSLATION FROM L1D PREFETCHER ACCESS:          3  HIT:          3  MISS:          0  HIT %:        100  MISS %:          0   MPKI: 0
PSCL2 PREFETCH  REQUESTED:          0  ISSUED:          0  USEFUL:          0  USELESS:          0
PSCL2 USEFUL LOAD PREFETCHES:          0 PREFETCH ISSUED TO LOWER LEVEL:          0  ACCURACY: -nan
PSCL2 TIMELY PREFETCHES:          0 LATE PREFETCHES: 0 DROPPED PREFETCHES: 0
PSCL2 PREFETCHES SAME FILL-ORIGIN LEVEL: 0 DIFFERENT FILL-ORIGIN LEVEL: 0

LLC TOTAL     ACCESS:    3752585  HIT:      32075  MISS:    3720510  HIT %:   0.854744  MISS %:    99.1453   MPKI: 74.4102
LLC LOAD      ACCESS:      78047  HIT:       1529  MISS:      76518  HIT %:    1.95908  MISS %:    98.0409   MPKI: 1.53036
LLC RFO       ACCESS:         25  HIT:          1  MISS:         24  HIT %:          4  MISS %:         96   MPKI: 0.00048
LLC PREFETCH  ACCESS:    3652536  HIT:      23658  MISS:    3628878  HIT %:   0.647714  MISS %:    99.3523   MPKI: 72.5776
LLC WRITEBACK ACCESS:       5838  HIT:       5708  MISS:        130  HIT %:    97.7732  MISS %:    2.22679   MPKI: 0.0026
LLC LOAD TRANSLATION ACCESS:      16134  HIT:       1179  MISS:      14955  HIT %:    7.30755  MISS %:    92.6925   MPKI: 0.2991
LLC TRANSLATION FROM L1D PREFETCHER ACCESS:          5  HIT:          0  MISS:          5  HIT %:          0  MISS %:        100   MPKI: 0.0001
LLC PREFETCH  REQUESTED:          0  ISSUED:          0  USEFUL:        418  USELESS:    3628572
LLC USEFUL LOAD PREFETCHES:        418 PREFETCH ISSUED TO LOWER LEVEL:    3628878  ACCURACY: 0.0115187
LLC TIMELY PREFETCHES:        418 LATE PREFETCHES: 0 DROPPED PREFETCHES: 0
LLC PREFETCHES SAME FILL-ORIGIN LEVEL: 0 DIFFERENT FILL-ORIGIN LEVEL: 0
LLC AVERAGE MISS LATENCY: 79.5797 cycles
LLC RQ	ACCESS:      94211	FORWARD:          0	MERGED:          0	TO_CACHE:      94211
LLC WQ	ACCESS:       5838	FORWARD:          0	MERGED:          0	TO_CACHE:       5838
LLC PQ	ACCESS:    3652536	FORWARD:          0	MERGED:          0	TO_CACHE:    3652536

LLC Dense regions hint to LLC: 0

RAW hits: 4021
Loads Generated: 17948838
Loads sent to L1D: 17944815
Stores Generated: 726008
Stores sent to L1D: 726008
Major fault: 0 Minor fault: 48862
Allocated PAGES: 48862

stream: 
stream:times selected: 7691915
stream:pref_filled: 4076948
stream:pref_useful: 3803419
stream:pref_late: 29294
stream:misses: 6566
stream:misses_by_poll: 0

CS: 
CS:times selected: 5069996
CS:pref_filled: 28769
CS:pref_useful: 27866
CS:pref_late: 2507
CS:misses: 131102
CS:misses_by_poll: 322

CPLX: 
CPLX:times selected: 2619207
CPLX:pref_filled: 324429
CPLX:pref_useful: 225012
CPLX:pref_late: 1171
CPLX:misses: 34469
CPLX:misses_by_poll: 2803

NL_L1: 
NL:times selected: 1638
NL:pref_filled: 30
NL:pref_useful: 19
NL:pref_late: 4
NL:misses: 61
NL:misses_by_poll: 0

total selections: 15382756
total_filled: 3696183
total_useful: 3386920
total_late: 34705
total_polluted: 3125
total_misses_after_warmup: 150142
conflicts: 380
Degree Incremented Times: 93207
Degree Decremented Times: 0

L1 IP Table Write Accesses: 8418882
L1 IP Table Read Accesses: 8418502
L1 RST Write Accesses: 5755370
L1 RST Read Accesses: 11510740
L1 CSPT Write Accesses: 5755370
L1 CSPT Read Accesses: 12170936
L1 RR Filter Tag Write Accesses: 4972920
L1 RR Filter Tag Read Accesses: 1290584866
L1 IP Table Tag Write Accesses: 8438722
L1 IP Table Tag Read Accesses: 8438722
L1 RST Tag Write Accesses: 0
L1 RST Tag Read Accesses: 52235024
L1 RR Filter Write Accesses: 0
L1 RR Filter Read Accesses: 46896617
test: 1010298
L2 IP Table Read Accesses: 3335776
L2 IP Table Write Accesses: 3229648
L2 IP Table Tag Read Accesses: 1667896
L2 IP Table Tag Write Accesses: 1667896

DRAM Statistics
 CHANNEL 0
 RQ ROW_BUFFER_HIT:    3457428  ROW_BUFFER_MISS:     262952
 DBUS_CONGESTED:        602
 WQ ROW_BUFFER_HIT:        651  ROW_BUFFER_MISS:       5106  FULL:          0

 AVG_CONGESTED_CYCLE: 3
 All warmup complete: 2
Channel 0 Bank busy for read cycles: 0
Channel 0 Bank busy for write cycles: 0
Channel 0
Rank 0
0banks busy for read cycles: 61949456
0banks busy for write cycles: 2956
1banks busy for read cycles: 16847582
1banks busy for write cycles: 629177
2banks busy for read cycles: 15333861
2banks busy for write cycles: 201885
3banks busy for read cycles: 11167356
3banks busy for write cycles: 98446
4banks busy for read cycles: 5280580
4banks busy for write cycles: 36790
5banks busy for read cycles: 9318629
5banks busy for write cycles: 21238
6banks busy for read cycles: 2947403
6banks busy for write cycles: 12848
7banks busy for read cycles: 5351034
7banks busy for write cycles: 6052
8banks busy for read cycles: 1055901
8banks busy for write cycles: 3297

CPU 0 Branch Prediction Accuracy: 99.1283% MPKI: 3.10846 Average ROB Occupancy at Mispredict: 105.814
Branch types
NOT_BRANCH: 32169788 64.3396%
BRANCH_DIRECT_JUMP: 169060 0.33812%
BRANCH_INDIRECT: 0 0%
BRANCH_CONDITIONAL: 17494490 34.989%
BRANCH_DIRECT_CALL: 83332 0.166664%
BRANCH_INDIRECT_CALL: 0 0%
BRANCH_RETURN: 83332 0.166664%
BRANCH_OTHER: 0 0%

@sumon_overall_L1D   3386920     29728    309229   3696183   9945682   9945761
@Sumon_Early_by_class_L1D   3150439     22833    213629         3
@Sumon_Late_by_class_L1D     24836      2364      1106         3

@Sumon_Early_by_cycle_L1D    713942   2192017    286454     33710     31380     42944     14359     58641      5600      5403      1513       957
@Sumon_Late_by_cycle_L1D     27559      2154        15         0         0         0         0         0         0         0         0         0
@Sumon_Early_stream_L1D    675758   2102627    237311     10638     17052     29041     13088     54174      3819      4679      1431       821
@Sumon_Early_CS_L1D     18780      1531       628        81        77       324       758       610         5        30         8         1
@Sumon_Early_CPLX_L1D     19392     87854     48515     22991     14251     13579       513      3857      1776       692        74       135
@Sumon_Late_stream_L1D     22867      1958        11         0         0         0         0         0         0         0         0         0
@Sumon_Late_CS_L1D      2260       100         4         0         0         0         0         0         0         0         0         0
@Sumon_Late_CPLX_L1D      1010        96         0         0         0         0         0         0         0         0         0         0
@sumon_overall_L2C     12194       251   3640110   3652290   7544445   7544490
@Sumon_Early_by_class_L2C     11784        75       335         0
@Sumon_Late_by_class_L2C       221        11         0         0

@Sumon_Early_by_cycle_L2C      1594      3143      1045       141        49       140         4         2       305      1750      1254      2767
@Sumon_Late_by_cycle_L2C       228        22         1         0         0         0         0         0         0         0         0         0
@Sumon_Early_stream_L2C      1552      3134      1045       140        48       140         4         2       296      1662      1198      2563
@Sumon_Early_CS_L2C        42         9         0         1         1         0         0         0         2         7         6         7
@Sumon_Early_CPLX_L2C         0         0         0         0         0         0         0         0         7        81        50       197
@Sumon_Late_stream_L2C       198        22         1         0         0         0         0         0         0         0         0         0
@Sumon_Late_CS_L2C        11         0         0         0         0         0         0         0         0         0         0         0
@Sumon_Late_CPLX_L2C         0         0         0         0         0         0         0         0         0         0         0         0
DRAM PAGES: 1048576
Allocated PAGES: 48862
