
*** ChampSim Multicore Out-of-Order Simulator ***

Warmup Instructions: 10000000
Simulation Instructions: 50000000
Number of CPUs: 1
LLC sets: 2048
LLC ways: 16
Off-chip DRAM Size: 4096 MB Channels: 1 Width: 64-bit Data Rate: 6400 MT/s
CPU 0 runs traces/SPEC2017/603.bwaves_s-2931B.champsimtrace.xz
.xz
CPU 0 Bimodal branch predictor
BTB has LRU replacement policy
ITLB has LRU replacement policy
DTLB has LRU replacement policy
STLB has LRU replacement policy
L1I has LRU replacement policy
IP Table Entries: 256
L1D has LRU replacement policy
IP_Table L2 entries: 256
Initialize DRRIP state for L2C
LLC has LRU replacement policy
Heartbeat CPU 0 instructions: 10000003 cycles: 2946932 heartbeat IPC: 3.39336 cumulative IPC: 3.39336 (Simulation time: 0 hr 22 min 35 sec) 

Warmup complete CPU 0 instructions: 10000003 cycles: 2946932 (Simulation time: 0 hr 22 min 36 sec) 

Heartbeat CPU 0 instructions: 20000001 cycles: 11711094 heartbeat IPC: 1.14101 cumulative IPC: 1.14101 (Simulation time: 0 hr 41 min 17 sec) 
Heartbeat CPU 0 instructions: 30000001 cycles: 20477790 heartbeat IPC: 1.14068 cumulative IPC: 1.14085 (Simulation time: 1 hr 0 min 4 sec) 
Heartbeat CPU 0 instructions: 40000003 cycles: 29243887 heartbeat IPC: 1.14076 cumulative IPC: 1.14082 (Simulation time: 1 hr 18 min 55 sec) 
Heartbeat CPU 0 instructions: 50000003 cycles: 38011592 heartbeat IPC: 1.14055 cumulative IPC: 1.14075 (Simulation time: 1 hr 37 min 32 sec) 
Heartbeat CPU 0 instructions: 60000000 cycles: 46782814 heartbeat IPC: 1.14009 cumulative IPC: 1.14062 (Simulation time: 1 hr 53 min 48 sec) 
Finished CPU 0 instructions: 50000000 cycles: 43835885 cumulative IPC: 1.14062 (Simulation time: 1 hr 53 min 48 sec) 

ChampSim completed all CPUs

Region of Interest Statistics

CPU 0 cumulative IPC: 1.14062 instructions: 50000000 cycles: 43835885
ITLB TOTAL     ACCESS:    6031511  HIT:    6031511  MISS:          0  HIT %:        100  MISS %:          0   MPKI: 0
ITLB LOAD TRANSLATION ACCESS:    6031511  HIT:    6031511  MISS:          0  HIT %:        100  MISS %:          0   MPKI: 0
ITLB PREFETCH  REQUESTED:          0  ISSUED:          0  USEFUL:          0  USELESS:          0
ITLB USEFUL LOAD PREFETCHES:          0 PREFETCH ISSUED TO LOWER LEVEL:          0  ACCURACY: -nan
ITLB TIMELY PREFETCHES:          0 LATE PREFETCHES: 0 DROPPED PREFETCHES: 0
ITLB PREFETCHES SAME FILL-ORIGIN LEVEL: 0 DIFFERENT FILL-ORIGIN LEVEL: 0
ITLB AVERAGE MISS LATENCY: -nan cycles
ITLB RQ	ACCESS:    7011845	FORWARD:          0	MERGED:     980334	TO_CACHE:    6031511

DTLB TOTAL     ACCESS:   12707557  HIT:   12590673  MISS:     116884  HIT %:    99.0802  MISS %:   0.919799   MPKI: 2.33768
DTLB LOAD TRANSLATION ACCESS:   12707557  HIT:   12590673  MISS:     116884  HIT %:    99.0802  MISS %:   0.919799   MPKI: 2.33768
DTLB PREFETCH  REQUESTED:          0  ISSUED:          0  USEFUL:          0  USELESS:          0
DTLB USEFUL LOAD PREFETCHES:          0 PREFETCH ISSUED TO LOWER LEVEL:          0  ACCURACY: -nan
DTLB TIMELY PREFETCHES:          0 LATE PREFETCHES: 0 DROPPED PREFETCHES: 0
DTLB PREFETCHES SAME FILL-ORIGIN LEVEL: 0 DIFFERENT FILL-ORIGIN LEVEL: 0
DTLB AVERAGE MISS LATENCY: 42.5192 cycles
DTLB RQ	ACCESS:   18843502	FORWARD:          0	MERGED:    6130674	TO_CACHE:   12712828

STLB TOTAL     ACCESS:     599917  HIT:     589273  MISS:      10644  HIT %:    98.2258  MISS %:    1.77425   MPKI: 0.21288
STLB LOAD TRANSLATION ACCESS:     116884  HIT:     106240  MISS:      10644  HIT %:    90.8935  MISS %:    9.10646   MPKI: 0.21288
STLB TRANSLATION FROM L1D PREFETCHER ACCESS:     483033  HIT:     483033  MISS:          0  HIT %:        100  MISS %:          0   MPKI: 0
STLB PREFETCH  REQUESTED:          0  ISSUED:          0  USEFUL:          0  USELESS:          0
STLB USEFUL LOAD PREFETCHES:          0 PREFETCH ISSUED TO LOWER LEVEL:          0  ACCURACY: -nan
STLB TIMELY PREFETCHES:          0 LATE PREFETCHES: 0 DROPPED PREFETCHES: 0
STLB PREFETCHES SAME FILL-ORIGIN LEVEL: 0 DIFFERENT FILL-ORIGIN LEVEL: 0
STLB AVERAGE MISS LATENCY: 360.278 cycles
STLB RQ	ACCESS:    2634109	FORWARD:          0	MERGED:    2034192	TO_CACHE:     599917

STLB Hit, L1D data hit: 0
STLB Hit, L2C data hit: 0
STLB Hit, LLC data hit: 0
STLB Hit, LLC data miss: 0
STLB STLB hints to L2: 0
L1D TOTAL     ACCESS:   20620934  HIT:   19762618  MISS:     858316  HIT %:    95.8376  MISS %:    4.16235   MPKI: 17.1663
L1D LOAD      ACCESS:    9679895  HIT:    9640992  MISS:      38903  HIT %:    99.5981  MISS %:   0.401895   MPKI: 0.77806
L1D RFO       ACCESS:    8423814  HIT:    8105807  MISS:     318007  HIT %:    96.2249  MISS %:     3.7751   MPKI: 6.36014
L1D PREFETCH  ACCESS:    2517225  HIT:    2015819  MISS:     501406  HIT %:     80.081  MISS %:     19.919   MPKI: 10.0281
L1D PREFETCH  REQUESTED:    5094791  ISSUED:    5034450  USEFUL:     498913  USELESS:       2495
L1D USEFUL LOAD PREFETCHES:     498913 PREFETCH ISSUED TO LOWER LEVEL:     509163  ACCURACY: 97.9869
L1D TIMELY PREFETCHES:     498913 LATE PREFETCHES: 0 DROPPED PREFETCHES: 0
L1D PREFETCHES SAME FILL-ORIGIN LEVEL: 509163 DIFFERENT FILL-ORIGIN LEVEL: 0
L1D AVERAGE MISS LATENCY: 148.794 cycles
L1D RQ	ACCESS:   14468396	FORWARD:          0	MERGED:    4735901	TO_CACHE:    9683341
L1D WQ	ACCESS:    9162265	FORWARD:      49154	MERGED:       2104	TO_CACHE:    9160161
L1D PQ	ACCESS:    2517225	FORWARD:          0	MERGED:          0	TO_CACHE:    2517225

L1D UNIQUE REGIONS ACCESSED: 0
L1D REGIONS CONFLICTS: 0
L1D Cross Page Prefetch Requests: 0
L1D Same Page Prefetch Requests: 3041196
L1D ROI Sum of L1D PQ occupancy: 37283000
L1D PREFETCHES PUSHED FROM L2C: 0
L1I TOTAL     ACCESS:    7011840  HIT:    7011833  MISS:          7  HIT %:    99.9999  MISS %: 9.98311e-05   MPKI: 0.00014
L1I LOAD      ACCESS:    7011840  HIT:    7011833  MISS:          7  HIT %:    99.9999  MISS %: 9.98311e-05   MPKI: 0.00014
L1I PREFETCH  REQUESTED:          0  ISSUED:          0  USEFUL:          0  USELESS:          0
L1I USEFUL LOAD PREFETCHES:          0 PREFETCH ISSUED TO LOWER LEVEL:          0  ACCURACY: -nan
L1I TIMELY PREFETCHES:          0 LATE PREFETCHES: 0 DROPPED PREFETCHES: 0
L1I PREFETCHES SAME FILL-ORIGIN LEVEL: 0 DIFFERENT FILL-ORIGIN LEVEL: 0
L1I AVERAGE MISS LATENCY: 214 cycles
L1I RQ	ACCESS:   10107200	FORWARD:          0	MERGED:    3095355	TO_CACHE:    7011845

BTB TOTAL     ACCESS:     421996  HIT:     421991  MISS:          5  HIT %:    99.9988  MISS %: 0.00118485   MPKI: 0.0001
BTB BRANCH_DIRECT_JUMP	ACCESS:          0  HIT:          0  MISS:          0
BTB BRANCH_INDIRECT	ACCESS:          0  HIT:          0  MISS:          0
BTB BRANCH_CONDITIONAL	ACCESS:     421996  HIT:     421991  MISS:          5
BTB BRANCH_DIRECT_CALL	ACCESS:          0  HIT:          0  MISS:          0
BTB BRANCH_INDIRECT_CALL	ACCESS:          0  HIT:          0  MISS:          0
BTB BRANCH_RETURN	ACCESS:          0  HIT:          0  MISS:          0
BTB BRANCH_OTHER ACCESS:          0  HIT:          0  MISS:          0

L2C TOTAL     ACCESS:    3338429  HIT:    2593361  MISS:     745068  HIT %:    77.6821  MISS %:    22.3179   MPKI: 14.9014
L2C LOAD      ACCESS:      38807  HIT:      30945  MISS:       7862  HIT %:    79.7408  MISS %:    20.2592   MPKI: 0.15724
L2C DATA LOAD MPKI: 0.1571
L2C INSTRUCTION LOAD MPKI: 0.00014
L2C RFO       ACCESS:     306387  HIT:       8693  MISS:     297694  HIT %:    2.83726  MISS %:    97.1627   MPKI: 5.95388
L2C PREFETCH  ACCESS:    2659981  HIT:    2223784  MISS:     436197  HIT %:    83.6015  MISS %:    16.3985   MPKI: 8.72394
L2C DATA PREFETCH MPKI: 8.72394
L2C INSTRUCTION PREFETCH MPKI: 0
L2C WRITEBACK ACCESS:     322606  HIT:     320992  MISS:       1614  HIT %:    99.4997  MISS %:   0.500301   MPKI: 0.03228
L2C LOAD TRANSLATION ACCESS:      10648  HIT:       8947  MISS:       1701  HIT %:    84.0252  MISS %:    15.9748   MPKI: 0.03402
L2C PREFETCH  REQUESTED:    2635601  ISSUED:    2581644  USEFUL:      17504  USELESS:     416584
L2C USEFUL LOAD PREFETCHES:      17504 PREFETCH ISSUED TO LOWER LEVEL:     436201  ACCURACY: 4.01283
L2C TIMELY PREFETCHES:      17504 LATE PREFETCHES: 4 DROPPED PREFETCHES: 0
L2C PREFETCHES SAME FILL-ORIGIN LEVEL: 388977 DIFFERENT FILL-ORIGIN LEVEL: 0
L2C AVERAGE MISS LATENCY: 248.057 cycles
L2C RQ	ACCESS:     367567	FORWARD:          0	MERGED:          0	TO_CACHE:     355844
L2C WQ	ACCESS:     322606	FORWARD:      11723	MERGED:          0	TO_CACHE:     322606
L2C PQ	ACCESS:    3083050	FORWARD:          0	MERGED:     421115	TO_CACHE:    2661935

L2C Instructions Evicting Data 7
L2C Translations Evicting Data 1677
L2C Data Evicting Data 740120
L2C Instructions Evicting Instructions 0
L2C Translations Evicting Instructions 0
L2C Data Evicting Instructions 7
L2C Instructions Evicting Translations 0
L2C Translations Evicting Translations 24
L2C Data Evicting Translations 1619
L2C Dense regions hint from L2: 0
PSCL5 TOTAL     ACCESS:      10644  HIT:      10644  MISS:          0  HIT %:        100  MISS %:          0   MPKI: 0
PSCL5 LOAD TRANSLATION ACCESS:      10644  HIT:      10644  MISS:          0  HIT %:        100  MISS %:          0   MPKI: 0
PSCL5 PREFETCH  REQUESTED:          0  ISSUED:          0  USEFUL:          0  USELESS:          0
PSCL5 USEFUL LOAD PREFETCHES:          0 PREFETCH ISSUED TO LOWER LEVEL:          0  ACCURACY: -nan
PSCL5 TIMELY PREFETCHES:          0 LATE PREFETCHES: 0 DROPPED PREFETCHES: 0
PSCL5 PREFETCHES SAME FILL-ORIGIN LEVEL: 0 DIFFERENT FILL-ORIGIN LEVEL: 0

PSCL4 TOTAL     ACCESS:      10644  HIT:      10644  MISS:          0  HIT %:        100  MISS %:          0   MPKI: 0
PSCL4 LOAD TRANSLATION ACCESS:      10644  HIT:      10644  MISS:          0  HIT %:        100  MISS %:          0   MPKI: 0
PSCL4 PREFETCH  REQUESTED:          0  ISSUED:          0  USEFUL:          0  USELESS:          0
PSCL4 USEFUL LOAD PREFETCHES:          0 PREFETCH ISSUED TO LOWER LEVEL:          0  ACCURACY: -nan
PSCL4 TIMELY PREFETCHES:          0 LATE PREFETCHES: 0 DROPPED PREFETCHES: 0
PSCL4 PREFETCHES SAME FILL-ORIGIN LEVEL: 0 DIFFERENT FILL-ORIGIN LEVEL: 0

PSCL3 TOTAL     ACCESS:       8509  HIT:       8505  MISS:          4  HIT %:     99.953  MISS %:   0.047009   MPKI: 8e-05
PSCL3 LOAD TRANSLATION ACCESS:       8509  HIT:       8505  MISS:          4  HIT %:     99.953  MISS %:   0.047009   MPKI: 8e-05
PSCL3 PREFETCH  REQUESTED:          0  ISSUED:          0  USEFUL:          0  USELESS:          0
PSCL3 USEFUL LOAD PREFETCHES:          0 PREFETCH ISSUED TO LOWER LEVEL:          0  ACCURACY: -nan
PSCL3 TIMELY PREFETCHES:          0 LATE PREFETCHES: 0 DROPPED PREFETCHES: 0
PSCL3 PREFETCHES SAME FILL-ORIGIN LEVEL: 0 DIFFERENT FILL-ORIGIN LEVEL: 0

PSCL2 TOTAL     ACCESS:      10644  HIT:      10622  MISS:         22  HIT %:    99.7933  MISS %:   0.206689   MPKI: 0.00044
PSCL2 LOAD TRANSLATION ACCESS:      10644  HIT:      10622  MISS:         22  HIT %:    99.7933  MISS %:   0.206689   MPKI: 0.00044
PSCL2 PREFETCH  REQUESTED:          0  ISSUED:          0  USEFUL:          0  USELESS:          0
PSCL2 USEFUL LOAD PREFETCHES:          0 PREFETCH ISSUED TO LOWER LEVEL:          0  ACCURACY: -nan
PSCL2 TIMELY PREFETCHES:          0 LATE PREFETCHES: 0 DROPPED PREFETCHES: 0
PSCL2 PREFETCHES SAME FILL-ORIGIN LEVEL: 0 DIFFERENT FILL-ORIGIN LEVEL: 0

LLC TOTAL     ACCESS:    1042407  HIT:     359464  MISS:     682943  HIT %:     34.484  MISS %:     65.516   MPKI: 13.6589
LLC LOAD      ACCESS:       7858  HIT:       1362  MISS:       6496  HIT %:    17.3327  MISS %:    82.6673   MPKI: 0.12992
LLC RFO       ACCESS:     297694  HIT:          0  MISS:     297694  HIT %:          0  MISS %:        100   MPKI: 5.95388
LLC PREFETCH  ACCESS:     436201  HIT:      58850  MISS:     377351  HIT %:    13.4915  MISS %:    86.5085   MPKI: 7.54702
LLC WRITEBACK ACCESS:     298953  HIT:     298909  MISS:         44  HIT %:    99.9853  MISS %:   0.014718   MPKI: 0.00088
LLC LOAD TRANSLATION ACCESS:       1701  HIT:        343  MISS:       1358  HIT %:    20.1646  MISS %:    79.8354   MPKI: 0.02716
LLC PREFETCH  REQUESTED:          0  ISSUED:          0  USEFUL:         34  USELESS:     376955
LLC USEFUL LOAD PREFETCHES:         34 PREFETCH ISSUED TO LOWER LEVEL:     377351  ACCURACY: 0.00901018
LLC TIMELY PREFETCHES:         34 LATE PREFETCHES: 0 DROPPED PREFETCHES: 0
LLC PREFETCHES SAME FILL-ORIGIN LEVEL: 0 DIFFERENT FILL-ORIGIN LEVEL: 0
LLC AVERAGE MISS LATENCY: 236.759 cycles
LLC RQ	ACCESS:     307255	FORWARD:          0	MERGED:          0	TO_CACHE:     307255
LLC WQ	ACCESS:     298954	FORWARD:          0	MERGED:          0	TO_CACHE:     298954
LLC PQ	ACCESS:     436201	FORWARD:          0	MERGED:          0	TO_CACHE:     436201

LLC Dense regions hint to LLC: 0

RAW hits: 193068
Loads Generated: 14661466
Loads sent to L1D: 14468396
Stores Generated: 9162246
Stores sent to L1D: 9162265
Major fault: 0 Minor fault: 12766
Allocated PAGES: 12766

stream: 
stream:times selected: 595713
stream:pref_filled: 601283
stream:pref_useful: 594888
stream:pref_late: 0
stream:misses: 5
stream:misses_by_poll: 0

CS: 
CS:times selected: 539175
CS:pref_filled: 219
CS:pref_useful: 209
CS:pref_late: 0
CS:misses: 40285
CS:misses_by_poll: 1

CPLX: 
CPLX:times selected: 56487
CPLX:pref_filled: 143
CPLX:pref_useful: 143
CPLX:pref_late: 0
CPLX:misses: 5712
CPLX:misses_by_poll: 0

NL_L1: 
NL:times selected: 6
NL:pref_filled: 3
NL:pref_useful: 3
NL:pref_late: 0
NL:misses: 0
NL:misses_by_poll: 0

total selections: 1191381
total_filled: 501406
total_useful: 498913
total_late: 0
total_polluted: 1
total_misses_after_warmup: 42350
conflicts: 83769
Degree Incremented Times: 97027
Degree Decremented Times: 0

L1 IP Table Write Accesses: 8838294
L1 IP Table Read Accesses: 8754525
L1 RST Write Accesses: 494489
L1 RST Read Accesses: 988978
L1 CSPT Write Accesses: 494489
L1 CSPT Read Accesses: 641594
L1 RR Filter Tag Write Accesses: 2577566
L1 RR Filter Tag Read Accesses: 124819383
L1 IP Table Tag Write Accesses: 9683342
L1 IP Table Tag Read Accesses: 9683342
L1 RST Tag Write Accesses: 0
L1 RST Tag Read Accesses: 4450963
L1 RR Filter Write Accesses: 0
L1 RR Filter Read Accesses: 4237713
test: 9548
L2 IP Table Read Accesses: 968100
L2 IP Table Write Accesses: 953301
L2 IP Table Tag Read Accesses: 499928
L2 IP Table Tag Write Accesses: 499928

DRAM Statistics
 CHANNEL 0
 RQ ROW_BUFFER_HIT:     387126  ROW_BUFFER_MISS:     295773
 DBUS_CONGESTED:        840
 WQ ROW_BUFFER_HIT:     105672  ROW_BUFFER_MISS:     192403  FULL:          0

 AVG_CONGESTED_CYCLE: 5
 All warmup complete: 2
Channel 0 Bank busy for read cycles: 0
Channel 0 Bank busy for write cycles: 0
Channel 0
Rank 0
0banks busy for read cycles: 1741669
0banks busy for write cycles: 27477
1banks busy for read cycles: 14735492
1banks busy for write cycles: 2414283
2banks busy for read cycles: 7152120
2banks busy for write cycles: 2286975
3banks busy for read cycles: 3295293
3banks busy for write cycles: 1954977
4banks busy for read cycles: 1449021
4banks busy for write cycles: 1684959
5banks busy for read cycles: 1048893
5banks busy for write cycles: 1276660
6banks busy for read cycles: 762001
6banks busy for write cycles: 923541
7banks busy for read cycles: 767399
7banks busy for write cycles: 843761
8banks busy for read cycles: 478916
8banks busy for write cycles: 992449

CPU 0 Branch Prediction Accuracy: 80.6206% MPKI: 1.63562 Average ROB Occupancy at Mispredict: 67.6411
Branch types
NOT_BRANCH: 49577691 99.1554%
BRANCH_DIRECT_JUMP: 0 0%
BRANCH_INDIRECT: 0 0%
BRANCH_CONDITIONAL: 421999 0.843998%
BRANCH_DIRECT_CALL: 0 0%
BRANCH_INDIRECT_CALL: 0 0%
BRANCH_RETURN: 0 0%
BRANCH_OTHER: 0 0%

@sumon_overall_L1D    498913         0      2495    501406   5034450   5094791
@Sumon_Early_by_class_L1D    496802       116        96         0
@Sumon_Late_by_class_L1D         0         0         0         0

@Sumon_Early_by_cycle_L1D         6       132        53      1136      5439     55516     86865    349763         3         0         0         0
@Sumon_Late_by_cycle_L1D         0         0         0         0         0         0         0         0         0         0         0         0
@Sumon_Early_stream_L1D         6       132        49       940      4189     55033     86691    349762         0         0         0         0
@Sumon_Early_CS_L1D         0         0         0         0         0        14       102         0         0         0         0         0
@Sumon_Early_CPLX_L1D         0         0         0         0         4        40        49         0         3         0         0         0
@Sumon_Late_stream_L1D         0         0         0         0         0         0         0         0         0         0         0         0
@Sumon_Late_CS_L1D         0         0         0         0         0         0         0         0         0         0         0         0
@Sumon_Late_CPLX_L1D         0         0         0         0         0         0         0         0         0         0         0         0
@sumon_overall_L2C     17504         4    416584    436197   2581644   2635601
@Sumon_Early_by_class_L2C     15937         0        16         0
@Sumon_Late_by_class_L2C         0         0         0         0

@Sumon_Early_by_cycle_L2C         4        12        11       359       693      1262      2081      9455      3244         9         0       374
@Sumon_Late_by_cycle_L2C         2         2         0         0         0         0         0         0         0         0         0         0
@Sumon_Early_stream_L2C         1         8         2        15        13       762      2057      9454      3244         9         0       372
@Sumon_Early_CS_L2C         0         0         0         0         0         0         0         0         0         0         0         0
@Sumon_Early_CPLX_L2C         0         0         0         0         0         4        12         0         0         0         0         0
@Sumon_Late_stream_L2C         0         0         0         0         0         0         0         0         0         0         0         0
@Sumon_Late_CS_L2C         0         0         0         0         0         0         0         0         0         0         0         0
@Sumon_Late_CPLX_L2C         0         0         0         0         0         0         0         0         0         0         0         0
DRAM PAGES: 1048576
Allocated PAGES: 12766
