
*** ChampSim Multicore Out-of-Order Simulator ***

Warmup Instructions: 10000000
Simulation Instructions: 50000000
Number of CPUs: 1
LLC sets: 2048
LLC ways: 16
Off-chip DRAM Size: 4096 MB Channels: 1 Width: 64-bit Data Rate: 6400 MT/s
CPU 0 runs traces/SPEC2017/603.bwaves_s-891B.champsimtrace.xz
.xz
CPU 0 Bimodal branch predictor
BTB has LRU replacement policy
ITLB has LRU replacement policy
DTLB has LRU replacement policy
STLB has LRU replacement policy
L1I has LRU replacement policy
IP Table Entries: 256
L1D has LRU replacement policy
IP_Table L2 entries: 256
Initialize DRRIP state for L2C
LLC has LRU replacement policy
Heartbeat CPU 0 instructions: 10000003 cycles: 2716412 heartbeat IPC: 3.68133 cumulative IPC: 3.68133 (Simulation time: 0 hr 12 min 11 sec) 

Warmup complete CPU 0 instructions: 10000003 cycles: 2716412 (Simulation time: 0 hr 12 min 11 sec) 

Heartbeat CPU 0 instructions: 20000000 cycles: 17320740 heartbeat IPC: 0.684728 cumulative IPC: 0.684728 (Simulation time: 0 hr 29 min 44 sec) 
Heartbeat CPU 0 instructions: 30000000 cycles: 31931640 heartbeat IPC: 0.684421 cumulative IPC: 0.684574 (Simulation time: 0 hr 47 min 39 sec) 
Heartbeat CPU 0 instructions: 40000001 cycles: 46540565 heartbeat IPC: 0.684513 cumulative IPC: 0.684554 (Simulation time: 1 hr 5 min 36 sec) 
Heartbeat CPU 0 instructions: 50000000 cycles: 62664979 heartbeat IPC: 0.620178 cumulative IPC: 0.667239 (Simulation time: 1 hr 20 min 27 sec) 
Heartbeat CPU 0 instructions: 60000001 cycles: 79404026 heartbeat IPC: 0.597406 cumulative IPC: 0.651996 (Simulation time: 1 hr 33 min 51 sec) 
Finished CPU 0 instructions: 50000002 cycles: 76687617 cumulative IPC: 0.651996 (Simulation time: 1 hr 33 min 51 sec) 

ChampSim completed all CPUs

Region of Interest Statistics

CPU 0 cumulative IPC: 0.651996 instructions: 50000002 cycles: 76687617
ITLB TOTAL     ACCESS:    7209158  HIT:    7209158  MISS:          0  HIT %:        100  MISS %:          0   MPKI: 0
ITLB LOAD TRANSLATION ACCESS:    7209158  HIT:    7209158  MISS:          0  HIT %:        100  MISS %:          0   MPKI: 0
ITLB PREFETCH  REQUESTED:          0  ISSUED:          0  USEFUL:          0  USELESS:          0
ITLB USEFUL LOAD PREFETCHES:          0 PREFETCH ISSUED TO LOWER LEVEL:          0  ACCURACY: -nan
ITLB TIMELY PREFETCHES:          0 LATE PREFETCHES: 0 DROPPED PREFETCHES: 0
ITLB PREFETCHES SAME FILL-ORIGIN LEVEL: 0 DIFFERENT FILL-ORIGIN LEVEL: 0
ITLB AVERAGE MISS LATENCY: -nan cycles
ITLB RQ	ACCESS:    9708822	FORWARD:          0	MERGED:    2499664	TO_CACHE:    7209158

DTLB TOTAL     ACCESS:    8603257  HIT:    8585085  MISS:      18172  HIT %:    99.7888  MISS %:   0.211222   MPKI: 0.36344
DTLB LOAD TRANSLATION ACCESS:    8603257  HIT:    8585085  MISS:      18172  HIT %:    99.7888  MISS %:   0.211222   MPKI: 0.36344
DTLB PREFETCH  REQUESTED:          0  ISSUED:          0  USEFUL:          0  USELESS:          0
DTLB USEFUL LOAD PREFETCHES:          0 PREFETCH ISSUED TO LOWER LEVEL:          0  ACCURACY: -nan
DTLB TIMELY PREFETCHES:          0 LATE PREFETCHES: 0 DROPPED PREFETCHES: 0
DTLB PREFETCHES SAME FILL-ORIGIN LEVEL: 0 DIFFERENT FILL-ORIGIN LEVEL: 0
DTLB AVERAGE MISS LATENCY: 283.587 cycles
DTLB RQ	ACCESS:    9089661	FORWARD:          0	MERGED:     485610	TO_CACHE:    8604051

STLB TOTAL     ACCESS:    1084313  HIT:    1066197  MISS:      18116  HIT %:    98.3293  MISS %:    1.67074   MPKI: 0.36232
STLB LOAD TRANSLATION ACCESS:      18172  HIT:         56  MISS:      18116  HIT %:   0.308166  MISS %:    99.6918   MPKI: 0.36232
STLB TRANSLATION FROM L1D PREFETCHER ACCESS:    1066141  HIT:    1066141  MISS:          0  HIT %:        100  MISS %:          0   MPKI: 0
STLB PREFETCH  REQUESTED:          0  ISSUED:          0  USEFUL:          0  USELESS:          0
STLB USEFUL LOAD PREFETCHES:          0 PREFETCH ISSUED TO LOWER LEVEL:          0  ACCURACY: -nan
STLB TIMELY PREFETCHES:          0 LATE PREFETCHES: 0 DROPPED PREFETCHES: 0
STLB PREFETCHES SAME FILL-ORIGIN LEVEL: 0 DIFFERENT FILL-ORIGIN LEVEL: 0
STLB AVERAGE MISS LATENCY: 270.372 cycles
STLB RQ	ACCESS:    1199436	FORWARD:          0	MERGED:     115124	TO_CACHE:    1084312

STLB Hit, L1D data hit: 0
STLB Hit, L2C data hit: 0
STLB Hit, LLC data hit: 0
STLB Hit, LLC data miss: 0
STLB STLB hints to L2: 0
L1D TOTAL     ACCESS:   10238089  HIT:    9078585  MISS:    1159504  HIT %:    88.6746  MISS %:    11.3254   MPKI: 23.1901
L1D LOAD      ACCESS:    6475675  HIT:    6452678  MISS:      22997  HIT %:    99.6449  MISS %:   0.355129   MPKI: 0.45994
L1D RFO       ACCESS:    2586083  HIT:    2586082  MISS:          1  HIT %:        100  MISS %: 3.86685e-05   MPKI: 2e-05
L1D PREFETCH  ACCESS:    1176331  HIT:      39825  MISS:    1136506  HIT %:    3.38553  MISS %:    96.6145   MPKI: 22.7301
L1D PREFETCH  REQUESTED:    2362528  ISSUED:    2362528  USEFUL:    1136495  USELESS:         28
L1D USEFUL LOAD PREFETCHES:    1136495 PREFETCH ISSUED TO LOWER LEVEL:    1140329  ACCURACY: 99.6638
L1D TIMELY PREFETCHES:    1136495 LATE PREFETCHES: 3820 DROPPED PREFETCHES: 0
L1D PREFETCHES SAME FILL-ORIGIN LEVEL: 1140329 DIFFERENT FILL-ORIGIN LEVEL: 0
L1D AVERAGE MISS LATENCY: 195617 cycles
L1D RQ	ACCESS:    7957241	FORWARD:          0	MERGED:    1453501	TO_CACHE:    6503578
L1D WQ	ACCESS:    2590179	FORWARD:        162	MERGED:       4096	TO_CACHE:    2586083
L1D PQ	ACCESS:    1181264	FORWARD:          0	MERGED:          0	TO_CACHE:    1181264

L1D UNIQUE REGIONS ACCESSED: 0
L1D REGIONS CONFLICTS: 0
L1D Cross Page Prefetch Requests: 0
L1D Same Page Prefetch Requests: 1457327
L1D ROI Sum of L1D PQ occupancy: 17746714
L1D PREFETCHES PUSHED FROM L2C: 0
L1I TOTAL     ACCESS:    9708819  HIT:    9708815  MISS:          4  HIT %:        100  MISS %: 4.11997e-05   MPKI: 8e-05
L1I LOAD      ACCESS:    9708819  HIT:    9708815  MISS:          4  HIT %:        100  MISS %: 4.11997e-05   MPKI: 8e-05
L1I PREFETCH  REQUESTED:          0  ISSUED:          0  USEFUL:          0  USELESS:          0
L1I USEFUL LOAD PREFETCHES:          0 PREFETCH ISSUED TO LOWER LEVEL:          0  ACCURACY: -nan
L1I TIMELY PREFETCHES:          0 LATE PREFETCHES: 0 DROPPED PREFETCHES: 0
L1I PREFETCHES SAME FILL-ORIGIN LEVEL: 0 DIFFERENT FILL-ORIGIN LEVEL: 0
L1I AVERAGE MISS LATENCY: 250.25 cycles
L1I RQ	ACCESS:   13133070	FORWARD:          0	MERGED:    3424248	TO_CACHE:    9708822

BTB TOTAL     ACCESS:    3628114  HIT:    3628106  MISS:          8  HIT %:    99.9998  MISS %:  0.0002205   MPKI: 0.00016
BTB BRANCH_DIRECT_JUMP	ACCESS:          0  HIT:          0  MISS:          0
BTB BRANCH_INDIRECT	ACCESS:          0  HIT:          0  MISS:          0
BTB BRANCH_CONDITIONAL	ACCESS:    3628114  HIT:    3628106  MISS:          8
BTB BRANCH_DIRECT_CALL	ACCESS:          0  HIT:          0  MISS:          0
BTB BRANCH_INDIRECT_CALL	ACCESS:          0  HIT:          0  MISS:          0
BTB BRANCH_RETURN	ACCESS:          0  HIT:          0  MISS:          0
BTB BRANCH_OTHER ACCESS:          0  HIT:          0  MISS:          0

L2C TOTAL     ACCESS:    5789183  HIT:    4627125  MISS:    1162058  HIT %:    79.9271  MISS %:    20.0729   MPKI: 23.2412
L2C LOAD      ACCESS:      19181  HIT:          0  MISS:      19181  HIT %:          0  MISS %:        100   MPKI: 0.38362
L2C DATA LOAD MPKI: 0.38354
L2C INSTRUCTION LOAD MPKI: 8e-05
L2C RFO       ACCESS:          1  HIT:          0  MISS:          1  HIT %:          0  MISS %:        100   MPKI: 2e-05
L2C PREFETCH  ACCESS:    5304512  HIT:    4164168  MISS:    1140344  HIT %:    78.5024  MISS %:    21.4976   MPKI: 22.8069
L2C DATA PREFETCH MPKI: 22.8069
L2C INSTRUCTION PREFETCH MPKI: 0
L2C WRITEBACK ACCESS:     447373  HIT:     447164  MISS:        209  HIT %:    99.9533  MISS %:  0.0467172   MPKI: 0.00418
L2C LOAD TRANSLATION ACCESS:      18116  HIT:      15793  MISS:       2323  HIT %:    87.1771  MISS %:    12.8229   MPKI: 0.04646
L2C PREFETCH  REQUESTED:    5764327  ISSUED:    4698586  USEFUL:          0  USELESS:    1140315
L2C USEFUL LOAD PREFETCHES:          0 PREFETCH ISSUED TO LOWER LEVEL:    1140345  ACCURACY: 0
L2C TIMELY PREFETCHES:          0 LATE PREFETCHES: 0 DROPPED PREFETCHES: 0
L2C PREFETCHES SAME FILL-ORIGIN LEVEL: 1038705 DIFFERENT FILL-ORIGIN LEVEL: 0
L2C AVERAGE MISS LATENCY: 205.049 cycles
L2C RQ	ACCESS:      37298	FORWARD:          0	MERGED:          0	TO_CACHE:      37298
L2C WQ	ACCESS:     447373	FORWARD:          0	MERGED:          0	TO_CACHE:     447373
L2C PQ	ACCESS:    5838912	FORWARD:          0	MERGED:      99337	TO_CACHE:    5739575

L2C Instructions Evicting Data 4
L2C Translations Evicting Data 2318
L2C Data Evicting Data 1157184
L2C Instructions Evicting Instructions 0
L2C Translations Evicting Instructions 0
L2C Data Evicting Instructions 4
L2C Instructions Evicting Translations 0
L2C Translations Evicting Translations 5
L2C Data Evicting Translations 2334
L2C Dense regions hint from L2: 0
PSCL5 TOTAL     ACCESS:      18116  HIT:      18116  MISS:          0  HIT %:        100  MISS %:          0   MPKI: 0
PSCL5 LOAD TRANSLATION ACCESS:      18116  HIT:      18116  MISS:          0  HIT %:        100  MISS %:          0   MPKI: 0
PSCL5 PREFETCH  REQUESTED:          0  ISSUED:          0  USEFUL:          0  USELESS:          0
PSCL5 USEFUL LOAD PREFETCHES:          0 PREFETCH ISSUED TO LOWER LEVEL:          0  ACCURACY: -nan
PSCL5 TIMELY PREFETCHES:          0 LATE PREFETCHES: 0 DROPPED PREFETCHES: 0
PSCL5 PREFETCHES SAME FILL-ORIGIN LEVEL: 0 DIFFERENT FILL-ORIGIN LEVEL: 0

PSCL4 TOTAL     ACCESS:      18116  HIT:      18116  MISS:          0  HIT %:        100  MISS %:          0   MPKI: 0
PSCL4 LOAD TRANSLATION ACCESS:      18116  HIT:      18116  MISS:          0  HIT %:        100  MISS %:          0   MPKI: 0
PSCL4 PREFETCH  REQUESTED:          0  ISSUED:          0  USEFUL:          0  USELESS:          0
PSCL4 USEFUL LOAD PREFETCHES:          0 PREFETCH ISSUED TO LOWER LEVEL:          0  ACCURACY: -nan
PSCL4 TIMELY PREFETCHES:          0 LATE PREFETCHES: 0 DROPPED PREFETCHES: 0
PSCL4 PREFETCHES SAME FILL-ORIGIN LEVEL: 0 DIFFERENT FILL-ORIGIN LEVEL: 0

PSCL3 TOTAL     ACCESS:      18116  HIT:      18116  MISS:          0  HIT %:        100  MISS %:          0   MPKI: 0
PSCL3 LOAD TRANSLATION ACCESS:      18116  HIT:      18116  MISS:          0  HIT %:        100  MISS %:          0   MPKI: 0
PSCL3 PREFETCH  REQUESTED:          0  ISSUED:          0  USEFUL:          0  USELESS:          0
PSCL3 USEFUL LOAD PREFETCHES:          0 PREFETCH ISSUED TO LOWER LEVEL:          0  ACCURACY: -nan
PSCL3 TIMELY PREFETCHES:          0 LATE PREFETCHES: 0 DROPPED PREFETCHES: 0
PSCL3 PREFETCHES SAME FILL-ORIGIN LEVEL: 0 DIFFERENT FILL-ORIGIN LEVEL: 0

PSCL2 TOTAL     ACCESS:      18116  HIT:      18080  MISS:         36  HIT %:    99.8013  MISS %:   0.198719   MPKI: 0.00072
PSCL2 LOAD TRANSLATION ACCESS:      18116  HIT:      18080  MISS:         36  HIT %:    99.8013  MISS %:   0.198719   MPKI: 0.00072
PSCL2 PREFETCH  REQUESTED:          0  ISSUED:          0  USEFUL:          0  USELESS:          0
PSCL2 USEFUL LOAD PREFETCHES:          0 PREFETCH ISSUED TO LOWER LEVEL:          0  ACCURACY: -nan
PSCL2 TIMELY PREFETCHES:          0 LATE PREFETCHES: 0 DROPPED PREFETCHES: 0
PSCL2 PREFETCHES SAME FILL-ORIGIN LEVEL: 0 DIFFERENT FILL-ORIGIN LEVEL: 0

LLC TOTAL     ACCESS:    1611128  HIT:     449339  MISS:    1161789  HIT %:    27.8897  MISS %:    72.1103   MPKI: 23.2358
LLC LOAD      ACCESS:      19181  HIT:         62  MISS:      19119  HIT %:   0.323237  MISS %:    99.6768   MPKI: 0.38238
LLC RFO       ACCESS:          1  HIT:          0  MISS:          1  HIT %:          0  MISS %:        100   MPKI: 2e-05
LLC PREFETCH  ACCESS:    1140344  HIT:          5  MISS:    1140339  HIT %: 0.000438464  MISS %:    99.9996   MPKI: 22.8068
LLC WRITEBACK ACCESS:     449279  HIT:     449246  MISS:         33  HIT %:    99.9927  MISS %:  0.0073451   MPKI: 0.00066
LLC LOAD TRANSLATION ACCESS:       2323  HIT:         26  MISS:       2297  HIT %:    1.11924  MISS %:    98.8808   MPKI: 0.04594
LLC PREFETCH  REQUESTED:          0  ISSUED:          0  USEFUL:          0  USELESS:    1140412
LLC USEFUL LOAD PREFETCHES:          0 PREFETCH ISSUED TO LOWER LEVEL:    1140340  ACCURACY: 0
LLC TIMELY PREFETCHES:          0 LATE PREFETCHES: 0 DROPPED PREFETCHES: 0
LLC PREFETCHES SAME FILL-ORIGIN LEVEL: 0 DIFFERENT FILL-ORIGIN LEVEL: 0
LLC AVERAGE MISS LATENCY: 174.511 cycles
LLC RQ	ACCESS:      21505	FORWARD:          0	MERGED:          0	TO_CACHE:      21505
LLC WQ	ACCESS:     449279	FORWARD:          0	MERGED:          0	TO_CACHE:     449279
LLC PQ	ACCESS:    1140345	FORWARD:          0	MERGED:          0	TO_CACHE:    1140345

LLC Dense regions hint to LLC: 0

RAW hits: 12886
Loads Generated: 7970129
Loads sent to L1D: 7957241
Stores Generated: 2590179
Stores sent to L1D: 2590179
Major fault: 0 Minor fault: 22421
Allocated PAGES: 22421

stream: 
stream:times selected: 2697177
stream:pref_filled: 1400029
stream:pref_useful: 1399995
stream:pref_late: 3803
stream:misses: 39
stream:misses_by_poll: 0

CS: 
CS:times selected: 2695790
CS:pref_filled: 2192
CS:pref_useful: 2192
CS:pref_late: 0
CS:misses: 56306
CS:misses_by_poll: 10

CPLX: 
CPLX:times selected: 1369
CPLX:pref_filled: 7
CPLX:pref_useful: 7
CPLX:pref_late: 0
CPLX:misses: 170
CPLX:misses_by_poll: 0

NL_L1: 
NL:times selected: 6
NL:pref_filled: 1
NL:pref_useful: 1
NL:pref_late: 0
NL:misses: 3
NL:misses_by_poll: 0

total selections: 5394342
total_filled: 1136506
total_useful: 1136495
total_late: 3820
total_polluted: 10
total_misses_after_warmup: 50901
conflicts: 14
Degree Incremented Times: 75235
Degree Decremented Times: 0

L1 IP Table Write Accesses: 6503577
L1 IP Table Read Accesses: 6503563
L1 RST Write Accesses: 2155120
L1 RST Read Accesses: 4310240
L1 CSPT Write Accesses: 2155120
L1 CSPT Read Accesses: 2158980
L1 RR Filter Tag Write Accesses: 1181264
L1 RR Filter Tag Read Accesses: 393372751
L1 IP Table Tag Write Accesses: 6503579
L1 IP Table Tag Read Accesses: 6503579
L1 RST Tag Write Accesses: 0
L1 RST Tag Read Accesses: 19394636
L1 RR Filter Write Accesses: 0
L1 RR Filter Read Accesses: 18464306
test: 40246
L2 IP Table Read Accesses: 2049071
L2 IP Table Write Accesses: 2029904
L2 IP Table Tag Read Accesses: 1024538
L2 IP Table Tag Write Accesses: 1024538

DRAM Statistics
 CHANNEL 0
 RQ ROW_BUFFER_HIT:     727656  ROW_BUFFER_MISS:     434100
 DBUS_CONGESTED:        248
 WQ ROW_BUFFER_HIT:     239284  ROW_BUFFER_MISS:     224098  FULL:          0

 AVG_CONGESTED_CYCLE: 5
 All warmup complete: 2
Channel 0 Bank busy for read cycles: 0
Channel 0 Bank busy for write cycles: 0
Channel 0
Rank 0
0banks busy for read cycles: 22862622
0banks busy for write cycles: 5252
1banks busy for read cycles: 23863457
1banks busy for write cycles: 368939
2banks busy for read cycles: 7472697
2banks busy for write cycles: 222646
3banks busy for read cycles: 3054932
3banks busy for write cycles: 250405
4banks busy for read cycles: 2771247
4banks busy for write cycles: 226927
5banks busy for read cycles: 1865055
5banks busy for write cycles: 226191
6banks busy for read cycles: 3155174
6banks busy for write cycles: 252195
7banks busy for read cycles: 1997796
7banks busy for write cycles: 882930
8banks busy for read cycles: 181835
8banks busy for write cycles: 7027318

CPU 0 Branch Prediction Accuracy: 85.6192% MPKI: 15.7911 Average ROB Occupancy at Mispredict: 24.2026
Branch types
NOT_BRANCH: 44509664 89.0193%
BRANCH_DIRECT_JUMP: 0 0%
BRANCH_INDIRECT: 0 0%
BRANCH_CONDITIONAL: 5490333 10.9807%
BRANCH_DIRECT_CALL: 0 0%
BRANCH_INDIRECT_CALL: 0 0%
BRANCH_RETURN: 0 0%
BRANCH_OTHER: 0 0%

@sumon_overall_L1D   1136495      3820        28   1136506   2362528   2362528
@Sumon_Early_by_class_L1D   1134802      1686         7         0
@Sumon_Late_by_class_L1D      3803         0         0         0

@Sumon_Early_by_cycle_L1D      7490     16680     29288    253631     30076    799330         0         0         0         0         0         0
@Sumon_Late_by_cycle_L1D      3288       523         9         0         0         0         0         0         0         0         0         0
@Sumon_Early_stream_L1D      7490     16676     29204    252735     29409    799288         0         0         0         0         0         0
@Sumon_Early_CS_L1D         0         1        80       896       667        42         0         0         0         0         0         0
@Sumon_Early_CPLX_L1D         0         3         4         0         0         0         0         0         0         0         0         0
@Sumon_Late_stream_L1D      3271       523         9         0         0         0         0         0         0         0         0         0
@Sumon_Late_CS_L1D         0         0         0         0         0         0         0         0         0         0         0         0
@Sumon_Late_CPLX_L1D         0         0         0         0         0         0         0         0         0         0         0         0
@sumon_overall_L2C         0         0   1140315   1140344   4698586   5764327
@Sumon_Early_by_class_L2C         0         0         0         0
@Sumon_Late_by_class_L2C         0         0         0         0

@Sumon_Early_by_cycle_L2C         0         0         0         0         0         0         0         0         0         0         0         0
@Sumon_Late_by_cycle_L2C         0         0         0         0         0         0         0         0         0         0         0         0
@Sumon_Early_stream_L2C         0         0         0         0         0         0         0         0         0         0         0         0
@Sumon_Early_CS_L2C         0         0         0         0         0         0         0         0         0         0         0         0
@Sumon_Early_CPLX_L2C         0         0         0         0         0         0         0         0         0         0         0         0
@Sumon_Late_stream_L2C         0         0         0         0         0         0         0         0         0         0         0         0
@Sumon_Late_CS_L2C         0         0         0         0         0         0         0         0         0         0         0         0
@Sumon_Late_CPLX_L2C         0         0         0         0         0         0         0         0         0         0         0         0
DRAM PAGES: 1048576
Allocated PAGES: 22421
