
*** ChampSim Multicore Out-of-Order Simulator ***

Warmup Instructions: 10000000
Simulation Instructions: 50000000
Number of CPUs: 1
LLC sets: 2048
LLC ways: 16
Off-chip DRAM Size: 4096 MB Channels: 1 Width: 64-bit Data Rate: 6400 MT/s
CPU 0 runs traces/SPEC2017/605.mcf_s-1152B.champsimtrace.xz
.xz
CPU 0 Bimodal branch predictor
BTB has LRU replacement policy
ITLB has LRU replacement policy
DTLB has LRU replacement policy
STLB has LRU replacement policy
L1I has LRU replacement policy
IP Table Entries: 256
L1D has LRU replacement policy
IP_Table L2 entries: 256
Initialize DRRIP state for L2C
LLC has LRU replacement policy
Heartbeat CPU 0 instructions: 10000001 cycles: 3345652 heartbeat IPC: 2.98895 cumulative IPC: 2.98895 (Simulation time: 0 hr 28 min 19 sec) 

Warmup complete CPU 0 instructions: 10000001 cycles: 3345652 (Simulation time: 0 hr 28 min 20 sec) 

Heartbeat CPU 0 instructions: 20000003 cycles: 43569250 heartbeat IPC: 0.24861 cumulative IPC: 0.24861 (Simulation time: 0 hr 53 min 5 sec) 
Heartbeat CPU 0 instructions: 30000000 cycles: 83511367 heartbeat IPC: 0.250362 cumulative IPC: 0.249483 (Simulation time: 1 hr 18 min 6 sec) 
Heartbeat CPU 0 instructions: 40000003 cycles: 123541877 heartbeat IPC: 0.24981 cumulative IPC: 0.249592 (Simulation time: 1 hr 42 min 49 sec) 
Heartbeat CPU 0 instructions: 50000001 cycles: 163693675 heartbeat IPC: 0.249055 cumulative IPC: 0.249457 (Simulation time: 2 hr 1 min 22 sec) 
Heartbeat CPU 0 instructions: 60000001 cycles: 203627252 heartbeat IPC: 0.250416 cumulative IPC: 0.249648 (Simulation time: 2 hr 11 min 45 sec) 
Finished CPU 0 instructions: 50000000 cycles: 200281600 cumulative IPC: 0.249648 (Simulation time: 2 hr 11 min 45 sec) 

ChampSim completed all CPUs

Region of Interest Statistics

CPU 0 cumulative IPC: 0.249648 instructions: 50000000 cycles: 200281600
ITLB TOTAL     ACCESS:    8897476  HIT:    8897476  MISS:          0  HIT %:        100  MISS %:          0   MPKI: 0
ITLB LOAD TRANSLATION ACCESS:    8897476  HIT:    8897476  MISS:          0  HIT %:        100  MISS %:          0   MPKI: 0
ITLB PREFETCH  REQUESTED:          0  ISSUED:          0  USEFUL:          0  USELESS:          0
ITLB USEFUL LOAD PREFETCHES:          0 PREFETCH ISSUED TO LOWER LEVEL:          0  ACCURACY: -nan
ITLB TIMELY PREFETCHES:          0 LATE PREFETCHES: 0 DROPPED PREFETCHES: 0
ITLB PREFETCHES SAME FILL-ORIGIN LEVEL: 0 DIFFERENT FILL-ORIGIN LEVEL: 0
ITLB AVERAGE MISS LATENCY: -nan cycles
ITLB RQ	ACCESS:    9314928	FORWARD:          0	MERGED:     417452	TO_CACHE:    8897476

DTLB TOTAL     ACCESS:   14838658  HIT:   13543856  MISS:    1294802  HIT %:    91.2741  MISS %:    8.72587   MPKI: 25.896
DTLB LOAD TRANSLATION ACCESS:   14838658  HIT:   13543856  MISS:    1294802  HIT %:    91.2741  MISS %:    8.72587   MPKI: 25.896
DTLB PREFETCH  REQUESTED:          0  ISSUED:          0  USEFUL:          0  USELESS:          0
DTLB USEFUL LOAD PREFETCHES:          0 PREFETCH ISSUED TO LOWER LEVEL:          0  ACCURACY: -nan
DTLB TIMELY PREFETCHES:          0 LATE PREFETCHES: 0 DROPPED PREFETCHES: 0
DTLB PREFETCHES SAME FILL-ORIGIN LEVEL: 0 DIFFERENT FILL-ORIGIN LEVEL: 0
DTLB AVERAGE MISS LATENCY: 10.8898 cycles
DTLB RQ	ACCESS:   18145464	FORWARD:          0	MERGED:    3202034	TO_CACHE:   14943430

STLB TOTAL     ACCESS:    5024463  HIT:    5007990  MISS:      16473  HIT %:    99.6721  MISS %:   0.327856   MPKI: 0.32946
STLB LOAD TRANSLATION ACCESS:    1294802  HIT:    1278329  MISS:      16473  HIT %:    98.7278  MISS %:    1.27224   MPKI: 0.32946
STLB TRANSLATION FROM L1D PREFETCHER ACCESS:    3729661  HIT:    3729661  MISS:          0  HIT %:        100  MISS %:          0   MPKI: 0
STLB PREFETCH  REQUESTED:          0  ISSUED:          0  USEFUL:          0  USELESS:          0
STLB USEFUL LOAD PREFETCHES:          0 PREFETCH ISSUED TO LOWER LEVEL:          0  ACCURACY: -nan
STLB TIMELY PREFETCHES:          0 LATE PREFETCHES: 0 DROPPED PREFETCHES: 0
STLB PREFETCHES SAME FILL-ORIGIN LEVEL: 0 DIFFERENT FILL-ORIGIN LEVEL: 0
STLB AVERAGE MISS LATENCY: 131.378 cycles
STLB RQ	ACCESS:    5698958	FORWARD:          0	MERGED:     674494	TO_CACHE:    5024464

STLB Hit, L1D data hit: 0
STLB Hit, L2C data hit: 0
STLB Hit, LLC data hit: 0
STLB Hit, LLC data miss: 0
STLB STLB hints to L2: 0
L1D TOTAL     ACCESS:   22014646  HIT:   17437037  MISS:    4577609  HIT %:    79.2065  MISS %:    20.7935   MPKI: 91.5522
L1D LOAD      ACCESS:   12959962  HIT:   11028015  MISS:    1931947  HIT %:     85.093  MISS %:     14.907   MPKI: 38.6389
L1D RFO       ACCESS:    4869842  HIT:    4692256  MISS:     177586  HIT %:    96.3534  MISS %:    3.64665   MPKI: 3.55172
L1D PREFETCH  ACCESS:    4184842  HIT:    1716766  MISS:    2468076  HIT %:    41.0234  MISS %:    58.9766   MPKI: 49.3615
L1D PREFETCH  REQUESTED:    8812551  ISSUED:    8812419  USEFUL:     656323  USELESS:    1811761
L1D USEFUL LOAD PREFETCHES:     656323 PREFETCH ISSUED TO LOWER LEVEL:    2597586  ACCURACY: 25.2667
L1D TIMELY PREFETCHES:     656323 LATE PREFETCHES: 129282 DROPPED PREFETCHES: 0
L1D PREFETCHES SAME FILL-ORIGIN LEVEL: 2597586 DIFFERENT FILL-ORIGIN LEVEL: 0
L1D AVERAGE MISS LATENCY: 2.94935e+06 cycles
L1D RQ	ACCESS:   17084102	FORWARD:          0	MERGED:    3608588	TO_CACHE:   12985510
L1D WQ	ACCESS:    5189939	FORWARD:     494111	MERGED:      29985	TO_CACHE:    5159954
L1D PQ	ACCESS:    4408263	FORWARD:          0	MERGED:          0	TO_CACHE:    4404156

L1D UNIQUE REGIONS ACCESSED: 0
L1D REGIONS CONFLICTS: 0
L1D Cross Page Prefetch Requests: 0
L1D Same Page Prefetch Requests: 5267137
L1D ROI Sum of L1D PQ occupancy: 57338692
L1D PREFETCHES PUSHED FROM L2C: 0
L1I TOTAL     ACCESS:    9314928  HIT:    9314928  MISS:          0  HIT %:        100  MISS %:          0   MPKI: 0
L1I LOAD      ACCESS:    9314928  HIT:    9314928  MISS:          0  HIT %:        100  MISS %:          0   MPKI: 0
L1I PREFETCH  REQUESTED:          0  ISSUED:          0  USEFUL:          0  USELESS:          0
L1I USEFUL LOAD PREFETCHES:          0 PREFETCH ISSUED TO LOWER LEVEL:          0  ACCURACY: -nan
L1I TIMELY PREFETCHES:          0 LATE PREFETCHES: 0 DROPPED PREFETCHES: 0
L1I PREFETCHES SAME FILL-ORIGIN LEVEL: 0 DIFFERENT FILL-ORIGIN LEVEL: 0
L1I AVERAGE MISS LATENCY: -nan cycles
L1I RQ	ACCESS:   14439112	FORWARD:          0	MERGED:    5124184	TO_CACHE:    9314928

BTB TOTAL     ACCESS:   11600278  HIT:   11097954  MISS:     502324  HIT %:    95.6697  MISS %:    4.33028   MPKI: 10.0465
BTB BRANCH_DIRECT_JUMP	ACCESS:    1321999  HIT:    1321963  MISS:         36
BTB BRANCH_INDIRECT	ACCESS:          0  HIT:          0  MISS:          0
BTB BRANCH_CONDITIONAL	ACCESS:    7949724  HIT:    7949650  MISS:         74
BTB BRANCH_DIRECT_CALL	ACCESS:    1094376  HIT:    1094358  MISS:         18
BTB BRANCH_INDIRECT_CALL	ACCESS:      69902  HIT:      69894  MISS:          8
BTB BRANCH_RETURN	ACCESS:    1164277  HIT:     662089  MISS:     502188
BTB BRANCH_OTHER ACCESS:          0  HIT:          0  MISS:          0

L2C TOTAL     ACCESS:    5475897  HIT:    2251125  MISS:    3224772  HIT %:    41.1097  MISS %:    58.8903   MPKI: 64.4954
L2C LOAD      ACCESS:    1802652  HIT:     592721  MISS:    1209931  HIT %:    32.8805  MISS %:    67.1195   MPKI: 24.1986
L2C DATA LOAD MPKI: 24.1986
L2C INSTRUCTION LOAD MPKI: 0
L2C RFO       ACCESS:     177386  HIT:     157021  MISS:      20365  HIT %:    88.5194  MISS %:    11.4806   MPKI: 0.4073
L2C PREFETCH  ACCESS:    3209076  HIT:    1236579  MISS:    1972497  HIT %:    38.5338  MISS %:    61.4662   MPKI: 39.4499
L2C DATA PREFETCH MPKI: 39.4499
L2C INSTRUCTION PREFETCH MPKI: 0
L2C WRITEBACK ACCESS:     270261  HIT:     254543  MISS:      15718  HIT %:    94.1841  MISS %:    5.81586   MPKI: 0.31436
L2C LOAD TRANSLATION ACCESS:      16522  HIT:      10261  MISS:       6261  HIT %:    62.1051  MISS %:    37.8949   MPKI: 0.12522
L2C PREFETCH  REQUESTED:    1338568  ISSUED:    1338547  USEFUL:      89084  USELESS:    1883200
L2C USEFUL LOAD PREFETCHES:      89084 PREFETCH ISSUED TO LOWER LEVEL:    1977020  ACCURACY: 4.50597
L2C TIMELY PREFETCHES:      89084 LATE PREFETCHES: 4523 DROPPED PREFETCHES: 0
L2C PREFETCHES SAME FILL-ORIGIN LEVEL: 511614 DIFFERENT FILL-ORIGIN LEVEL: 0
L2C AVERAGE MISS LATENCY: 100.275 cycles
L2C RQ	ACCESS:    1996573	FORWARD:          0	MERGED:          0	TO_CACHE:    1996560
L2C WQ	ACCESS:     270261	FORWARD:         21	MERGED:          0	TO_CACHE:     270261
L2C PQ	ACCESS:    3936105	FORWARD:          0	MERGED:     345583	TO_CACHE:    3590514

L2C Instructions Evicting Data 0
L2C Translations Evicting Data 6249
L2C Data Evicting Data 3196597
L2C Instructions Evicting Instructions 0
L2C Translations Evicting Instructions 0
L2C Data Evicting Instructions 0
L2C Instructions Evicting Translations 0
L2C Translations Evicting Translations 12
L2C Data Evicting Translations 6196
L2C Dense regions hint from L2: 0
PSCL5 TOTAL     ACCESS:      16473  HIT:      16473  MISS:          0  HIT %:        100  MISS %:          0   MPKI: 0
PSCL5 LOAD TRANSLATION ACCESS:      16473  HIT:      16473  MISS:          0  HIT %:        100  MISS %:          0   MPKI: 0
PSCL5 PREFETCH  REQUESTED:          0  ISSUED:          0  USEFUL:          0  USELESS:          0
PSCL5 USEFUL LOAD PREFETCHES:          0 PREFETCH ISSUED TO LOWER LEVEL:          0  ACCURACY: -nan
PSCL5 TIMELY PREFETCHES:          0 LATE PREFETCHES: 0 DROPPED PREFETCHES: 0
PSCL5 PREFETCHES SAME FILL-ORIGIN LEVEL: 0 DIFFERENT FILL-ORIGIN LEVEL: 0

PSCL4 TOTAL     ACCESS:      16473  HIT:      16473  MISS:          0  HIT %:        100  MISS %:          0   MPKI: 0
PSCL4 LOAD TRANSLATION ACCESS:      16473  HIT:      16473  MISS:          0  HIT %:        100  MISS %:          0   MPKI: 0
PSCL4 PREFETCH  REQUESTED:          0  ISSUED:          0  USEFUL:          0  USELESS:          0
PSCL4 USEFUL LOAD PREFETCHES:          0 PREFETCH ISSUED TO LOWER LEVEL:          0  ACCURACY: -nan
PSCL4 TIMELY PREFETCHES:          0 LATE PREFETCHES: 0 DROPPED PREFETCHES: 0
PSCL4 PREFETCHES SAME FILL-ORIGIN LEVEL: 0 DIFFERENT FILL-ORIGIN LEVEL: 0

PSCL3 TOTAL     ACCESS:      16473  HIT:      16473  MISS:          0  HIT %:        100  MISS %:          0   MPKI: 0
PSCL3 LOAD TRANSLATION ACCESS:      16473  HIT:      16473  MISS:          0  HIT %:        100  MISS %:          0   MPKI: 0
PSCL3 PREFETCH  REQUESTED:          0  ISSUED:          0  USEFUL:          0  USELESS:          0
PSCL3 USEFUL LOAD PREFETCHES:          0 PREFETCH ISSUED TO LOWER LEVEL:          0  ACCURACY: -nan
PSCL3 TIMELY PREFETCHES:          0 LATE PREFETCHES: 0 DROPPED PREFETCHES: 0
PSCL3 PREFETCHES SAME FILL-ORIGIN LEVEL: 0 DIFFERENT FILL-ORIGIN LEVEL: 0

PSCL2 TOTAL     ACCESS:      16473  HIT:      16317  MISS:        156  HIT %:     99.053  MISS %:   0.947004   MPKI: 0.00312
PSCL2 LOAD TRANSLATION ACCESS:      16473  HIT:      16317  MISS:        156  HIT %:     99.053  MISS %:   0.947004   MPKI: 0.00312
PSCL2 PREFETCH  REQUESTED:          0  ISSUED:          0  USEFUL:          0  USELESS:          0
PSCL2 USEFUL LOAD PREFETCHES:          0 PREFETCH ISSUED TO LOWER LEVEL:          0  ACCURACY: -nan
PSCL2 TIMELY PREFETCHES:          0 LATE PREFETCHES: 0 DROPPED PREFETCHES: 0
PSCL2 PREFETCHES SAME FILL-ORIGIN LEVEL: 0 DIFFERENT FILL-ORIGIN LEVEL: 0

LLC TOTAL     ACCESS:    3287861  HIT:    1948807  MISS:    1339054  HIT %:    59.2728  MISS %:    40.7272   MPKI: 26.7811
LLC LOAD      ACCESS:    1205408  HIT:     910092  MISS:     295316  HIT %:    75.5007  MISS %:    24.4993   MPKI: 5.90632
LLC RFO       ACCESS:      20364  HIT:      19463  MISS:        901  HIT %:    95.5755  MISS %:    4.42447   MPKI: 0.01802
LLC PREFETCH  ACCESS:    1977020  HIT:     956550  MISS:    1020470  HIT %:    48.3834  MISS %:    51.6166   MPKI: 20.4094
LLC WRITEBACK ACCESS:      78808  HIT:      59474  MISS:      19334  HIT %:     75.467  MISS %:     24.533   MPKI: 0.38668
LLC LOAD TRANSLATION ACCESS:       6261  HIT:       3228  MISS:       3033  HIT %:    51.5573  MISS %:    48.4427   MPKI: 0.06066
LLC PREFETCH  REQUESTED:          0  ISSUED:          0  USEFUL:      69346  USELESS:     950664
LLC USEFUL LOAD PREFETCHES:      69346 PREFETCH ISSUED TO LOWER LEVEL:    1020470  ACCURACY: 6.7955
LLC TIMELY PREFETCHES:      69346 LATE PREFETCHES: 0 DROPPED PREFETCHES: 0
LLC PREFETCHES SAME FILL-ORIGIN LEVEL: 0 DIFFERENT FILL-ORIGIN LEVEL: 0
LLC AVERAGE MISS LATENCY: 169.281 cycles
LLC RQ	ACCESS:    1232034	FORWARD:          0	MERGED:          0	TO_CACHE:    1232033
LLC WQ	ACCESS:      78808	FORWARD:          1	MERGED:          0	TO_CACHE:      78808
LLC PQ	ACCESS:    1977020	FORWARD:          0	MERGED:          0	TO_CACHE:    1977020

LLC Dense regions hint to LLC: 0

RAW hits: 651431
Loads Generated: 17735533
Loads sent to L1D: 17084102
Stores Generated: 5189909
Stores sent to L1D: 5189939
Major fault: 0 Minor fault: 14980
Allocated PAGES: 14980

stream: 
stream:times selected: 7023964
stream:pref_filled: 2000603
stream:pref_useful: 100970
stream:pref_late: 2296
stream:misses: 474330
stream:misses_by_poll: 0

CS: 
CS:times selected: 1080113
CS:pref_filled: 660422
CS:pref_useful: 638012
CS:pref_late: 153552
CS:misses: 222489
CS:misses_by_poll: 1935

CPLX: 
CPLX:times selected: 5890217
CPLX:pref_filled: 253905
CPLX:pref_useful: 32861
CPLX:pref_late: 1117
CPLX:misses: 1647091
CPLX:misses_by_poll: 778

NL_L1: 
NL:times selected: 45150
NL:pref_filled: 15045
NL:pref_useful: 774
NL:pref_late: 201
NL:misses: 15794
NL:misses_by_poll: 0

total selections: 14039444
total_filled: 2468076
total_useful: 656323
total_late: 163336
total_polluted: 2713
total_misses_after_warmup: 1957495
conflicts: 83464
Degree Incremented Times: 51381
Degree Decremented Times: 173462

L1 IP Table Write Accesses: 12779179
L1 IP Table Read Accesses: 12695715
L1 RST Write Accesses: 5824137
L1 RST Read Accesses: 11648274
L1 CSPT Write Accesses: 5824137
L1 CSPT Read Accesses: 10726162
L1 RR Filter Tag Write Accesses: 4408395
L1 RR Filter Tag Read Accesses: 243659551
L1 IP Table Tag Write Accesses: 12985510
L1 IP Table Tag Read Accesses: 12985510
L1 RST Tag Write Accesses: 0
L1 RST Tag Read Accesses: 55496230
L1 RR Filter Write Accesses: 0
L1 RR Filter Read Accesses: 8809335
test: 3367203
L2 IP Table Read Accesses: 8231490
L2 IP Table Write Accesses: 6434104
L2 IP Table Tag Read Accesses: 4118617
L2 IP Table Tag Write Accesses: 4118617

DRAM Statistics
 CHANNEL 0
 RQ ROW_BUFFER_HIT:     335302  ROW_BUFFER_MISS:     984411
 DBUS_CONGESTED:        400
 WQ ROW_BUFFER_HIT:       3620  ROW_BUFFER_MISS:      22556  FULL:          0

 AVG_CONGESTED_CYCLE: 4
 All warmup complete: 2
Channel 0 Bank busy for read cycles: 0
Channel 0 Bank busy for write cycles: 0
Channel 0
Rank 0
0banks busy for read cycles: 133482817
0banks busy for write cycles: 18967
1banks busy for read cycles: 20000789
1banks busy for write cycles: 3660761
2banks busy for read cycles: 14838492
2banks busy for write cycles: 866527
3banks busy for read cycles: 10424473
3banks busy for write cycles: 210043
4banks busy for read cycles: 7428728
4banks busy for write cycles: 53615
5banks busy for read cycles: 4609809
5banks busy for write cycles: 9378
6banks busy for read cycles: 2655620
6banks busy for write cycles: 1543
7banks busy for read cycles: 1375483
7banks busy for write cycles: 73
8banks busy for read cycles: 644340
8banks busy for write cycles: 143

CPU 0 Branch Prediction Accuracy: 90.105% MPKI: 24.6801 Average ROB Occupancy at Mispredict: 14.8107
Branch types
NOT_BRANCH: 37528554 75.0571%
BRANCH_DIRECT_JUMP: 1321999 2.644%
BRANCH_INDIRECT: 0 0%
BRANCH_CONDITIONAL: 8820511 17.641%
BRANCH_DIRECT_CALL: 1094376 2.18875%
BRANCH_INDIRECT_CALL: 69902 0.139804%
BRANCH_RETURN: 1164277 2.32855%
BRANCH_OTHER: 0 0%

@sumon_overall_L1D    656323    129282   1811761   2468076   8812419   8812551
@Sumon_Early_by_class_L1D     84540    541020     30142       196
@Sumon_Late_by_class_L1D      1716    122005      1057       196

@Sumon_Early_by_cycle_L1D    115376    100278    202707     87474     23923     14753     16496     20775     26926     27322     13481      6812
@Sumon_Late_by_cycle_L1D     63585     57018      8581        97         1         0         0         0         0         0         0         0
@Sumon_Early_stream_L1D      6551      2144      2083      1182       858      4442      5658     10294     14737     20150     10550      5891
@Sumon_Early_CS_L1D    107651     96311    196071     81838     19778      7043     10047      9093      9746      2638       544       260
@Sumon_Early_CPLX_L1D      1155      1805      4542      4442      3276      3130       739      1321      2334      4418      2339       641
@Sumon_Late_stream_L1D      1197       476        43         0         0         0         0         0         0         0         0         0
@Sumon_Late_CS_L1D     57227     56158      8523        96         1         0         0         0         0         0         0         0
@Sumon_Late_CPLX_L1D       657       384        15         1         0         0         0         0         0         0         0         0
@sumon_overall_L2C     89084      4523   1883200   1972497   1338547   1338568
@Sumon_Early_by_class_L2C     18466     65759      4507         0
@Sumon_Late_by_class_L2C         0      4320         0         0

@Sumon_Early_by_cycle_L2C      3437      5598      5382      1436       412       162        13        44       446      2018      3689     66447
@Sumon_Late_by_cycle_L2C      3057      1316       148         2         0         0         0         0         0         0         0         0
@Sumon_Early_stream_L2C         0         0         0         0         0         0         1        23       363      1637      2274     14168
@Sumon_Early_CS_L2C      3380      5565      5378      1436       410       155         5         4         9       126       973     48318
@Sumon_Early_CPLX_L2C         0         0         0         0         0         0         3         5        63       233       409      3794
@Sumon_Late_stream_L2C         0         0         0         0         0         0         0         0         0         0         0         0
@Sumon_Late_CS_L2C      2861      1309       148         2         0         0         0         0         0         0         0         0
@Sumon_Late_CPLX_L2C         0         0         0         0         0         0         0         0         0         0         0         0
DRAM PAGES: 1048576
Allocated PAGES: 14980
