
*** ChampSim Multicore Out-of-Order Simulator ***

Warmup Instructions: 10000000
Simulation Instructions: 50000000
Number of CPUs: 1
LLC sets: 2048
LLC ways: 16
Off-chip DRAM Size: 4096 MB Channels: 1 Width: 64-bit Data Rate: 6400 MT/s
CPU 0 runs traces/SPEC2017/605.mcf_s-1554B.champsimtrace.xz
.xz
CPU 0 Bimodal branch predictor
BTB has LRU replacement policy
ITLB has LRU replacement policy
DTLB has LRU replacement policy
STLB has LRU replacement policy
L1I has LRU replacement policy
IP Table Entries: 256
L1D has LRU replacement policy
IP_Table L2 entries: 256
Initialize DRRIP state for L2C
LLC has LRU replacement policy
Heartbeat CPU 0 instructions: 10000001 cycles: 3511624 heartbeat IPC: 2.84769 cumulative IPC: 2.84769 (Simulation time: 0 hr 36 min 39 sec) 

Warmup complete CPU 0 instructions: 10000001 cycles: 3511624 (Simulation time: 0 hr 36 min 40 sec) 

Heartbeat CPU 0 instructions: 20000000 cycles: 37951787 heartbeat IPC: 0.290359 cumulative IPC: 0.290359 (Simulation time: 1 hr 27 min 9 sec) 
Heartbeat CPU 0 instructions: 30000003 cycles: 71899642 heartbeat IPC: 0.29457 cumulative IPC: 0.292449 (Simulation time: 2 hr 6 min 1 sec) 
Heartbeat CPU 0 instructions: 40000001 cycles: 106160904 heartbeat IPC: 0.291875 cumulative IPC: 0.292257 (Simulation time: 2 hr 20 min 52 sec) 
Heartbeat CPU 0 instructions: 50000000 cycles: 140538127 heartbeat IPC: 0.29089 cumulative IPC: 0.291914 (Simulation time: 2 hr 29 min 5 sec) 
Heartbeat CPU 0 instructions: 60000002 cycles: 174829902 heartbeat IPC: 0.291615 cumulative IPC: 0.291854 (Simulation time: 2 hr 32 min 2 sec) 
Finished CPU 0 instructions: 50000001 cycles: 171318278 cumulative IPC: 0.291854 (Simulation time: 2 hr 32 min 2 sec) 

ChampSim completed all CPUs

Region of Interest Statistics

CPU 0 cumulative IPC: 0.291854 instructions: 50000001 cycles: 171318278
ITLB TOTAL     ACCESS:   10500642  HIT:   10500642  MISS:          0  HIT %:        100  MISS %:          0   MPKI: 0
ITLB LOAD TRANSLATION ACCESS:   10500642  HIT:   10500642  MISS:          0  HIT %:        100  MISS %:          0   MPKI: 0
ITLB PREFETCH  REQUESTED:          0  ISSUED:          0  USEFUL:          0  USELESS:          0
ITLB USEFUL LOAD PREFETCHES:          0 PREFETCH ISSUED TO LOWER LEVEL:          0  ACCURACY: -nan
ITLB TIMELY PREFETCHES:          0 LATE PREFETCHES: 0 DROPPED PREFETCHES: 0
ITLB PREFETCHES SAME FILL-ORIGIN LEVEL: 0 DIFFERENT FILL-ORIGIN LEVEL: 0
ITLB AVERAGE MISS LATENCY: -nan cycles
ITLB RQ	ACCESS:   12745245	FORWARD:          0	MERGED:    2244603	TO_CACHE:   10500642

DTLB TOTAL     ACCESS:   16058749  HIT:   15861583  MISS:     197166  HIT %:    98.7722  MISS %:    1.22778   MPKI: 3.94332
DTLB LOAD TRANSLATION ACCESS:   16058749  HIT:   15861583  MISS:     197166  HIT %:    98.7722  MISS %:    1.22778   MPKI: 3.94332
DTLB PREFETCH  REQUESTED:          0  ISSUED:          0  USEFUL:          0  USELESS:          0
DTLB USEFUL LOAD PREFETCHES:          0 PREFETCH ISSUED TO LOWER LEVEL:          0  ACCURACY: -nan
DTLB TIMELY PREFETCHES:          0 LATE PREFETCHES: 0 DROPPED PREFETCHES: 0
DTLB PREFETCHES SAME FILL-ORIGIN LEVEL: 0 DIFFERENT FILL-ORIGIN LEVEL: 0
DTLB AVERAGE MISS LATENCY: 13.4046 cycles
DTLB RQ	ACCESS:   19643381	FORWARD:          0	MERGED:    3579057	TO_CACHE:   16064324

STLB TOTAL     ACCESS:    6370955  HIT:    6366532  MISS:       4423  HIT %:    99.9306  MISS %:  0.0694244   MPKI: 0.08846
STLB LOAD TRANSLATION ACCESS:     197166  HIT:     192744  MISS:       4422  HIT %:    97.7572  MISS %:    2.24278   MPKI: 0.08844
STLB TRANSLATION FROM L1D PREFETCHER ACCESS:    6173789  HIT:    6173788  MISS:          1  HIT %:        100  MISS %: 1.61975e-05   MPKI: 2e-05
STLB PREFETCH  REQUESTED:          0  ISSUED:          0  USEFUL:          1  USELESS:          0
STLB USEFUL LOAD PREFETCHES:          1 PREFETCH ISSUED TO LOWER LEVEL:          0  ACCURACY: inf
STLB TIMELY PREFETCHES:          1 LATE PREFETCHES: 0 DROPPED PREFETCHES: 0
STLB PREFETCHES SAME FILL-ORIGIN LEVEL: 0 DIFFERENT FILL-ORIGIN LEVEL: 0
STLB AVERAGE MISS LATENCY: 195.238 cycles
STLB RQ	ACCESS:   20450404	FORWARD:          0	MERGED:   14079450	TO_CACHE:    6370954

STLB Hit, L1D data hit: 0
STLB Hit, L2C data hit: 0
STLB Hit, LLC data hit: 0
STLB Hit, LLC data miss: 0
STLB STLB hints to L2: 0
L1D TOTAL     ACCESS:   35173018  HIT:   22954240  MISS:   12218778  HIT %:    65.2609  MISS %:    34.7391   MPKI: 244.376
L1D LOAD      ACCESS:   16249238  HIT:   12861180  MISS:    3388058  HIT %:    79.1494  MISS %:    20.8506   MPKI: 67.7612
L1D RFO       ACCESS:    2520946  HIT:    2371613  MISS:     149333  HIT %:    94.0763  MISS %:    5.92369   MPKI: 2.98666
L1D PREFETCH  ACCESS:   16402834  HIT:    7721447  MISS:    8681387  HIT %:    47.0739  MISS %:    52.9261   MPKI: 173.628
L1D PREFETCH  REQUESTED:   45114388  ISSUED:   40556110  USEFUL:    4150903  USELESS:    4530483
L1D USEFUL LOAD PREFETCHES:    4150903 PREFETCH ISSUED TO LOWER LEVEL:   10491950  ACCURACY: 39.5627
L1D TIMELY PREFETCHES:    4150903 LATE PREFETCHES: 1810483 DROPPED PREFETCHES: 0
L1D PREFETCHES SAME FILL-ORIGIN LEVEL: 10491950 DIFFERENT FILL-ORIGIN LEVEL: 0
L1D AVERAGE MISS LATENCY: 1.3176e+07 cycles
L1D RQ	ACCESS:   20638975	FORWARD:          0	MERGED:    3962891	TO_CACHE:   16648133
L1D WQ	ACCESS:    3596625	FORWARD:      27951	MERGED:     601377	TO_CACHE:    2995248
L1D PQ	ACCESS:   20302872	FORWARD:          0	MERGED:      49634	TO_CACHE:   20253238

L1D UNIQUE REGIONS ACCESSED: 0
L1D REGIONS CONFLICTS: 0
L1D Cross Page Prefetch Requests: 0
L1D Same Page Prefetch Requests: 23152216
L1D ROI Sum of L1D PQ occupancy: 935709941
L1D PREFETCHES PUSHED FROM L2C: 0
L1I TOTAL     ACCESS:   12745243  HIT:   12745243  MISS:          0  HIT %:        100  MISS %:          0   MPKI: 0
L1I LOAD      ACCESS:   12745243  HIT:   12745243  MISS:          0  HIT %:        100  MISS %:          0   MPKI: 0
L1I PREFETCH  REQUESTED:          0  ISSUED:          0  USEFUL:          0  USELESS:          0
L1I USEFUL LOAD PREFETCHES:          0 PREFETCH ISSUED TO LOWER LEVEL:          0  ACCURACY: -nan
L1I TIMELY PREFETCHES:          0 LATE PREFETCHES: 0 DROPPED PREFETCHES: 0
L1I PREFETCHES SAME FILL-ORIGIN LEVEL: 0 DIFFERENT FILL-ORIGIN LEVEL: 0
L1I AVERAGE MISS LATENCY: -nan cycles
L1I RQ	ACCESS:   17537684	FORWARD:          0	MERGED:    4792439	TO_CACHE:   12745245

BTB TOTAL     ACCESS:    8799470  HIT:    8799438  MISS:         32  HIT %:    99.9996  MISS %: 0.000363658   MPKI: 0.00064
BTB BRANCH_DIRECT_JUMP	ACCESS:    2054756  HIT:    2054750  MISS:          6
BTB BRANCH_INDIRECT	ACCESS:          0  HIT:          0  MISS:          0
BTB BRANCH_CONDITIONAL	ACCESS:    6743910  HIT:    6743888  MISS:         22
BTB BRANCH_DIRECT_CALL	ACCESS:        402  HIT:        400  MISS:          2
BTB BRANCH_INDIRECT_CALL	ACCESS:          0  HIT:          0  MISS:          0
BTB BRANCH_RETURN	ACCESS:        402  HIT:        400  MISS:          2
BTB BRANCH_OTHER ACCESS:          0  HIT:          0  MISS:          0

L2C TOTAL     ACCESS:   12515495  HIT:    1292268  MISS:   11223227  HIT %:    10.3253  MISS %:    89.6747   MPKI: 224.465
L2C LOAD      ACCESS:    1577571  HIT:     166391  MISS:    1411180  HIT %:    10.5473  MISS %:    89.4527   MPKI: 28.2236
L2C DATA LOAD MPKI: 28.2236
L2C INSTRUCTION LOAD MPKI: 0
L2C RFO       ACCESS:     149276  HIT:       1106  MISS:     148170  HIT %:   0.740909  MISS %:    99.2591   MPKI: 2.9634
L2C PREFETCH  ACCESS:   10599089  HIT:    1031787  MISS:    9567302  HIT %:    9.73468  MISS %:    90.2653   MPKI: 191.346
L2C DATA PREFETCH MPKI: 191.346
L2C INSTRUCTION PREFETCH MPKI: 0
L2C WRITEBACK ACCESS:     185136  HIT:      91382  MISS:      93754  HIT %:    49.3594  MISS %:    50.6406   MPKI: 1.87508
L2C LOAD TRANSLATION ACCESS:       4422  HIT:       1602  MISS:       2820  HIT %:     36.228  MISS %:     63.772   MPKI: 0.0564
L2C TRANSLATION FROM L1D PREFETCHER ACCESS:          1  HIT:          0  MISS:          1  HIT %:          0  MISS %:        100   MPKI: 2e-05
L2C PREFETCH  REQUESTED:     177758  ISSUED:     177753  USEFUL:      26340  USELESS:    9542562
L2C USEFUL LOAD PREFETCHES:      26340 PREFETCH ISSUED TO LOWER LEVEL:    9567588  ACCURACY: 0.275304
L2C TIMELY PREFETCHES:      26340 LATE PREFETCHES: 278 DROPPED PREFETCHES: 0
L2C PREFETCHES SAME FILL-ORIGIN LEVEL: 67391 DIFFERENT FILL-ORIGIN LEVEL: 0
L2C AVERAGE MISS LATENCY: 164.035 cycles
L2C RQ	ACCESS:    1731279	FORWARD:          0	MERGED:          0	TO_CACHE:    1731273
L2C WQ	ACCESS:     185136	FORWARD:         12	MERGED:          0	TO_CACHE:     185136
L2C PQ	ACCESS:   10669688	FORWARD:          0	MERGED:      62303	TO_CACHE:   10607379

L2C Instructions Evicting Data 0
L2C Translations Evicting Data 2818
L2C Data Evicting Data 11123929
L2C Instructions Evicting Instructions 0
L2C Translations Evicting Instructions 0
L2C Data Evicting Instructions 0
L2C Instructions Evicting Translations 0
L2C Translations Evicting Translations 3
L2C Data Evicting Translations 2723
L2C Dense regions hint from L2: 0
PSCL5 TOTAL     ACCESS:       4423  HIT:       4423  MISS:          0  HIT %:        100  MISS %:          0   MPKI: 0
PSCL5 LOAD TRANSLATION ACCESS:       4422  HIT:       4422  MISS:          0  HIT %:        100  MISS %:          0   MPKI: 0
PSCL5 TRANSLATION FROM L1D PREFETCHER ACCESS:          1  HIT:          1  MISS:          0  HIT %:        100  MISS %:          0   MPKI: 0
PSCL5 PREFETCH  REQUESTED:          0  ISSUED:          0  USEFUL:          0  USELESS:          0
PSCL5 USEFUL LOAD PREFETCHES:          0 PREFETCH ISSUED TO LOWER LEVEL:          0  ACCURACY: -nan
PSCL5 TIMELY PREFETCHES:          0 LATE PREFETCHES: 0 DROPPED PREFETCHES: 0
PSCL5 PREFETCHES SAME FILL-ORIGIN LEVEL: 0 DIFFERENT FILL-ORIGIN LEVEL: 0

PSCL4 TOTAL     ACCESS:       4423  HIT:       4423  MISS:          0  HIT %:        100  MISS %:          0   MPKI: 0
PSCL4 LOAD TRANSLATION ACCESS:       4422  HIT:       4422  MISS:          0  HIT %:        100  MISS %:          0   MPKI: 0
PSCL4 TRANSLATION FROM L1D PREFETCHER ACCESS:          1  HIT:          1  MISS:          0  HIT %:        100  MISS %:          0   MPKI: 0
PSCL4 PREFETCH  REQUESTED:          0  ISSUED:          0  USEFUL:          0  USELESS:          0
PSCL4 USEFUL LOAD PREFETCHES:          0 PREFETCH ISSUED TO LOWER LEVEL:          0  ACCURACY: -nan
PSCL4 TIMELY PREFETCHES:          0 LATE PREFETCHES: 0 DROPPED PREFETCHES: 0
PSCL4 PREFETCHES SAME FILL-ORIGIN LEVEL: 0 DIFFERENT FILL-ORIGIN LEVEL: 0

PSCL3 TOTAL     ACCESS:       4423  HIT:       4423  MISS:          0  HIT %:        100  MISS %:          0   MPKI: 0
PSCL3 LOAD TRANSLATION ACCESS:       4422  HIT:       4422  MISS:          0  HIT %:        100  MISS %:          0   MPKI: 0
PSCL3 TRANSLATION FROM L1D PREFETCHER ACCESS:          1  HIT:          1  MISS:          0  HIT %:        100  MISS %:          0   MPKI: 0
PSCL3 PREFETCH  REQUESTED:          0  ISSUED:          0  USEFUL:          0  USELESS:          0
PSCL3 USEFUL LOAD PREFETCHES:          0 PREFETCH ISSUED TO LOWER LEVEL:          0  ACCURACY: -nan
PSCL3 TIMELY PREFETCHES:          0 LATE PREFETCHES: 0 DROPPED PREFETCHES: 0
PSCL3 PREFETCHES SAME FILL-ORIGIN LEVEL: 0 DIFFERENT FILL-ORIGIN LEVEL: 0

PSCL2 TOTAL     ACCESS:       4423  HIT:       4414  MISS:          9  HIT %:    99.7965  MISS %:   0.203482   MPKI: 0.00018
PSCL2 LOAD TRANSLATION ACCESS:       4422  HIT:       4413  MISS:          9  HIT %:    99.7965  MISS %:   0.203528   MPKI: 0.00018
PSCL2 TRANSLATION FROM L1D PREFETCHER ACCESS:          1  HIT:          1  MISS:          0  HIT %:        100  MISS %:          0   MPKI: 0
PSCL2 PREFETCH  REQUESTED:          0  ISSUED:          0  USEFUL:          0  USELESS:          0
PSCL2 USEFUL LOAD PREFETCHES:          0 PREFETCH ISSUED TO LOWER LEVEL:          0  ACCURACY: -nan
PSCL2 TIMELY PREFETCHES:          0 LATE PREFETCHES: 0 DROPPED PREFETCHES: 0
PSCL2 PREFETCHES SAME FILL-ORIGIN LEVEL: 0 DIFFERENT FILL-ORIGIN LEVEL: 0

LLC TOTAL     ACCESS:   11313002  HIT:     162745  MISS:   11150257  HIT %:    1.43857  MISS %:    98.5614   MPKI: 223.005
LLC LOAD      ACCESS:    1410911  HIT:      34274  MISS:    1376637  HIT %:    2.42921  MISS %:    97.5708   MPKI: 27.5327
LLC RFO       ACCESS:     148161  HIT:        190  MISS:     147971  HIT %:   0.128239  MISS %:    99.8718   MPKI: 2.95942
LLC PREFETCH  ACCESS:    9567581  HIT:      10451  MISS:    9557130  HIT %:   0.109233  MISS %:    99.8908   MPKI: 191.143
LLC WRITEBACK ACCESS:     183528  HIT:     116017  MISS:      67511  HIT %:    63.2149  MISS %:    36.7851   MPKI: 1.35022
LLC LOAD TRANSLATION ACCESS:       2820  HIT:       1813  MISS:       1007  HIT %:    64.2908  MISS %:    35.7092   MPKI: 0.02014
LLC TRANSLATION FROM L1D PREFETCHER ACCESS:          1  HIT:          0  MISS:          1  HIT %:          0  MISS %:        100   MPKI: 2e-05
LLC PREFETCH  REQUESTED:          0  ISSUED:          0  USEFUL:       1242  USELESS:    9558876
LLC USEFUL LOAD PREFETCHES:       1242 PREFETCH ISSUED TO LOWER LEVEL:    9557137  ACCURACY: 0.0129955
LLC TIMELY PREFETCHES:       1242 LATE PREFETCHES: 0 DROPPED PREFETCHES: 0
LLC PREFETCHES SAME FILL-ORIGIN LEVEL: 0 DIFFERENT FILL-ORIGIN LEVEL: 0
LLC AVERAGE MISS LATENCY: 135.098 cycles
LLC RQ	ACCESS:    1561896	FORWARD:          0	MERGED:          0	TO_CACHE:    1561896
LLC WQ	ACCESS:     183528	FORWARD:          0	MERGED:          0	TO_CACHE:     183528
LLC PQ	ACCESS:    9567588	FORWARD:          0	MERGED:          0	TO_CACHE:    9567588

LLC Dense regions hint to LLC: 0

RAW hits: 2029354
Loads Generated: 22668331
Loads sent to L1D: 20638975
Stores Generated: 3596625
Stores sent to L1D: 3596625
Major fault: 0 Minor fault: 6307
Allocated PAGES: 6307

stream: 
stream:times selected: 12264903
stream:pref_filled: 9236863
stream:pref_useful: 4234168
stream:pref_late: 1399359
stream:misses: 290659
stream:misses_by_poll: 0

CS: 
CS:times selected: 1693565
CS:pref_filled: 80739
CS:pref_useful: 61388
CS:pref_late: 1469
CS:misses: 59269
CS:misses_by_poll: 379

CPLX: 
CPLX:times selected: 10570753
CPLX:pref_filled: 1488823
CPLX:pref_useful: 1093754
CPLX:pref_late: 419503
CPLX:misses: 3639796
CPLX:misses_by_poll: 16303

NL_L1: 
NL:times selected: 29367
NL:pref_filled: 244
NL:pref_useful: 152
NL:pref_late: 2
NL:misses: 19157
NL:misses_by_poll: 0

total selections: 24558588
total_filled: 8681387
total_useful: 4150903
total_late: 1867216
total_polluted: 16682
total_misses_after_warmup: 3786956
conflicts: 20541
Degree Incremented Times: 92697
Degree Decremented Times: 0

L1 IP Table Write Accesses: 16517085
L1 IP Table Read Accesses: 16496544
L1 RST Write Accesses: 10369525
L1 RST Read Accesses: 20739050
L1 CSPT Write Accesses: 10369525
L1 CSPT Read Accesses: 35417082
L1 RR Filter Tag Write Accesses: 24861150
L1 RR Filter Tag Read Accesses: 1760765728
L1 IP Table Tag Write Accesses: 16648136
L1 IP Table Tag Read Accesses: 16648136
L1 RST Tag Write Accesses: 0
L1 RST Tag Read Accesses: 93235282
L1 RR Filter Write Accesses: 0
L1 RR Filter Read Accesses: 74974225
test: 627888
L2 IP Table Read Accesses: 24098863
L2 IP Table Write Accesses: 22521468
L2 IP Table Tag Read Accesses: 12049521
L2 IP Table Tag Write Accesses: 12049521

DRAM Statistics
 CHANNEL 0
 RQ ROW_BUFFER_HIT:    8570384  ROW_BUFFER_MISS:    2512280
 DBUS_CONGESTED:       5981
 WQ ROW_BUFFER_HIT:      29977  ROW_BUFFER_MISS:     153483  FULL:          0

 AVG_CONGESTED_CYCLE: 5
 All warmup complete: 2
Channel 0 Bank busy for read cycles: 0
Channel 0 Bank busy for write cycles: 0
Channel 0
Rank 0
0banks busy for read cycles: 951212
0banks busy for write cycles: 217
1banks busy for read cycles: 11083330
1banks busy for write cycles: 445368
2banks busy for read cycles: 11949384
2banks busy for write cycles: 362684
3banks busy for read cycles: 12810883
3banks busy for write cycles: 391146
4banks busy for read cycles: 16203027
4banks busy for write cycles: 355268
5banks busy for read cycles: 24887888
5banks busy for write cycles: 442196
6banks busy for read cycles: 32011388
6banks busy for write cycles: 519437
7banks busy for read cycles: 27988438
7banks busy for write cycles: 959251
8banks busy for read cycles: 19496744
8banks busy for write cycles: 10460418

CPU 0 Branch Prediction Accuracy: 97.7265% MPKI: 4.14186 Average ROB Occupancy at Mispredict: 47.7752
Branch types
NOT_BRANCH: 40890873 81.7817%
BRANCH_DIRECT_JUMP: 2054756 4.10951%
BRANCH_INDIRECT: 0 0%
BRANCH_CONDITIONAL: 7053560 14.1071%
BRANCH_DIRECT_CALL: 402 0.000804%
BRANCH_INDIRECT_CALL: 0 0%
BRANCH_RETURN: 402 0.000804%
BRANCH_OTHER: 0 0%

@sumon_overall_L1D   4150903   1810483   4530483   8681387  40556110  45114388
@Sumon_Early_by_class_L1D   3335492     51644    763765         0
@Sumon_Late_by_class_L1D   1353067      1412    410941         0

@Sumon_Early_by_cycle_L1D   1265938   1110858    958941    420327    156072    211801     20038      5472      1376        79         1         0
@Sumon_Late_by_cycle_L1D    930595    727103    150686      2024        74         1         0         0         0         0         0         0
@Sumon_Early_stream_L1D   1054723    862156    770035    355136    125390    157653      7642      2324       396        36         1         0
@Sumon_Early_CS_L1D      1905      2833      4248      4559      4684     21430      9197      2405       379         4         0         0
@Sumon_Early_CPLX_L1D    209309    245869    184657     60632     25998     32718      3199       743       601        39         0         0
@Sumon_Late_stream_L1D    709618    539703    102122      1569        55         0         0         0         0         0         0         0
@Sumon_Late_CS_L1D       871       451        89         1         0         0         0         0         0         0         0         0
@Sumon_Late_CPLX_L1D    175044    186948     48475       454        19         1         0         0         0         0         0         0
@sumon_overall_L2C     26340       278   9542562   9567303    177753    177758
@Sumon_Early_by_class_L2C     11255     11052      4033         0
@Sumon_Late_by_class_L2C         0       266         0         0

@Sumon_Early_by_cycle_L2C       211       296       583       495       469      3105      2813      1442       551       156        18     16201
@Sumon_Late_by_cycle_L2C       155        92        28         2         1         0         0         0         0         0         0         0
@Sumon_Early_stream_L2C         0         0         0         0         0         0         0         1        29        25        11     11189
@Sumon_Early_CS_L2C       211       296       583       495       469      3105      2813      1441       510       117         1      1011
@Sumon_Early_CPLX_L2C         0         0         0         0         0         0         0         0        12        14         6      4001
@Sumon_Late_stream_L2C         0         0         0         0         0         0         0         0         0         0         0         0
@Sumon_Late_CS_L2C       143        92        28         2         1         0         0         0         0         0         0         0
@Sumon_Late_CPLX_L2C         0         0         0         0         0         0         0         0         0         0         0         0
DRAM PAGES: 1048576
Allocated PAGES: 6307
