
*** ChampSim Multicore Out-of-Order Simulator ***

Warmup Instructions: 10000000
Simulation Instructions: 50000000
Number of CPUs: 1
LLC sets: 2048
LLC ways: 16
Off-chip DRAM Size: 4096 MB Channels: 1 Width: 64-bit Data Rate: 6400 MT/s
CPU 0 runs traces/SPEC2017/619.lbm_s-3766B.champsimtrace.xz
.xz
CPU 0 Bimodal branch predictor
BTB has LRU replacement policy
ITLB has LRU replacement policy
DTLB has LRU replacement policy
STLB has LRU replacement policy
L1I has LRU replacement policy
IP Table Entries: 256
L1D has LRU replacement policy
IP_Table L2 entries: 256
Initialize DRRIP state for L2C
LLC has LRU replacement policy
Heartbeat CPU 0 instructions: 10000000 cycles: 2732982 heartbeat IPC: 3.65901 cumulative IPC: 3.65901 (Simulation time: 0 hr 18 min 55 sec) 

Warmup complete CPU 0 instructions: 10000004 cycles: 2732983 (Simulation time: 0 hr 18 min 56 sec) 

Heartbeat CPU 0 instructions: 20000000 cycles: 12861896 heartbeat IPC: 0.987273 cumulative IPC: 0.987272 (Simulation time: 0 hr 36 min 59 sec) 
Heartbeat CPU 0 instructions: 30000002 cycles: 22890752 heartbeat IPC: 0.997123 cumulative IPC: 0.992173 (Simulation time: 0 hr 55 min 53 sec) 
Heartbeat CPU 0 instructions: 40000002 cycles: 33057472 heartbeat IPC: 0.983601 cumulative IPC: 0.989299 (Simulation time: 1 hr 15 min 9 sec) 
Heartbeat CPU 0 instructions: 50000000 cycles: 43258621 heartbeat IPC: 0.980282 cumulative IPC: 0.987029 (Simulation time: 1 hr 34 min 40 sec) 
Heartbeat CPU 0 instructions: 60000000 cycles: 53260891 heartbeat IPC: 0.999773 cumulative IPC: 0.989552 (Simulation time: 1 hr 51 min 34 sec) 
Finished CPU 0 instructions: 50000000 cycles: 50527926 cumulative IPC: 0.989552 (Simulation time: 1 hr 51 min 34 sec) 

ChampSim completed all CPUs

Region of Interest Statistics

CPU 0 cumulative IPC: 0.989552 instructions: 50000000 cycles: 50527926
ITLB TOTAL     ACCESS:    6467353  HIT:    6467353  MISS:          0  HIT %:        100  MISS %:          0   MPKI: 0
ITLB LOAD TRANSLATION ACCESS:    6467353  HIT:    6467353  MISS:          0  HIT %:        100  MISS %:          0   MPKI: 0
ITLB PREFETCH  REQUESTED:          0  ISSUED:          0  USEFUL:          0  USELESS:          0
ITLB USEFUL LOAD PREFETCHES:          0 PREFETCH ISSUED TO LOWER LEVEL:          0  ACCURACY: -nan
ITLB TIMELY PREFETCHES:          0 LATE PREFETCHES: 0 DROPPED PREFETCHES: 0
ITLB PREFETCHES SAME FILL-ORIGIN LEVEL: 0 DIFFERENT FILL-ORIGIN LEVEL: 0
ITLB AVERAGE MISS LATENCY: -nan cycles
ITLB RQ	ACCESS:    8481610	FORWARD:          0	MERGED:    2014257	TO_CACHE:    6467353

DTLB TOTAL     ACCESS:    9237506  HIT:    9206403  MISS:      31103  HIT %:    99.6633  MISS %:   0.336703   MPKI: 0.62206
DTLB LOAD TRANSLATION ACCESS:    9237506  HIT:    9206403  MISS:      31103  HIT %:    99.6633  MISS %:   0.336703   MPKI: 0.62206
DTLB PREFETCH  REQUESTED:          0  ISSUED:          0  USEFUL:          0  USELESS:          0
DTLB USEFUL LOAD PREFETCHES:          0 PREFETCH ISSUED TO LOWER LEVEL:          0  ACCURACY: -nan
DTLB TIMELY PREFETCHES:          0 LATE PREFETCHES: 0 DROPPED PREFETCHES: 0
DTLB PREFETCHES SAME FILL-ORIGIN LEVEL: 0 DIFFERENT FILL-ORIGIN LEVEL: 0
DTLB AVERAGE MISS LATENCY: 97.7649 cycles
DTLB RQ	ACCESS:   13665614	FORWARD:          0	MERGED:    4424174	TO_CACHE:    9241440

STLB TOTAL     ACCESS:     232262  HIT:     215384  MISS:      16878  HIT %:    92.7332  MISS %:    7.26679   MPKI: 0.33756
STLB LOAD TRANSLATION ACCESS:      31103  HIT:      14225  MISS:      16878  HIT %:    45.7351  MISS %:    54.2649   MPKI: 0.33756
STLB TRANSLATION FROM L1D PREFETCHER ACCESS:     201159  HIT:     201159  MISS:          0  HIT %:        100  MISS %:          0   MPKI: 0
STLB PREFETCH  REQUESTED:          0  ISSUED:          0  USEFUL:          0  USELESS:          0
STLB USEFUL LOAD PREFETCHES:          0 PREFETCH ISSUED TO LOWER LEVEL:          0  ACCURACY: -nan
STLB TIMELY PREFETCHES:          0 LATE PREFETCHES: 0 DROPPED PREFETCHES: 0
STLB PREFETCHES SAME FILL-ORIGIN LEVEL: 0 DIFFERENT FILL-ORIGIN LEVEL: 0
STLB AVERAGE MISS LATENCY: 162.557 cycles
STLB RQ	ACCESS:     309317	FORWARD:          0	MERGED:      77055	TO_CACHE:     232262

STLB Hit, L1D data hit: 0
STLB Hit, L2C data hit: 0
STLB Hit, LLC data hit: 0
STLB Hit, LLC data miss: 0
STLB STLB hints to L2: 0
L1D TOTAL     ACCESS:   13927204  HIT:   12145455  MISS:    1781749  HIT %:    87.2067  MISS %:    12.7933   MPKI: 35.635
L1D LOAD      ACCESS:    6333342  HIT:    6322652  MISS:      10690  HIT %:    99.8312  MISS %:   0.168789   MPKI: 0.2138
L1D RFO       ACCESS:    7321054  HIT:    5809266  MISS:    1511788  HIT %:    79.3501  MISS %:    20.6499   MPKI: 30.2358
L1D PREFETCH  ACCESS:     272808  HIT:      13537  MISS:     259271  HIT %:     4.9621  MISS %:    95.0379   MPKI: 5.18542
L1D PREFETCH  REQUESTED:     556670  ISSUED:     556428  USEFUL:     259277  USELESS:          0
L1D USEFUL LOAD PREFETCHES:     259277 PREFETCH ISSUED TO LOWER LEVEL:     260498  ACCURACY: 99.5313
L1D TIMELY PREFETCHES:     259277 LATE PREFETCHES: 1227 DROPPED PREFETCHES: 0
L1D PREFETCHES SAME FILL-ORIGIN LEVEL: 260498 DIFFERENT FILL-ORIGIN LEVEL: 0
L1D AVERAGE MISS LATENCY: 19770.4 cycles
L1D RQ	ACCESS:   11511606	FORWARD:          0	MERGED:    4769366	TO_CACHE:    6338625
L1D WQ	ACCESS:    7443211	FORWARD:     403615	MERGED:     116222	TO_CACHE:    7326989
L1D PQ	ACCESS:     278214	FORWARD:          0	MERGED:          0	TO_CACHE:     278214

L1D UNIQUE REGIONS ACCESSED: 0
L1D REGIONS CONFLICTS: 0
L1D Cross Page Prefetch Requests: 0
L1D Same Page Prefetch Requests: 335137
L1D ROI Sum of L1D PQ occupancy: 17666088
L1D PREFETCHES PUSHED FROM L2C: 0
L1I TOTAL     ACCESS:    8481608  HIT:    8481608  MISS:          0  HIT %:        100  MISS %:          0   MPKI: 0
L1I LOAD      ACCESS:    8481608  HIT:    8481608  MISS:          0  HIT %:        100  MISS %:          0   MPKI: 0
L1I PREFETCH  REQUESTED:          0  ISSUED:          0  USEFUL:          0  USELESS:          0
L1I USEFUL LOAD PREFETCHES:          0 PREFETCH ISSUED TO LOWER LEVEL:          0  ACCURACY: -nan
L1I TIMELY PREFETCHES:          0 LATE PREFETCHES: 0 DROPPED PREFETCHES: 0
L1I PREFETCHES SAME FILL-ORIGIN LEVEL: 0 DIFFERENT FILL-ORIGIN LEVEL: 0
L1I AVERAGE MISS LATENCY: -nan cycles
L1I RQ	ACCESS:   11882510	FORWARD:          0	MERGED:    3400900	TO_CACHE:    8481610

BTB TOTAL     ACCESS:     535381  HIT:     535375  MISS:          6  HIT %:    99.9989  MISS %:  0.0011207   MPKI: 0.00012
BTB BRANCH_DIRECT_JUMP	ACCESS:       2268  HIT:       2267  MISS:          1
BTB BRANCH_INDIRECT	ACCESS:          0  HIT:          0  MISS:          0
BTB BRANCH_CONDITIONAL	ACCESS:     533113  HIT:     533108  MISS:          5
BTB BRANCH_DIRECT_CALL	ACCESS:          0  HIT:          0  MISS:          0
BTB BRANCH_INDIRECT_CALL	ACCESS:          0  HIT:          0  MISS:          0
BTB BRANCH_RETURN	ACCESS:          0  HIT:          0  MISS:          0
BTB BRANCH_OTHER ACCESS:          0  HIT:          0  MISS:          0

L2C TOTAL     ACCESS:    3681247  HIT:    2511472  MISS:    1169775  HIT %:    68.2234  MISS %:    31.7766   MPKI: 23.3955
L2C LOAD      ACCESS:       9463  HIT:       1091  MISS:       8372  HIT %:    11.5291  MISS %:    88.4709   MPKI: 0.16744
L2C DATA LOAD MPKI: 0.16744
L2C INSTRUCTION LOAD MPKI: 0
L2C RFO       ACCESS:    1511787  HIT:     632554  MISS:     879233  HIT %:    41.8415  MISS %:    58.1585   MPKI: 17.5847
L2C PREFETCH  ACCESS:     631335  HIT:     369624  MISS:     261711  HIT %:    58.5464  MISS %:    41.4536   MPKI: 5.23422
L2C DATA PREFETCH MPKI: 5.23422
L2C INSTRUCTION PREFETCH MPKI: 0
L2C WRITEBACK ACCESS:    1511783  HIT:    1493483  MISS:      18300  HIT %:    98.7895  MISS %:    1.21049   MPKI: 0.366
L2C LOAD TRANSLATION ACCESS:      16879  HIT:      14720  MISS:       2159  HIT %:     87.209  MISS %:     12.791   MPKI: 0.04318
L2C PREFETCH  REQUESTED:     522671  ISSUED:     522671  USEFUL:       1091  USELESS:     260707
L2C USEFUL LOAD PREFETCHES:       1091 PREFETCH ISSUED TO LOWER LEVEL:     261827  ACCURACY: 0.416687
L2C TIMELY PREFETCHES:       1091 LATE PREFETCHES: 116 DROPPED PREFETCHES: 0
L2C PREFETCHES SAME FILL-ORIGIN LEVEL: 177024 DIFFERENT FILL-ORIGIN LEVEL: 0
L2C AVERAGE MISS LATENCY: 428.483 cycles
L2C RQ	ACCESS:    1538135	FORWARD:          0	MERGED:          0	TO_CACHE:    1538135
L2C WQ	ACCESS:    1511784	FORWARD:          0	MERGED:          0	TO_CACHE:    1511784
L2C PQ	ACCESS:     783169	FORWARD:          0	MERGED:     122978	TO_CACHE:     660191

L2C Instructions Evicting Data 0
L2C Translations Evicting Data 2157
L2C Data Evicting Data 1147201
L2C Instructions Evicting Instructions 0
L2C Translations Evicting Instructions 0
L2C Data Evicting Instructions 0
L2C Instructions Evicting Translations 0
L2C Translations Evicting Translations 2
L2C Data Evicting Translations 2115
L2C Dense regions hint from L2: 0
PSCL5 TOTAL     ACCESS:      16878  HIT:      16878  MISS:          0  HIT %:        100  MISS %:          0   MPKI: 0
PSCL5 LOAD TRANSLATION ACCESS:      16878  HIT:      16878  MISS:          0  HIT %:        100  MISS %:          0   MPKI: 0
PSCL5 PREFETCH  REQUESTED:          0  ISSUED:          0  USEFUL:          0  USELESS:          0
PSCL5 USEFUL LOAD PREFETCHES:          0 PREFETCH ISSUED TO LOWER LEVEL:          0  ACCURACY: -nan
PSCL5 TIMELY PREFETCHES:          0 LATE PREFETCHES: 0 DROPPED PREFETCHES: 0
PSCL5 PREFETCHES SAME FILL-ORIGIN LEVEL: 0 DIFFERENT FILL-ORIGIN LEVEL: 0

PSCL4 TOTAL     ACCESS:      16878  HIT:      16878  MISS:          0  HIT %:        100  MISS %:          0   MPKI: 0
PSCL4 LOAD TRANSLATION ACCESS:      16878  HIT:      16878  MISS:          0  HIT %:        100  MISS %:          0   MPKI: 0
PSCL4 PREFETCH  REQUESTED:          0  ISSUED:          0  USEFUL:          0  USELESS:          0
PSCL4 USEFUL LOAD PREFETCHES:          0 PREFETCH ISSUED TO LOWER LEVEL:          0  ACCURACY: -nan
PSCL4 TIMELY PREFETCHES:          0 LATE PREFETCHES: 0 DROPPED PREFETCHES: 0
PSCL4 PREFETCHES SAME FILL-ORIGIN LEVEL: 0 DIFFERENT FILL-ORIGIN LEVEL: 0

PSCL3 TOTAL     ACCESS:      16878  HIT:      16878  MISS:          0  HIT %:        100  MISS %:          0   MPKI: 0
PSCL3 LOAD TRANSLATION ACCESS:      16878  HIT:      16878  MISS:          0  HIT %:        100  MISS %:          0   MPKI: 0
PSCL3 PREFETCH  REQUESTED:          0  ISSUED:          0  USEFUL:          0  USELESS:          0
PSCL3 USEFUL LOAD PREFETCHES:          0 PREFETCH ISSUED TO LOWER LEVEL:          0  ACCURACY: -nan
PSCL3 TIMELY PREFETCHES:          0 LATE PREFETCHES: 0 DROPPED PREFETCHES: 0
PSCL3 PREFETCHES SAME FILL-ORIGIN LEVEL: 0 DIFFERENT FILL-ORIGIN LEVEL: 0

PSCL2 TOTAL     ACCESS:      16878  HIT:      16860  MISS:         18  HIT %:    99.8934  MISS %:   0.106648   MPKI: 0.00036
PSCL2 LOAD TRANSLATION ACCESS:      16878  HIT:      16860  MISS:         18  HIT %:    99.8934  MISS %:   0.106648   MPKI: 0.00036
PSCL2 PREFETCH  REQUESTED:          0  ISSUED:          0  USEFUL:          0  USELESS:          0
PSCL2 USEFUL LOAD PREFETCHES:          0 PREFETCH ISSUED TO LOWER LEVEL:          0  ACCURACY: -nan
PSCL2 TIMELY PREFETCHES:          0 LATE PREFETCHES: 0 DROPPED PREFETCHES: 0
PSCL2 PREFETCHES SAME FILL-ORIGIN LEVEL: 0 DIFFERENT FILL-ORIGIN LEVEL: 0

LLC TOTAL     ACCESS:    2030614  HIT:     948614  MISS:    1082000  HIT %:    46.7156  MISS %:    53.2844   MPKI: 21.64
LLC LOAD      ACCESS:       8256  HIT:          0  MISS:       8256  HIT %:          0  MISS %:        100   MPKI: 0.16512
LLC RFO       ACCESS:     879217  HIT:      69344  MISS:     809873  HIT %:    7.88702  MISS %:     92.113   MPKI: 16.1975
LLC PREFETCH  ACCESS:     261827  HIT:        122  MISS:     261705  HIT %:  0.0465957  MISS %:    99.9534   MPKI: 5.2341
LLC WRITEBACK ACCESS:     879155  HIT:     879122  MISS:         33  HIT %:    99.9962  MISS %:  0.0037536   MPKI: 0.00066
LLC LOAD TRANSLATION ACCESS:       2159  HIT:         26  MISS:       2133  HIT %:    1.20426  MISS %:    98.7957   MPKI: 0.04266
LLC PREFETCH  REQUESTED:          0  ISSUED:          0  USEFUL:          0  USELESS:     262637
LLC USEFUL LOAD PREFETCHES:          0 PREFETCH ISSUED TO LOWER LEVEL:     261705  ACCURACY: 0
LLC TIMELY PREFETCHES:          0 LATE PREFETCHES: 0 DROPPED PREFETCHES: 0
LLC PREFETCHES SAME FILL-ORIGIN LEVEL: 0 DIFFERENT FILL-ORIGIN LEVEL: 0
LLC AVERAGE MISS LATENCY: 430.743 cycles
LLC RQ	ACCESS:     889653	FORWARD:          0	MERGED:          0	TO_CACHE:     889637
LLC WQ	ACCESS:     879154	FORWARD:         16	MERGED:          0	TO_CACHE:     879154
LLC PQ	ACCESS:     261827	FORWARD:          0	MERGED:          0	TO_CACHE:     261827

LLC Dense regions hint to LLC: 0

RAW hits: 162488
Loads Generated: 11674098
Loads sent to L1D: 11511606
Stores Generated: 7443187
Stores sent to L1D: 7443211
Major fault: 0 Minor fault: 13292
Allocated PAGES: 13292

stream: 
stream:times selected: 1858032
stream:pref_filled: 38777
stream:pref_useful: 38777
stream:pref_late: 612
stream:misses: 9297
stream:misses_by_poll: 0

CS: 
CS:times selected: 332871
CS:pref_filled: 206181
CS:pref_useful: 206181
CS:pref_late: 216
CS:misses: 1516
CS:misses_by_poll: 354

CPLX: 
CPLX:times selected: 1524778
CPLX:pref_filled: 66211
CPLX:pref_useful: 66211
CPLX:pref_late: 454
CPLX:misses: 5412
CPLX:misses_by_poll: 327

NL_L1: 
NL:times selected: 380
NL:pref_filled: 13
NL:pref_useful: 13
NL:pref_late: 1
NL:misses: 7
NL:misses_by_poll: 0

total selections: 3716061
total_filled: 259271
total_useful: 259277
total_late: 1314
total_polluted: 681
total_misses_after_warmup: 15973
conflicts: 60249
Degree Incremented Times: 85722
Degree Decremented Times: 0

L1 IP Table Write Accesses: 5476675
L1 IP Table Read Accesses: 5416426
L1 RST Write Accesses: 1510567
L1 RST Read Accesses: 3021134
L1 CSPT Write Accesses: 1510567
L1 CSPT Read Accesses: 4929623
L1 RR Filter Tag Write Accesses: 278456
L1 RR Filter Tag Read Accesses: 265637428
L1 IP Table Tag Write Accesses: 6338625
L1 IP Table Tag Read Accesses: 6338625
L1 RST Tag Write Accesses: 0
L1 RST Tag Read Accesses: 13608387
L1 RR Filter Write Accesses: 0
L1 RR Filter Read Accesses: 12097270
test: 128677
L2 IP Table Read Accesses: 485731
L2 IP Table Write Accesses: 476278
L2 IP Table Tag Read Accesses: 242874
L2 IP Table Tag Write Accesses: 242874

DRAM Statistics
 CHANNEL 0
 RQ ROW_BUFFER_HIT:     135521  ROW_BUFFER_MISS:     946446
 DBUS_CONGESTED:          1
 WQ ROW_BUFFER_HIT:     188384  ROW_BUFFER_MISS:     620520  FULL:          0

 AVG_CONGESTED_CYCLE: 6
 All warmup complete: 2
Channel 0 Bank busy for read cycles: 0
Channel 0 Bank busy for write cycles: 0
Channel 0
Rank 0
0banks busy for read cycles: 29810
0banks busy for write cycles: 0
1banks busy for read cycles: 1460546
1banks busy for write cycles: 90391
2banks busy for read cycles: 2630457
2banks busy for write cycles: 90385
3banks busy for read cycles: 4416675
3banks busy for write cycles: 90382
4banks busy for read cycles: 3915877
4banks busy for write cycles: 90377
5banks busy for read cycles: 6392743
5banks busy for write cycles: 90379
6banks busy for read cycles: 4696850
6banks busy for write cycles: 91235
7banks busy for read cycles: 4496501
7banks busy for write cycles: 915255
8banks busy for read cycles: 4720228
8banks busy for write cycles: 16309836

CPU 0 Branch Prediction Accuracy: 99.7002% MPKI: 0.0321 Average ROB Occupancy at Mispredict: 25.0274
Branch types
NOT_BRANCH: 49464288 98.9286%
BRANCH_DIRECT_JUMP: 2268 0.004536%
BRANCH_INDIRECT: 0 0%
BRANCH_CONDITIONAL: 533113 1.06623%
BRANCH_DIRECT_CALL: 0 0%
BRANCH_INDIRECT_CALL: 0 0%
BRANCH_RETURN: 0 0%
BRANCH_OTHER: 0 0%

@sumon_overall_L1D    259277      1227         0    259271    556428    556670
@Sumon_Early_by_class_L1D     32097    182611     44565         1
@Sumon_Late_by_class_L1D       530       216       453         1

@Sumon_Early_by_cycle_L1D       775      5455      4068     13890      9057    114627    107776      3604        25         0         0         0
@Sumon_Late_by_cycle_L1D       250       403       370       122        49        33         0         0         0         0         0         0
@Sumon_Early_stream_L1D       353      4674      2469      9979      2155     12466         1         0         0         0         0         0
@Sumon_Early_CS_L1D       194       330       436      1207      1265     79679     98067      1433         0         0         0         0
@Sumon_Early_CPLX_L1D       228       449      1162      2704      5637     22481      9708      2171        25         0         0         0
@Sumon_Late_stream_L1D        71       232       154        49        13        11         0         0         0         0         0         0
@Sumon_Late_CS_L1D        49        50        64        24        16        13         0         0         0         0         0         0
@Sumon_Late_CPLX_L1D       103       121       152        48        20         9         0         0         0         0         0         0
@sumon_overall_L2C      1091       116    260707    261711    522671    522671
@Sumon_Early_by_class_L2C       414       675         0         0
@Sumon_Late_by_class_L2C        91        22         0         0

@Sumon_Early_by_cycle_L2C       117        71       103       136        60       493       111         0         0         0         0         0
@Sumon_Late_by_cycle_L2C        23        14        45        18         5        11         0         0         0         0         0         0
@Sumon_Early_stream_L2C       108        60        80        95        22        49         0         0         0         0         0         0
@Sumon_Early_CS_L2C         9        11        23        41        38       442       111         0         0         0         0         0
@Sumon_Early_CPLX_L2C         0         0         0         0         0         0         0         0         0         0         0         0
@Sumon_Late_stream_L2C        19         9        38        15         4         6         0         0         0         0         0         0
@Sumon_Late_CS_L2C         1         5         7         3         1         5         0         0         0         0         0         0
@Sumon_Late_CPLX_L2C         0         0         0         0         0         0         0         0         0         0         0         0
DRAM PAGES: 1048576
Allocated PAGES: 13292
