
*** ChampSim Multicore Out-of-Order Simulator ***

Warmup Instructions: 10000000
Simulation Instructions: 50000000
Number of CPUs: 1
LLC sets: 2048
LLC ways: 16
Off-chip DRAM Size: 4096 MB Channels: 1 Width: 64-bit Data Rate: 6400 MT/s
CPU 0 runs traces/SPEC2017/623.xalancbmk_s-202B.champsimtrace.xz
.xz
CPU 0 Bimodal branch predictor
BTB has LRU replacement policy
ITLB has LRU replacement policy
DTLB has LRU replacement policy
STLB has LRU replacement policy
L1I has LRU replacement policy
IP Table Entries: 256
L1D has LRU replacement policy
IP_Table L2 entries: 256
Initialize DRRIP state for L2C
LLC has LRU replacement policy
Heartbeat CPU 0 instructions: 10000001 cycles: 2831160 heartbeat IPC: 3.53212 cumulative IPC: 3.53212 (Simulation time: 0 hr 22 min 4 sec) 

Warmup complete CPU 0 instructions: 10000001 cycles: 2831160 (Simulation time: 0 hr 22 min 4 sec) 

Heartbeat CPU 0 instructions: 20000002 cycles: 19622490 heartbeat IPC: 0.595545 cumulative IPC: 0.595545 (Simulation time: 0 hr 39 min 45 sec) 
Heartbeat CPU 0 instructions: 30000000 cycles: 36410465 heartbeat IPC: 0.595664 cumulative IPC: 0.595605 (Simulation time: 0 hr 57 min 23 sec) 
Heartbeat CPU 0 instructions: 40000002 cycles: 53206686 heartbeat IPC: 0.595372 cumulative IPC: 0.595527 (Simulation time: 1 hr 15 min 12 sec) 
Heartbeat CPU 0 instructions: 50000002 cycles: 69859566 heartbeat IPC: 0.600497 cumulative IPC: 0.596762 (Simulation time: 1 hr 32 min 47 sec) 
Heartbeat CPU 0 instructions: 60000002 cycles: 86525212 heartbeat IPC: 0.600037 cumulative IPC: 0.597414 (Simulation time: 1 hr 49 min 20 sec) 
Finished CPU 0 instructions: 50000001 cycles: 83694052 cumulative IPC: 0.597414 (Simulation time: 1 hr 49 min 20 sec) 

ChampSim completed all CPUs

Region of Interest Statistics

CPU 0 cumulative IPC: 0.597414 instructions: 50000001 cycles: 83694052
ITLB TOTAL     ACCESS:    7300092  HIT:    7300092  MISS:          0  HIT %:        100  MISS %:          0   MPKI: 0
ITLB LOAD TRANSLATION ACCESS:    7300092  HIT:    7300092  MISS:          0  HIT %:        100  MISS %:          0   MPKI: 0
ITLB PREFETCH  REQUESTED:          0  ISSUED:          0  USEFUL:          0  USELESS:          0
ITLB USEFUL LOAD PREFETCHES:          0 PREFETCH ISSUED TO LOWER LEVEL:          0  ACCURACY: -nan
ITLB TIMELY PREFETCHES:          0 LATE PREFETCHES: 0 DROPPED PREFETCHES: 0
ITLB PREFETCHES SAME FILL-ORIGIN LEVEL: 0 DIFFERENT FILL-ORIGIN LEVEL: 0
ITLB AVERAGE MISS LATENCY: -nan cycles
ITLB RQ	ACCESS:    8664070	FORWARD:          0	MERGED:    1363979	TO_CACHE:    7300091

DTLB TOTAL     ACCESS:    8335192  HIT:    8313171  MISS:      22021  HIT %:    99.7358  MISS %:   0.264193   MPKI: 0.44042
DTLB LOAD TRANSLATION ACCESS:    8335192  HIT:    8313171  MISS:      22021  HIT %:    99.7358  MISS %:   0.264193   MPKI: 0.44042
DTLB PREFETCH  REQUESTED:          0  ISSUED:          0  USEFUL:          0  USELESS:          0
DTLB USEFUL LOAD PREFETCHES:          0 PREFETCH ISSUED TO LOWER LEVEL:          0  ACCURACY: -nan
DTLB TIMELY PREFETCHES:          0 LATE PREFETCHES: 0 DROPPED PREFETCHES: 0
DTLB PREFETCHES SAME FILL-ORIGIN LEVEL: 0 DIFFERENT FILL-ORIGIN LEVEL: 0
DTLB AVERAGE MISS LATENCY: 10.9298 cycles
DTLB RQ	ACCESS:    9355134	FORWARD:          0	MERGED:    1019772	TO_CACHE:    8335362

STLB TOTAL     ACCESS:     706418  HIT:     706161  MISS:        257  HIT %:    99.9636  MISS %:  0.0363807   MPKI: 0.00514
STLB LOAD TRANSLATION ACCESS:      22021  HIT:      21764  MISS:        257  HIT %:    98.8329  MISS %:    1.16707   MPKI: 0.00514
STLB TRANSLATION FROM L1D PREFETCHER ACCESS:     684397  HIT:     684397  MISS:          0  HIT %:        100  MISS %:          0   MPKI: 0
STLB PREFETCH  REQUESTED:          0  ISSUED:          0  USEFUL:          0  USELESS:          0
STLB USEFUL LOAD PREFETCHES:          0 PREFETCH ISSUED TO LOWER LEVEL:          0  ACCURACY: -nan
STLB TIMELY PREFETCHES:          0 LATE PREFETCHES: 0 DROPPED PREFETCHES: 0
STLB PREFETCHES SAME FILL-ORIGIN LEVEL: 0 DIFFERENT FILL-ORIGIN LEVEL: 0
STLB AVERAGE MISS LATENCY: 165.346 cycles
STLB RQ	ACCESS:    1866221	FORWARD:          0	MERGED:    1159803	TO_CACHE:     706418

STLB Hit, L1D data hit: 0
STLB Hit, L2C data hit: 0
STLB Hit, LLC data hit: 0
STLB Hit, LLC data miss: 0
STLB STLB hints to L2: 0
L1D TOTAL     ACCESS:   11165184  HIT:    9799559  MISS:    1365625  HIT %:    87.7689  MISS %:    12.2311   MPKI: 27.3125
L1D LOAD      ACCESS:    8468868  HIT:    8408266  MISS:      60602  HIT %:    99.2844  MISS %:   0.715586   MPKI: 1.21204
L1D RFO       ACCESS:     885861  HIT:     885861  MISS:          0  HIT %:        100  MISS %:          0   MPKI: 0
L1D PREFETCH  ACCESS:    1810455  HIT:     505432  MISS:    1305023  HIT %:    27.9174  MISS %:    72.0826   MPKI: 26.1005
L1D PREFETCH  REQUESTED:    3691025  ISSUED:    3688400  USEFUL:    1196878  USELESS:     108147
L1D USEFUL LOAD PREFETCHES:    1196878 PREFETCH ISSUED TO LOWER LEVEL:    1319215  ACCURACY: 90.7265
L1D TIMELY PREFETCHES:    1196878 LATE PREFETCHES: 14104 DROPPED PREFETCHES: 0
L1D PREFETCHES SAME FILL-ORIGIN LEVEL: 1319215 DIFFERENT FILL-ORIGIN LEVEL: 0
L1D AVERAGE MISS LATENCY: 465503 cycles
L1D RQ	ACCESS:   14945450	FORWARD:          0	MERGED:    6476178	TO_CACHE:    8469271
L1D WQ	ACCESS:     885863	FORWARD:          1	MERGED:          0	TO_CACHE:     885863
L1D PQ	ACCESS:    1844200	FORWARD:          0	MERGED:          0	TO_CACHE:    1844200

L1D UNIQUE REGIONS ACCESSED: 0
L1D REGIONS CONFLICTS: 0
L1D Cross Page Prefetch Requests: 0
L1D Same Page Prefetch Requests: 2262552
L1D ROI Sum of L1D PQ occupancy: 25093419
L1D PREFETCHES PUSHED FROM L2C: 0
L1I TOTAL     ACCESS:    8664071  HIT:    8664071  MISS:          0  HIT %:        100  MISS %:          0   MPKI: 0
L1I LOAD      ACCESS:    8664071  HIT:    8664071  MISS:          0  HIT %:        100  MISS %:          0   MPKI: 0
L1I PREFETCH  REQUESTED:          0  ISSUED:          0  USEFUL:          0  USELESS:          0
L1I USEFUL LOAD PREFETCHES:          0 PREFETCH ISSUED TO LOWER LEVEL:          0  ACCURACY: -nan
L1I TIMELY PREFETCHES:          0 LATE PREFETCHES: 0 DROPPED PREFETCHES: 0
L1I PREFETCHES SAME FILL-ORIGIN LEVEL: 0 DIFFERENT FILL-ORIGIN LEVEL: 0
L1I AVERAGE MISS LATENCY: -nan cycles
L1I RQ	ACCESS:   15861091	FORWARD:          0	MERGED:    7197021	TO_CACHE:    8664070

BTB TOTAL     ACCESS:    8732391  HIT:    8732374  MISS:         17  HIT %:    99.9998  MISS %: 0.000194677   MPKI: 0.00034
BTB BRANCH_DIRECT_JUMP	ACCESS:         40  HIT:         39  MISS:          1
BTB BRANCH_INDIRECT	ACCESS:          0  HIT:          0  MISS:          0
BTB BRANCH_CONDITIONAL	ACCESS:    7846775  HIT:    7846766  MISS:          9
BTB BRANCH_DIRECT_CALL	ACCESS:     221414  HIT:     221412  MISS:          2
BTB BRANCH_INDIRECT_CALL	ACCESS:     221374  HIT:     221373  MISS:          1
BTB BRANCH_RETURN	ACCESS:     442788  HIT:     442784  MISS:          4
BTB BRANCH_OTHER ACCESS:          0  HIT:          0  MISS:          0

L2C TOTAL     ACCESS:    3154710  HIT:    1846759  MISS:    1307951  HIT %:    58.5397  MISS %:    41.4603   MPKI: 26.159
L2C LOAD      ACCESS:      46498  HIT:       5385  MISS:      41113  HIT %:    11.5811  MISS %:    88.4189   MPKI: 0.82226
L2C DATA LOAD MPKI: 0.82226
L2C INSTRUCTION LOAD MPKI: 0
L2C PREFETCH  ACCESS:    3107915  HIT:    1841161  MISS:    1266754  HIT %:     59.241  MISS %:     40.759   MPKI: 25.3351
L2C DATA PREFETCH MPKI: 25.3351
L2C INSTRUCTION PREFETCH MPKI: 0
L2C WRITEBACK ACCESS:         40  HIT:         25  MISS:         15  HIT %:       62.5  MISS %:       37.5   MPKI: 0.0003
L2C LOAD TRANSLATION ACCESS:        257  HIT:        188  MISS:         69  HIT %:    73.1518  MISS %:    26.8482   MPKI: 0.00138
L2C PREFETCH  REQUESTED:    2178339  ISSUED:    2178328  USEFUL:       1966  USELESS:    1264906
L2C USEFUL LOAD PREFETCHES:       1966 PREFETCH ISSUED TO LOWER LEVEL:    1266754  ACCURACY: 0.1552
L2C TIMELY PREFETCHES:       1966 LATE PREFETCHES: 0 DROPPED PREFETCHES: 0
L2C PREFETCHES SAME FILL-ORIGIN LEVEL: 704594 DIFFERENT FILL-ORIGIN LEVEL: 0
L2C AVERAGE MISS LATENCY: 111.2 cycles
L2C RQ	ACCESS:      46755	FORWARD:          0	MERGED:          0	TO_CACHE:      46755
L2C WQ	ACCESS:         40	FORWARD:          0	MERGED:          0	TO_CACHE:         40
L2C PQ	ACCESS:    3497457	FORWARD:          0	MERGED:     380350	TO_CACHE:    3117107

L2C Instructions Evicting Data 0
L2C Translations Evicting Data 69
L2C Data Evicting Data 1307794
L2C Instructions Evicting Instructions 0
L2C Translations Evicting Instructions 0
L2C Data Evicting Instructions 0
L2C Instructions Evicting Translations 0
L2C Translations Evicting Translations 0
L2C Data Evicting Translations 69
L2C Dense regions hint from L2: 0
PSCL5 TOTAL     ACCESS:        257  HIT:        257  MISS:          0  HIT %:        100  MISS %:          0   MPKI: 0
PSCL5 LOAD TRANSLATION ACCESS:        257  HIT:        257  MISS:          0  HIT %:        100  MISS %:          0   MPKI: 0
PSCL5 PREFETCH  REQUESTED:          0  ISSUED:          0  USEFUL:          0  USELESS:          0
PSCL5 USEFUL LOAD PREFETCHES:          0 PREFETCH ISSUED TO LOWER LEVEL:          0  ACCURACY: -nan
PSCL5 TIMELY PREFETCHES:          0 LATE PREFETCHES: 0 DROPPED PREFETCHES: 0
PSCL5 PREFETCHES SAME FILL-ORIGIN LEVEL: 0 DIFFERENT FILL-ORIGIN LEVEL: 0

PSCL4 TOTAL     ACCESS:        257  HIT:        257  MISS:          0  HIT %:        100  MISS %:          0   MPKI: 0
PSCL4 LOAD TRANSLATION ACCESS:        257  HIT:        257  MISS:          0  HIT %:        100  MISS %:          0   MPKI: 0
PSCL4 PREFETCH  REQUESTED:          0  ISSUED:          0  USEFUL:          0  USELESS:          0
PSCL4 USEFUL LOAD PREFETCHES:          0 PREFETCH ISSUED TO LOWER LEVEL:          0  ACCURACY: -nan
PSCL4 TIMELY PREFETCHES:          0 LATE PREFETCHES: 0 DROPPED PREFETCHES: 0
PSCL4 PREFETCHES SAME FILL-ORIGIN LEVEL: 0 DIFFERENT FILL-ORIGIN LEVEL: 0

PSCL3 TOTAL     ACCESS:        257  HIT:        257  MISS:          0  HIT %:        100  MISS %:          0   MPKI: 0
PSCL3 LOAD TRANSLATION ACCESS:        257  HIT:        257  MISS:          0  HIT %:        100  MISS %:          0   MPKI: 0
PSCL3 PREFETCH  REQUESTED:          0  ISSUED:          0  USEFUL:          0  USELESS:          0
PSCL3 USEFUL LOAD PREFETCHES:          0 PREFETCH ISSUED TO LOWER LEVEL:          0  ACCURACY: -nan
PSCL3 TIMELY PREFETCHES:          0 LATE PREFETCHES: 0 DROPPED PREFETCHES: 0
PSCL3 PREFETCHES SAME FILL-ORIGIN LEVEL: 0 DIFFERENT FILL-ORIGIN LEVEL: 0

PSCL2 TOTAL     ACCESS:        257  HIT:        257  MISS:          0  HIT %:        100  MISS %:          0   MPKI: 0
PSCL2 LOAD TRANSLATION ACCESS:        257  HIT:        257  MISS:          0  HIT %:        100  MISS %:          0   MPKI: 0
PSCL2 PREFETCH  REQUESTED:          0  ISSUED:          0  USEFUL:          0  USELESS:          0
PSCL2 USEFUL LOAD PREFETCHES:          0 PREFETCH ISSUED TO LOWER LEVEL:          0  ACCURACY: -nan
PSCL2 TIMELY PREFETCHES:          0 LATE PREFETCHES: 0 DROPPED PREFETCHES: 0
PSCL2 PREFETCHES SAME FILL-ORIGIN LEVEL: 0 DIFFERENT FILL-ORIGIN LEVEL: 0

LLC TOTAL     ACCESS:    1307974  HIT:     241471  MISS:    1066503  HIT %:    18.4615  MISS %:    81.5385   MPKI: 21.3301
LLC LOAD      ACCESS:      41113  HIT:       8735  MISS:      32378  HIT %:    21.2463  MISS %:    78.7537   MPKI: 0.64756
LLC PREFETCH  ACCESS:    1266754  HIT:     232688  MISS:    1034066  HIT %:    18.3688  MISS %:    81.6312   MPKI: 20.6813
LLC WRITEBACK ACCESS:         38  HIT:         38  MISS:          0  HIT %:        100  MISS %:          0   MPKI: 0
LLC LOAD TRANSLATION ACCESS:         69  HIT:         10  MISS:         59  HIT %:    14.4928  MISS %:    85.5072   MPKI: 0.00118
LLC PREFETCH  REQUESTED:          0  ISSUED:          0  USEFUL:        798  USELESS:    1033369
LLC USEFUL LOAD PREFETCHES:        798 PREFETCH ISSUED TO LOWER LEVEL:    1034066  ACCURACY: 0.0771711
LLC TIMELY PREFETCHES:        798 LATE PREFETCHES: 0 DROPPED PREFETCHES: 0
LLC PREFETCHES SAME FILL-ORIGIN LEVEL: 0 DIFFERENT FILL-ORIGIN LEVEL: 0
LLC AVERAGE MISS LATENCY: 99.5768 cycles
LLC RQ	ACCESS:      41182	FORWARD:          0	MERGED:          0	TO_CACHE:      41182
LLC WQ	ACCESS:         38	FORWARD:          0	MERGED:          0	TO_CACHE:         38
LLC PQ	ACCESS:    1266754	FORWARD:          0	MERGED:          0	TO_CACHE:    1266754

LLC Dense regions hint to LLC: 0

RAW hits: 0
Loads Generated: 14945450
Loads sent to L1D: 14945450
Stores Generated: 885863
Stores sent to L1D: 885863
Major fault: 0 Minor fault: 1315
Allocated PAGES: 1315

stream: 
stream:times selected: 2873956
stream:pref_filled: 314503
stream:pref_useful: 193746
stream:pref_late: 15764
stream:misses: 65966
stream:misses_by_poll: 0

CS: 
CS:times selected: 2566349
CS:pref_filled: 1216088
CS:pref_useful: 1208902
CS:pref_late: 91
CS:misses: 8761
CS:misses_by_poll: 6171

CPLX: 
CPLX:times selected: 307479
CPLX:pref_filled: 33654
CPLX:pref_useful: 32398
CPLX:pref_late: 32
CPLX:misses: 2263
CPLX:misses_by_poll: 54

NL_L1: 
NL:times selected: 43
NL:pref_filled: 12
NL:pref_useful: 9
NL:pref_late: 2
NL:misses: 5
NL:misses_by_poll: 0

total selections: 5747827
total_filled: 1305023
total_useful: 1196878
total_late: 17989
total_polluted: 6225
total_misses_after_warmup: 61008
conflicts: 6
Degree Incremented Times: 81556
Degree Decremented Times: 0

L1 IP Table Write Accesses: 8234463
L1 IP Table Read Accesses: 8234457
L1 RST Write Accesses: 2354027
L1 RST Read Accesses: 4708054
L1 CSPT Write Accesses: 2354027
L1 CSPT Read Accesses: 2914972
L1 RR Filter Tag Write Accesses: 1846825
L1 RR Filter Tag Read Accesses: 392102560
L1 IP Table Tag Write Accesses: 8469274
L1 IP Table Tag Read Accesses: 8469274
L1 RST Tag Write Accesses: 0
L1 RST Tag Read Accesses: 21216764
L1 RR Filter Write Accesses: 0
L1 RR Filter Read Accesses: 18938527
test: 287267
L2 IP Table Read Accesses: 2504952
L2 IP Table Write Accesses: 2458467
L2 IP Table Tag Read Accesses: 1252482
L2 IP Table Tag Write Accesses: 1252482

DRAM Statistics
 CHANNEL 0
 RQ ROW_BUFFER_HIT:    1015784  ROW_BUFFER_MISS:      50719
 DBUS_CONGESTED:          0
 WQ ROW_BUFFER_HIT:          0  ROW_BUFFER_MISS:         19  FULL:          0

 AVG_CONGESTED_CYCLE: -
 All warmup complete: 2
Channel 0 Bank busy for read cycles: 0
Channel 0 Bank busy for write cycles: 0
Channel 0
Rank 0
0banks busy for read cycles: 65472734
0banks busy for write cycles: 19
1banks busy for read cycles: 6431069
1banks busy for write cycles: 3861
2banks busy for read cycles: 2612170
2banks busy for write cycles: 0
3banks busy for read cycles: 1871248
3banks busy for write cycles: 0
4banks busy for read cycles: 2329713
4banks busy for write cycles: 0
5banks busy for read cycles: 1517446
5banks busy for write cycles: 0
6banks busy for read cycles: 1228724
6banks busy for write cycles: 0
7banks busy for read cycles: 966706
7banks busy for write cycles: 0
8banks busy for read cycles: 1260363
8banks busy for write cycles: 0

CPU 0 Branch Prediction Accuracy: 95.2006% MPKI: 13.2833 Average ROB Occupancy at Mispredict: 41.2361
Branch types
NOT_BRANCH: 36161174 72.3223%
BRANCH_DIRECT_JUMP: 40 8e-05%
BRANCH_INDIRECT: 0 0%
BRANCH_CONDITIONAL: 12952871 25.9057%
BRANCH_DIRECT_CALL: 221414 0.442828%
BRANCH_INDIRECT_CALL: 221374 0.442748%
BRANCH_RETURN: 442788 0.885576%
BRANCH_OTHER: 0 0%

@sumon_overall_L1D   1196878     14104    108147   1305023   3688400   3691025
@Sumon_Early_by_class_L1D    159297   1016695     20878         1
@Sumon_Late_by_class_L1D     12156        91        17         1

@Sumon_Early_by_cycle_L1D     20236     41362    117323    103278    102542    780177      3151      1398     26522       889         0         0
@Sumon_Late_by_cycle_L1D     12248      1621       235         0         0         0         0         0         0         0         0         0
@Sumon_Early_stream_L1D     19981     34581     76058      1283        39       125       464       913     25807        46         0         0
@Sumon_Early_CS_L1D       233      6598     40457     98068     99168    769836       466       481       702       686         0         0
@Sumon_Early_CPLX_L1D        19       180       806      3927      3335     10216      2221         4        13       157         0         0
@Sumon_Late_stream_L1D     10309      1613       234         0         0         0         0         0         0         0         0         0
@Sumon_Late_CS_L1D        88         3         0         0         0         0         0         0         0         0         0         0
@Sumon_Late_CPLX_L1D        13         3         1         0         0         0         0         0         0         0         0         0
@sumon_overall_L2C      1966         0   1264906   1266754   2178328   2178339
@Sumon_Early_by_class_L2C       370      1589         7         0
@Sumon_Late_by_class_L2C         0         0         0         0

@Sumon_Early_by_cycle_L2C         0         0        34        26        92      1233         0         0         0         5        51       525
@Sumon_Late_by_cycle_L2C         0         0         0         0         0         0         0         0         0         0         0         0
@Sumon_Early_stream_L2C         0         0         0         0         0         0         0         0         0         0        43       327
@Sumon_Early_CS_L2C         0         0        34        26        92      1233         0         0         0         5         8       191
@Sumon_Early_CPLX_L2C         0         0         0         0         0         0         0         0         0         0         0         7
@Sumon_Late_stream_L2C         0         0         0         0         0         0         0         0         0         0         0         0
@Sumon_Late_CS_L2C         0         0         0         0         0         0         0         0         0         0         0         0
@Sumon_Late_CPLX_L2C         0         0         0         0         0         0         0         0         0         0         0         0
DRAM PAGES: 1048576
Allocated PAGES: 1315
