
*** ChampSim Multicore Out-of-Order Simulator ***

Warmup Instructions: 10000000
Simulation Instructions: 50000000
Number of CPUs: 1
LLC sets: 2048
LLC ways: 16
Off-chip DRAM Size: 4096 MB Channels: 1 Width: 64-bit Data Rate: 6400 MT/s
CPU 0 runs traces/SPEC2017/623.xalancbmk_s-165B.champsimtrace.xz
.xz
CPU 0 Bimodal branch predictor
BTB has LRU replacement policy
ITLB has LRU replacement policy
DTLB has LRU replacement policy
STLB has LRU replacement policy
L1I has LRU replacement policy
IP Table Entries: 256
L1D has LRU replacement policy
IP_Table L2 entries: 256
Initialize DRRIP state for L2C
LLC has LRU replacement policy
Heartbeat CPU 0 instructions: 10000000 cycles: 2852644 heartbeat IPC: 3.50552 cumulative IPC: 3.50552 (Simulation time: 0 hr 20 min 59 sec) 

Warmup complete CPU 0 instructions: 10000002 cycles: 2852646 (Simulation time: 0 hr 20 min 59 sec) 

Heartbeat CPU 0 instructions: 20000001 cycles: 18022454 heartbeat IPC: 0.659204 cumulative IPC: 0.659204 (Simulation time: 0 hr 37 min 42 sec) 
Heartbeat CPU 0 instructions: 30000000 cycles: 33156460 heartbeat IPC: 0.660764 cumulative IPC: 0.659983 (Simulation time: 0 hr 54 min 37 sec) 
Heartbeat CPU 0 instructions: 40000000 cycles: 48221357 heartbeat IPC: 0.663795 cumulative IPC: 0.661249 (Simulation time: 1 hr 11 min 37 sec) 
Heartbeat CPU 0 instructions: 50000001 cycles: 63404014 heartbeat IPC: 0.658646 cumulative IPC: 0.660596 (Simulation time: 1 hr 28 min 43 sec) 
Heartbeat CPU 0 instructions: 60000000 cycles: 78282677 heartbeat IPC: 0.672103 cumulative IPC: 0.662866 (Simulation time: 1 hr 45 min 9 sec) 
Finished CPU 0 instructions: 50000002 cycles: 75430060 cumulative IPC: 0.662866 (Simulation time: 1 hr 45 min 9 sec) 

ChampSim completed all CPUs

Region of Interest Statistics

CPU 0 cumulative IPC: 0.662866 instructions: 50000002 cycles: 75430060
ITLB TOTAL     ACCESS:    7286748  HIT:    7286748  MISS:          0  HIT %:        100  MISS %:          0   MPKI: 0
ITLB LOAD TRANSLATION ACCESS:    7286748  HIT:    7286748  MISS:          0  HIT %:        100  MISS %:          0   MPKI: 0
ITLB PREFETCH  REQUESTED:          0  ISSUED:          0  USEFUL:          0  USELESS:          0
ITLB USEFUL LOAD PREFETCHES:          0 PREFETCH ISSUED TO LOWER LEVEL:          0  ACCURACY: -nan
ITLB TIMELY PREFETCHES:          0 LATE PREFETCHES: 0 DROPPED PREFETCHES: 0
ITLB PREFETCHES SAME FILL-ORIGIN LEVEL: 0 DIFFERENT FILL-ORIGIN LEVEL: 0
ITLB AVERAGE MISS LATENCY: -nan cycles
ITLB RQ	ACCESS:    9258101	FORWARD:          0	MERGED:    1971354	TO_CACHE:    7286747

DTLB TOTAL     ACCESS:    7520456  HIT:    7502542  MISS:      17914  HIT %:    99.7618  MISS %:   0.238204   MPKI: 0.35828
DTLB LOAD TRANSLATION ACCESS:    7520456  HIT:    7502542  MISS:      17914  HIT %:    99.7618  MISS %:   0.238204   MPKI: 0.35828
DTLB PREFETCH  REQUESTED:          0  ISSUED:          0  USEFUL:          0  USELESS:          0
DTLB USEFUL LOAD PREFETCHES:          0 PREFETCH ISSUED TO LOWER LEVEL:          0  ACCURACY: -nan
DTLB TIMELY PREFETCHES:          0 LATE PREFETCHES: 0 DROPPED PREFETCHES: 0
DTLB PREFETCHES SAME FILL-ORIGIN LEVEL: 0 DIFFERENT FILL-ORIGIN LEVEL: 0
DTLB AVERAGE MISS LATENCY: 10.212 cycles
DTLB RQ	ACCESS:    8131616	FORWARD:          0	MERGED:     611105	TO_CACHE:    7520511

STLB TOTAL     ACCESS:     619228  HIT:     619168  MISS:         60  HIT %:    99.9903  MISS %: 0.00968948   MPKI: 0.0012
STLB LOAD TRANSLATION ACCESS:      17914  HIT:      17854  MISS:         60  HIT %:    99.6651  MISS %:   0.334934   MPKI: 0.0012
STLB TRANSLATION FROM L1D PREFETCHER ACCESS:     601314  HIT:     601314  MISS:          0  HIT %:        100  MISS %:          0   MPKI: 0
STLB PREFETCH  REQUESTED:          0  ISSUED:          0  USEFUL:          0  USELESS:          0
STLB USEFUL LOAD PREFETCHES:          0 PREFETCH ISSUED TO LOWER LEVEL:          0  ACCURACY: -nan
STLB TIMELY PREFETCHES:          0 LATE PREFETCHES: 0 DROPPED PREFETCHES: 0
STLB PREFETCHES SAME FILL-ORIGIN LEVEL: 0 DIFFERENT FILL-ORIGIN LEVEL: 0
STLB AVERAGE MISS LATENCY: 361.717 cycles
STLB RQ	ACCESS:    1816433	FORWARD:          0	MERGED:    1197205	TO_CACHE:     619228

STLB Hit, L1D data hit: 0
STLB Hit, L2C data hit: 0
STLB Hit, LLC data hit: 0
STLB Hit, LLC data miss: 0
STLB STLB hints to L2: 0
L1D TOTAL     ACCESS:    9897547  HIT:    8853663  MISS:    1043884  HIT %:    89.4531  MISS %:    10.5469   MPKI: 20.8777
L1D LOAD      ACCESS:    7470138  HIT:    7422977  MISS:      47161  HIT %:    99.3687  MISS %:   0.631327   MPKI: 0.94322
L1D RFO       ACCESS:     655689  HIT:     655579  MISS:        110  HIT %:    99.9832  MISS %:  0.0167762   MPKI: 0.0022
L1D PREFETCH  ACCESS:    1771720  HIT:     775107  MISS:     996613  HIT %:    43.7488  MISS %:    56.2512   MPKI: 19.9323
L1D PREFETCH  REQUESTED:    3599764  ISSUED:    3597039  USEFUL:     903907  USELESS:      92694
L1D USEFUL LOAD PREFETCHES:     903907 PREFETCH ISSUED TO LOWER LEVEL:    1019146  ACCURACY: 88.6926
L1D TIMELY PREFETCHES:     903907 LATE PREFETCHES: 12776 DROPPED PREFETCHES: 0
L1D PREFETCHES SAME FILL-ORIGIN LEVEL: 1019146 DIFFERENT FILL-ORIGIN LEVEL: 0
L1D AVERAGE MISS LATENCY: 467083 cycles
L1D RQ	ACCESS:   14751940	FORWARD:          0	MERGED:    7276405	TO_CACHE:    7475531
L1D WQ	ACCESS:     656260	FORWARD:          5	MERGED:        175	TO_CACHE:     656085
L1D PQ	ACCESS:    1798520	FORWARD:          0	MERGED:          0	TO_CACHE:    1798519

L1D UNIQUE REGIONS ACCESSED: 0
L1D REGIONS CONFLICTS: 0
L1D Cross Page Prefetch Requests: 0
L1D Same Page Prefetch Requests: 2197549
L1D ROI Sum of L1D PQ occupancy: 24487888
L1D PREFETCHES PUSHED FROM L2C: 0
L1I TOTAL     ACCESS:    9258101  HIT:    9258101  MISS:          0  HIT %:        100  MISS %:          0   MPKI: 0
L1I LOAD      ACCESS:    9258101  HIT:    9258101  MISS:          0  HIT %:        100  MISS %:          0   MPKI: 0
L1I PREFETCH  REQUESTED:          0  ISSUED:          0  USEFUL:          0  USELESS:          0
L1I USEFUL LOAD PREFETCHES:          0 PREFETCH ISSUED TO LOWER LEVEL:          0  ACCURACY: -nan
L1I TIMELY PREFETCHES:          0 LATE PREFETCHES: 0 DROPPED PREFETCHES: 0
L1I PREFETCHES SAME FILL-ORIGIN LEVEL: 0 DIFFERENT FILL-ORIGIN LEVEL: 0
L1I AVERAGE MISS LATENCY: -nan cycles
L1I RQ	ACCESS:   18345956	FORWARD:          0	MERGED:    9087855	TO_CACHE:    9258101

BTB TOTAL     ACCESS:    8408284  HIT:    8407871  MISS:        413  HIT %:    99.9951  MISS %: 0.00491182   MPKI: 0.00826
BTB BRANCH_DIRECT_JUMP	ACCESS:        432  HIT:        430  MISS:          2
BTB BRANCH_INDIRECT	ACCESS:          0  HIT:          0  MISS:          0
BTB BRANCH_CONDITIONAL	ACCESS:    7758887  HIT:    7758854  MISS:         33
BTB BRANCH_DIRECT_CALL	ACCESS:     162578  HIT:     162565  MISS:         13
BTB BRANCH_INDIRECT_CALL	ACCESS:     161904  HIT:     161898  MISS:          6
BTB BRANCH_RETURN	ACCESS:     324483  HIT:     324124  MISS:        359
BTB BRANCH_OTHER ACCESS:          0  HIT:          0  MISS:          0

L2C TOTAL     ACCESS:    2407919  HIT:    1370720  MISS:    1037199  HIT %:    56.9255  MISS %:    43.0745   MPKI: 20.744
L2C LOAD      ACCESS:      34385  HIT:       3211  MISS:      31174  HIT %:    9.33837  MISS %:    90.6616   MPKI: 0.62348
L2C DATA LOAD MPKI: 0.62348
L2C INSTRUCTION LOAD MPKI: 0
L2C RFO       ACCESS:        101  HIT:          0  MISS:        101  HIT %:          0  MISS %:        100   MPKI: 0.00202
L2C PREFETCH  ACCESS:    2372961  HIT:    1367137  MISS:    1005824  HIT %:    57.6131  MISS %:    42.3869   MPKI: 20.1165
L2C DATA PREFETCH MPKI: 20.1165
L2C INSTRUCTION PREFETCH MPKI: 0
L2C WRITEBACK ACCESS:        412  HIT:        356  MISS:         56  HIT %:    86.4078  MISS %:    13.5922   MPKI: 0.00112
L2C LOAD TRANSLATION ACCESS:         60  HIT:         16  MISS:         44  HIT %:    26.6667  MISS %:    73.3333   MPKI: 0.00088
L2C PREFETCH  REQUESTED:    2123908  ISSUED:    2108612  USEFUL:       1990  USELESS:    1003935
L2C USEFUL LOAD PREFETCHES:       1990 PREFETCH ISSUED TO LOWER LEVEL:    1005924  ACCURACY: 0.197828
L2C TIMELY PREFETCHES:       1990 LATE PREFETCHES: 100 DROPPED PREFETCHES: 0
L2C PREFETCHES SAME FILL-ORIGIN LEVEL: 559776 DIFFERENT FILL-ORIGIN LEVEL: 0
L2C AVERAGE MISS LATENCY: 125.281 cycles
L2C RQ	ACCESS:      34546	FORWARD:          0	MERGED:          0	TO_CACHE:      34546
L2C WQ	ACCESS:        412	FORWARD:          0	MERGED:          0	TO_CACHE:        412
L2C PQ	ACCESS:    3118010	FORWARD:          0	MERGED:     627127	TO_CACHE:    2490883

L2C Instructions Evicting Data 0
L2C Translations Evicting Data 44
L2C Data Evicting Data 1037055
L2C Instructions Evicting Instructions 0
L2C Translations Evicting Instructions 0
L2C Data Evicting Instructions 0
L2C Instructions Evicting Translations 0
L2C Translations Evicting Translations 0
L2C Data Evicting Translations 44
L2C Dense regions hint from L2: 0
PSCL5 TOTAL     ACCESS:         60  HIT:         60  MISS:          0  HIT %:        100  MISS %:          0   MPKI: 0
PSCL5 LOAD TRANSLATION ACCESS:         60  HIT:         60  MISS:          0  HIT %:        100  MISS %:          0   MPKI: 0
PSCL5 PREFETCH  REQUESTED:          0  ISSUED:          0  USEFUL:          0  USELESS:          0
PSCL5 USEFUL LOAD PREFETCHES:          0 PREFETCH ISSUED TO LOWER LEVEL:          0  ACCURACY: -nan
PSCL5 TIMELY PREFETCHES:          0 LATE PREFETCHES: 0 DROPPED PREFETCHES: 0
PSCL5 PREFETCHES SAME FILL-ORIGIN LEVEL: 0 DIFFERENT FILL-ORIGIN LEVEL: 0

PSCL4 TOTAL     ACCESS:         60  HIT:         60  MISS:          0  HIT %:        100  MISS %:          0   MPKI: 0
PSCL4 LOAD TRANSLATION ACCESS:         60  HIT:         60  MISS:          0  HIT %:        100  MISS %:          0   MPKI: 0
PSCL4 PREFETCH  REQUESTED:          0  ISSUED:          0  USEFUL:          0  USELESS:          0
PSCL4 USEFUL LOAD PREFETCHES:          0 PREFETCH ISSUED TO LOWER LEVEL:          0  ACCURACY: -nan
PSCL4 TIMELY PREFETCHES:          0 LATE PREFETCHES: 0 DROPPED PREFETCHES: 0
PSCL4 PREFETCHES SAME FILL-ORIGIN LEVEL: 0 DIFFERENT FILL-ORIGIN LEVEL: 0

PSCL3 TOTAL     ACCESS:         60  HIT:         60  MISS:          0  HIT %:        100  MISS %:          0   MPKI: 0
PSCL3 LOAD TRANSLATION ACCESS:         60  HIT:         60  MISS:          0  HIT %:        100  MISS %:          0   MPKI: 0
PSCL3 PREFETCH  REQUESTED:          0  ISSUED:          0  USEFUL:          0  USELESS:          0
PSCL3 USEFUL LOAD PREFETCHES:          0 PREFETCH ISSUED TO LOWER LEVEL:          0  ACCURACY: -nan
PSCL3 TIMELY PREFETCHES:          0 LATE PREFETCHES: 0 DROPPED PREFETCHES: 0
PSCL3 PREFETCHES SAME FILL-ORIGIN LEVEL: 0 DIFFERENT FILL-ORIGIN LEVEL: 0

PSCL2 TOTAL     ACCESS:         60  HIT:         60  MISS:          0  HIT %:        100  MISS %:          0   MPKI: 0
PSCL2 LOAD TRANSLATION ACCESS:         60  HIT:         60  MISS:          0  HIT %:        100  MISS %:          0   MPKI: 0
PSCL2 PREFETCH  REQUESTED:          0  ISSUED:          0  USEFUL:          0  USELESS:          0
PSCL2 USEFUL LOAD PREFETCHES:          0 PREFETCH ISSUED TO LOWER LEVEL:          0  ACCURACY: -nan
PSCL2 TIMELY PREFETCHES:          0 LATE PREFETCHES: 0 DROPPED PREFETCHES: 0
PSCL2 PREFETCHES SAME FILL-ORIGIN LEVEL: 0 DIFFERENT FILL-ORIGIN LEVEL: 0

LLC TOTAL     ACCESS:    1037549  HIT:      25287  MISS:    1012262  HIT %:    2.43719  MISS %:    97.5628   MPKI: 20.2452
LLC LOAD      ACCESS:      31074  HIT:       6818  MISS:      24256  HIT %:    21.9412  MISS %:    78.0588   MPKI: 0.48512
LLC RFO       ACCESS:        101  HIT:          0  MISS:        101  HIT %:          0  MISS %:        100   MPKI: 0.00202
LLC PREFETCH  ACCESS:    1005924  HIT:      18067  MISS:     987857  HIT %:    1.79606  MISS %:    98.2039   MPKI: 19.7571
LLC WRITEBACK ACCESS:        406  HIT:        402  MISS:          4  HIT %:    99.0148  MISS %:   0.985222   MPKI: 8e-05
LLC LOAD TRANSLATION ACCESS:         44  HIT:          0  MISS:         44  HIT %:          0  MISS %:        100   MPKI: 0.00088
LLC PREFETCH  REQUESTED:          0  ISSUED:          0  USEFUL:        503  USELESS:     987631
LLC USEFUL LOAD PREFETCHES:        503 PREFETCH ISSUED TO LOWER LEVEL:     987857  ACCURACY: 0.0509183
LLC TIMELY PREFETCHES:        503 LATE PREFETCHES: 0 DROPPED PREFETCHES: 0
LLC PREFETCHES SAME FILL-ORIGIN LEVEL: 0 DIFFERENT FILL-ORIGIN LEVEL: 0
LLC AVERAGE MISS LATENCY: 97.6276 cycles
LLC RQ	ACCESS:      31219	FORWARD:          0	MERGED:          0	TO_CACHE:      31219
LLC WQ	ACCESS:        406	FORWARD:          0	MERGED:          0	TO_CACHE:        406
LLC PQ	ACCESS:    1005924	FORWARD:          0	MERGED:          0	TO_CACHE:    1005924

LLC Dense regions hint to LLC: 0

RAW hits: 495
Loads Generated: 14752436
Loads sent to L1D: 14751940
Stores Generated: 656260
Stores sent to L1D: 656260
Major fault: 0 Minor fault: 716
Allocated PAGES: 716

stream: 
stream:times selected: 2504131
stream:pref_filled: 229268
stream:pref_useful: 207234
stream:pref_late: 13160
stream:misses: 44508
stream:misses_by_poll: 0

CS: 
CS:times selected: 1863678
CS:pref_filled: 674652
CS:pref_useful: 591510
CS:pref_late: 117
CS:misses: 12709
CS:misses_by_poll: 3535

CPLX: 
CPLX:times selected: 640195
CPLX:pref_filled: 290159
CPLX:pref_useful: 284074
CPLX:pref_late: 19
CPLX:misses: 8292
CPLX:misses_by_poll: 1168

NL_L1: 
NL:times selected: 38
NL:pref_filled: 17
NL:pref_useful: 14
NL:pref_late: 5
NL:misses: 6
NL:misses_by_poll: 0

total selections: 5008042
total_filled: 996613
total_useful: 903907
total_late: 15659
total_polluted: 4703
total_misses_after_warmup: 52555
conflicts: 486
Degree Incremented Times: 110315
Degree Decremented Times: 0

L1 IP Table Write Accesses: 7286614
L1 IP Table Read Accesses: 7286128
L1 RST Write Accesses: 2066838
L1 RST Read Accesses: 4133676
L1 CSPT Write Accesses: 2066838
L1 CSPT Read Accesses: 3393418
L1 RR Filter Tag Write Accesses: 1801245
L1 RR Filter Tag Read Accesses: 337596548
L1 IP Table Tag Write Accesses: 7475532
L1 IP Table Tag Read Accesses: 7475532
L1 RST Tag Write Accesses: 0
L1 RST Tag Read Accesses: 18674835
L1 RR Filter Write Accesses: 0
L1 RR Filter Read Accesses: 16745422
test: 259238
L2 IP Table Read Accesses: 1850973
L2 IP Table Write Accesses: 1816704
L2 IP Table Tag Read Accesses: 925570
L2 IP Table Tag Write Accesses: 925570

DRAM Statistics
 CHANNEL 0
 RQ ROW_BUFFER_HIT:     968105  ROW_BUFFER_MISS:      44153
 DBUS_CONGESTED:          1
 WQ ROW_BUFFER_HIT:         51  ROW_BUFFER_MISS:        349  FULL:          0

 AVG_CONGESTED_CYCLE: 7
 All warmup complete: 2
Channel 0 Bank busy for read cycles: 0
Channel 0 Bank busy for write cycles: 0
Channel 0
Rank 0
0banks busy for read cycles: 58936026
0banks busy for write cycles: 167
1banks busy for read cycles: 5677278
1banks busy for write cycles: 12429
2banks busy for read cycles: 2261050
2banks busy for write cycles: 6697
3banks busy for read cycles: 1879631
3banks busy for write cycles: 8110
4banks busy for read cycles: 1630559
4banks busy for write cycles: 1796
5banks busy for read cycles: 1289859
5banks busy for write cycles: 1209
6banks busy for read cycles: 1280889
6banks busy for write cycles: 38
7banks busy for read cycles: 1010756
7banks busy for write cycles: 1032
8banks busy for read cycles: 1432392
8banks busy for write cycles: 143

CPU 0 Branch Prediction Accuracy: 96.5207% MPKI: 9.7029 Average ROB Occupancy at Mispredict: 37.4299
Branch types
NOT_BRANCH: 36055972 72.1119%
BRANCH_DIRECT_JUMP: 432 0.000864%
BRANCH_INDIRECT: 0 0%
BRANCH_CONDITIONAL: 13294297 26.5886%
BRANCH_DIRECT_CALL: 162578 0.325156%
BRANCH_INDIRECT_CALL: 161904 0.323808%
BRANCH_RETURN: 324483 0.648966%
BRANCH_OTHER: 0 0%

@sumon_overall_L1D    903907     12776     92694    996613   3597039   3599764
@Sumon_Early_by_class_L1D    172100    512726    219048         5
@Sumon_Late_by_class_L1D     10314       117         7         5

@Sumon_Early_by_cycle_L1D     16917      3154    144895     43956    122652    499523     51522       610      1670     18995        10         3
@Sumon_Late_by_cycle_L1D     11384      1198       194         0         0         0         0         0         0         0         0         0
@Sumon_Early_stream_L1D     16004      2443    118627      8528      5942       314       377       437      1199     18226         0         3
@Sumon_Early_CS_L1D       814       639     22306     22156     90077    369120      6673       105       339       495         2         0
@Sumon_Early_CPLX_L1D        94        71      3958     13269     26627    130075     44472        68       132       274         8         0
@Sumon_Late_stream_L1D      8930      1190       194         0         0         0         0         0         0         0         0         0
@Sumon_Late_CS_L1D       114         3         0         0         0         0         0         0         0         0         0         0
@Sumon_Late_CPLX_L1D         5         2         0         0         0         0         0         0         0         0         0         0
@sumon_overall_L2C      1990       100   1003935   1005824   2108612   2123908
@Sumon_Early_by_class_L2C      1175       754        56         0
@Sumon_Late_by_class_L2C        97         1         0         0

@Sumon_Early_by_cycle_L2C       259        16       379       177       210       401       185         2         0        92        19       250
@Sumon_Late_by_cycle_L2C        91         9         0         0         0         0         0         0         0         0         0         0
@Sumon_Early_stream_L2C       255        13       355       167       203         9         4         2         0        78         0        89
@Sumon_Early_CS_L2C         2         1        24        10         7       392       181         0         0        12        19       106
@Sumon_Early_CPLX_L2C         0         0         0         0         0         0         0         0         0         2         0        54
@Sumon_Late_stream_L2C        89         8         0         0         0         0         0         0         0         0         0         0
@Sumon_Late_CS_L2C         1         0         0         0         0         0         0         0         0         0         0         0
@Sumon_Late_CPLX_L2C         0         0         0         0         0         0         0         0         0         0         0         0
DRAM PAGES: 1048576
Allocated PAGES: 716
