
*** ChampSim Multicore Out-of-Order Simulator ***

Warmup Instructions: 10000000
Simulation Instructions: 50000000
Number of CPUs: 1
LLC sets: 2048
LLC ways: 16
Off-chip DRAM Size: 4096 MB Channels: 1 Width: 64-bit Data Rate: 6400 MT/s
CPU 0 runs traces/SPEC2017/641.leela_s-1083B.champsimtrace.xz
.xz
CPU 0 Bimodal branch predictor
BTB has LRU replacement policy
ITLB has LRU replacement policy
DTLB has LRU replacement policy
STLB has LRU replacement policy
L1I has LRU replacement policy
IP Table Entries: 256
L1D has LRU replacement policy
IP_Table L2 entries: 256
Initialize DRRIP state for L2C
LLC has LRU replacement policy
Heartbeat CPU 0 instructions: 10000000 cycles: 3150396 heartbeat IPC: 3.1742 cumulative IPC: 3.1742 (Simulation time: 0 hr 21 min 47 sec) 

Warmup complete CPU 0 instructions: 10000001 cycles: 3150402 (Simulation time: 0 hr 21 min 47 sec) 

Heartbeat CPU 0 instructions: 20000002 cycles: 33041617 heartbeat IPC: 0.334546 cumulative IPC: 0.334546 (Simulation time: 0 hr 40 min 27 sec) 
Heartbeat CPU 0 instructions: 30000000 cycles: 63401635 heartbeat IPC: 0.329381 cumulative IPC: 0.331943 (Simulation time: 0 hr 59 min 33 sec) 
Heartbeat CPU 0 instructions: 40000003 cycles: 93425616 heartbeat IPC: 0.333067 cumulative IPC: 0.332317 (Simulation time: 1 hr 18 min 43 sec) 
Heartbeat CPU 0 instructions: 50000002 cycles: 123315880 heartbeat IPC: 0.334557 cumulative IPC: 0.332874 (Simulation time: 1 hr 37 min 41 sec) 
Heartbeat CPU 0 instructions: 60000002 cycles: 153128953 heartbeat IPC: 0.335423 cumulative IPC: 0.333381 (Simulation time: 1 hr 54 min 12 sec) 
Finished CPU 0 instructions: 50000001 cycles: 149978551 cumulative IPC: 0.333381 (Simulation time: 1 hr 54 min 12 sec) 

ChampSim completed all CPUs

Region of Interest Statistics

CPU 0 cumulative IPC: 0.333381 instructions: 50000001 cycles: 149978551
ITLB TOTAL     ACCESS:    8695666  HIT:    8695666  MISS:          0  HIT %:        100  MISS %:          0   MPKI: 0
ITLB LOAD TRANSLATION ACCESS:    8695666  HIT:    8695666  MISS:          0  HIT %:        100  MISS %:          0   MPKI: 0
ITLB PREFETCH  REQUESTED:          0  ISSUED:          0  USEFUL:          0  USELESS:          0
ITLB USEFUL LOAD PREFETCHES:          0 PREFETCH ISSUED TO LOWER LEVEL:          0  ACCURACY: -nan
ITLB TIMELY PREFETCHES:          0 LATE PREFETCHES: 0 DROPPED PREFETCHES: 0
ITLB PREFETCHES SAME FILL-ORIGIN LEVEL: 0 DIFFERENT FILL-ORIGIN LEVEL: 0
ITLB AVERAGE MISS LATENCY: -nan cycles
ITLB RQ	ACCESS:    9945207	FORWARD:          0	MERGED:    1249541	TO_CACHE:    8695666

DTLB TOTAL     ACCESS:   14310190  HIT:   14288975  MISS:      21215  HIT %:    99.8517  MISS %:   0.148251   MPKI: 0.4243
DTLB LOAD TRANSLATION ACCESS:   14310190  HIT:   14288975  MISS:      21215  HIT %:    99.8517  MISS %:   0.148251   MPKI: 0.4243
DTLB PREFETCH  REQUESTED:          0  ISSUED:          0  USEFUL:          0  USELESS:          0
DTLB USEFUL LOAD PREFETCHES:          0 PREFETCH ISSUED TO LOWER LEVEL:          0  ACCURACY: -nan
DTLB TIMELY PREFETCHES:          0 LATE PREFETCHES: 0 DROPPED PREFETCHES: 0
DTLB PREFETCHES SAME FILL-ORIGIN LEVEL: 0 DIFFERENT FILL-ORIGIN LEVEL: 0
DTLB AVERAGE MISS LATENCY: 10.6164 cycles
DTLB RQ	ACCESS:   16204387	FORWARD:          0	MERGED:    1893421	TO_CACHE:   14310966

STLB TOTAL     ACCESS:     831608  HIT:     831415  MISS:        193  HIT %:    99.9768  MISS %:   0.023208   MPKI: 0.00386
STLB LOAD TRANSLATION ACCESS:      21215  HIT:      21022  MISS:        193  HIT %:    99.0903  MISS %:   0.909734   MPKI: 0.00386
STLB TRANSLATION FROM L1D PREFETCHER ACCESS:     810393  HIT:     810393  MISS:          0  HIT %:        100  MISS %:          0   MPKI: 0
STLB PREFETCH  REQUESTED:          0  ISSUED:          0  USEFUL:          0  USELESS:          0
STLB USEFUL LOAD PREFETCHES:          0 PREFETCH ISSUED TO LOWER LEVEL:          0  ACCURACY: -nan
STLB TIMELY PREFETCHES:          0 LATE PREFETCHES: 0 DROPPED PREFETCHES: 0
STLB PREFETCHES SAME FILL-ORIGIN LEVEL: 0 DIFFERENT FILL-ORIGIN LEVEL: 0
STLB AVERAGE MISS LATENCY: 177.591 cycles
STLB RQ	ACCESS:    1054295	FORWARD:          0	MERGED:     222687	TO_CACHE:     831608

STLB Hit, L1D data hit: 0
STLB Hit, L2C data hit: 0
STLB Hit, LLC data hit: 0
STLB Hit, LLC data miss: 0
STLB STLB hints to L2: 0
L1D TOTAL     ACCESS:   17209593  HIT:   17033111  MISS:     176482  HIT %:    98.9745  MISS %:    1.02549   MPKI: 3.52964
L1D LOAD      ACCESS:   10467200  HIT:   10402334  MISS:      64866  HIT %:    99.3803  MISS %:   0.619707   MPKI: 1.29732
L1D RFO       ACCESS:    5715110  HIT:    5698854  MISS:      16256  HIT %:    99.7156  MISS %:   0.284439   MPKI: 0.32512
L1D PREFETCH  ACCESS:    1027283  HIT:     931923  MISS:      95360  HIT %:    90.7173  MISS %:    9.28274   MPKI: 1.9072
L1D PREFETCH  REQUESTED:    2066181  ISSUED:    2066181  USEFUL:      56730  USELESS:      38709
L1D USEFUL LOAD PREFETCHES:      56730 PREFETCH ISSUED TO LOWER LEVEL:      97376  ACCURACY: 58.2587
L1D TIMELY PREFETCHES:      56730 LATE PREFETCHES: 1997 DROPPED PREFETCHES: 0
L1D PREFETCHES SAME FILL-ORIGIN LEVEL: 97376 DIFFERENT FILL-ORIGIN LEVEL: 0
L1D AVERAGE MISS LATENCY: 958708 cycles
L1D RQ	ACCESS:   13170012	FORWARD:          0	MERGED:    2138528	TO_CACHE:   10467958
L1D WQ	ACCESS:    5839795	FORWARD:     563547	MERGED:     103366	TO_CACHE:    5736429
L1D PQ	ACCESS:    1033101	FORWARD:          0	MERGED:          0	TO_CACHE:    1033080

L1D UNIQUE REGIONS ACCESSED: 0
L1D REGIONS CONFLICTS: 0
L1D Cross Page Prefetch Requests: 0
L1D Same Page Prefetch Requests: 1257178
L1D ROI Sum of L1D PQ occupancy: 13163646
L1D PREFETCHES PUSHED FROM L2C: 0
L1I TOTAL     ACCESS:    9944124  HIT:    9940822  MISS:       3302  HIT %:    99.9668  MISS %:  0.0332055   MPKI: 0.06604
L1I LOAD      ACCESS:    9944124  HIT:    9940822  MISS:       3302  HIT %:    99.9668  MISS %:  0.0332055   MPKI: 0.06604
L1I PREFETCH  REQUESTED:          0  ISSUED:          0  USEFUL:          0  USELESS:          0
L1I USEFUL LOAD PREFETCHES:          0 PREFETCH ISSUED TO LOWER LEVEL:          0  ACCURACY: -nan
L1I TIMELY PREFETCHES:          0 LATE PREFETCHES: 0 DROPPED PREFETCHES: 0
L1I PREFETCHES SAME FILL-ORIGIN LEVEL: 0 DIFFERENT FILL-ORIGIN LEVEL: 0
L1I AVERAGE MISS LATENCY: 16.9073 cycles
L1I RQ	ACCESS:   13910685	FORWARD:          0	MERGED:    3965478	TO_CACHE:    9945207

BTB TOTAL     ACCESS:    7975109  HIT:    7388937  MISS:     586172  HIT %:      92.65  MISS %:    7.35002   MPKI: 11.7234
BTB BRANCH_DIRECT_JUMP	ACCESS:     266110  HIT:     266027  MISS:         83
BTB BRANCH_INDIRECT	ACCESS:        390  HIT:        347  MISS:         43
BTB BRANCH_CONDITIONAL	ACCESS:    4732433  HIT:    4731753  MISS:        680
BTB BRANCH_DIRECT_CALL	ACCESS:    1488087  HIT:    1487821  MISS:        266
BTB BRANCH_INDIRECT_CALL	ACCESS:          0  HIT:          0  MISS:          0
BTB BRANCH_RETURN	ACCESS:    1488089  HIT:     902989  MISS:     585100
BTB BRANCH_OTHER ACCESS:          0  HIT:          0  MISS:          0

L2C TOTAL     ACCESS:     298751  HIT:     292288  MISS:       6463  HIT %:    97.8367  MISS %:    2.16334   MPKI: 0.12926
L2C LOAD      ACCESS:      66165  HIT:      64838  MISS:       1327  HIT %:    97.9944  MISS %:    2.00559   MPKI: 0.02654
L2C DATA LOAD MPKI: 0.0254
L2C INSTRUCTION LOAD MPKI: 0.00114
L2C RFO       ACCESS:      16237  HIT:      16091  MISS:        146  HIT %:    99.1008  MISS %:   0.899181   MPKI: 0.00292
L2C PREFETCH  ACCESS:     185051  HIT:     180147  MISS:       4904  HIT %:    97.3499  MISS %:    2.65008   MPKI: 0.09808
L2C DATA PREFETCH MPKI: 0.09808
L2C INSTRUCTION PREFETCH MPKI: 0
L2C WRITEBACK ACCESS:      31105  HIT:      31090  MISS:         15  HIT %:    99.9518  MISS %:  0.0482238   MPKI: 0.0003
L2C LOAD TRANSLATION ACCESS:        193  HIT:        122  MISS:         71  HIT %:    63.2124  MISS %:    36.7876   MPKI: 0.00142
L2C PREFETCH  REQUESTED:     105354  ISSUED:     105354  USEFUL:        619  USELESS:       1999
L2C USEFUL LOAD PREFETCHES:        619 PREFETCH ISSUED TO LOWER LEVEL:       4906  ACCURACY: 12.6172
L2C TIMELY PREFETCHES:        619 LATE PREFETCHES: 2 DROPPED PREFETCHES: 0
L2C PREFETCHES SAME FILL-ORIGIN LEVEL: 2357 DIFFERENT FILL-ORIGIN LEVEL: 0
L2C AVERAGE MISS LATENCY: 127.179 cycles
L2C RQ	ACCESS:      82601	FORWARD:          0	MERGED:          0	TO_CACHE:      82595
L2C WQ	ACCESS:      31105	FORWARD:          6	MERGED:          0	TO_CACHE:      31105
L2C PQ	ACCESS:     202730	FORWARD:          0	MERGED:      15797	TO_CACHE:     186933

L2C Instructions Evicting Data 16
L2C Translations Evicting Data 25
L2C Data Evicting Data 3035
L2C Instructions Evicting Instructions 3
L2C Translations Evicting Instructions 1
L2C Data Evicting Instructions 218
L2C Instructions Evicting Translations 2
L2C Translations Evicting Translations 0
L2C Data Evicting Translations 65
L2C Dense regions hint from L2: 0
PSCL5 TOTAL     ACCESS:        193  HIT:        193  MISS:          0  HIT %:        100  MISS %:          0   MPKI: 0
PSCL5 LOAD TRANSLATION ACCESS:        193  HIT:        193  MISS:          0  HIT %:        100  MISS %:          0   MPKI: 0
PSCL5 PREFETCH  REQUESTED:          0  ISSUED:          0  USEFUL:          0  USELESS:          0
PSCL5 USEFUL LOAD PREFETCHES:          0 PREFETCH ISSUED TO LOWER LEVEL:          0  ACCURACY: -nan
PSCL5 TIMELY PREFETCHES:          0 LATE PREFETCHES: 0 DROPPED PREFETCHES: 0
PSCL5 PREFETCHES SAME FILL-ORIGIN LEVEL: 0 DIFFERENT FILL-ORIGIN LEVEL: 0

PSCL4 TOTAL     ACCESS:        193  HIT:        193  MISS:          0  HIT %:        100  MISS %:          0   MPKI: 0
PSCL4 LOAD TRANSLATION ACCESS:        193  HIT:        193  MISS:          0  HIT %:        100  MISS %:          0   MPKI: 0
PSCL4 PREFETCH  REQUESTED:          0  ISSUED:          0  USEFUL:          0  USELESS:          0
PSCL4 USEFUL LOAD PREFETCHES:          0 PREFETCH ISSUED TO LOWER LEVEL:          0  ACCURACY: -nan
PSCL4 TIMELY PREFETCHES:          0 LATE PREFETCHES: 0 DROPPED PREFETCHES: 0
PSCL4 PREFETCHES SAME FILL-ORIGIN LEVEL: 0 DIFFERENT FILL-ORIGIN LEVEL: 0

PSCL3 TOTAL     ACCESS:        193  HIT:        193  MISS:          0  HIT %:        100  MISS %:          0   MPKI: 0
PSCL3 LOAD TRANSLATION ACCESS:        193  HIT:        193  MISS:          0  HIT %:        100  MISS %:          0   MPKI: 0
PSCL3 PREFETCH  REQUESTED:          0  ISSUED:          0  USEFUL:          0  USELESS:          0
PSCL3 USEFUL LOAD PREFETCHES:          0 PREFETCH ISSUED TO LOWER LEVEL:          0  ACCURACY: -nan
PSCL3 TIMELY PREFETCHES:          0 LATE PREFETCHES: 0 DROPPED PREFETCHES: 0
PSCL3 PREFETCHES SAME FILL-ORIGIN LEVEL: 0 DIFFERENT FILL-ORIGIN LEVEL: 0

PSCL2 TOTAL     ACCESS:        193  HIT:        193  MISS:          0  HIT %:        100  MISS %:          0   MPKI: 0
PSCL2 LOAD TRANSLATION ACCESS:        193  HIT:        193  MISS:          0  HIT %:        100  MISS %:          0   MPKI: 0
PSCL2 PREFETCH  REQUESTED:          0  ISSUED:          0  USEFUL:          0  USELESS:          0
PSCL2 USEFUL LOAD PREFETCHES:          0 PREFETCH ISSUED TO LOWER LEVEL:          0  ACCURACY: -nan
PSCL2 TIMELY PREFETCHES:          0 LATE PREFETCHES: 0 DROPPED PREFETCHES: 0
PSCL2 PREFETCHES SAME FILL-ORIGIN LEVEL: 0 DIFFERENT FILL-ORIGIN LEVEL: 0

LLC TOTAL     ACCESS:       7007  HIT:       1923  MISS:       5084  HIT %:     27.444  MISS %:     72.556   MPKI: 0.10168
LLC LOAD      ACCESS:       1326  HIT:        515  MISS:        811  HIT %:    38.8386  MISS %:    61.1614   MPKI: 0.01622
LLC RFO       ACCESS:        145  HIT:         38  MISS:        107  HIT %:    26.2069  MISS %:    73.7931   MPKI: 0.00214
LLC PREFETCH  ACCESS:       4906  HIT:        801  MISS:       4105  HIT %:    16.3269  MISS %:    83.6731   MPKI: 0.0821
LLC WRITEBACK ACCESS:        559  HIT:        559  MISS:          0  HIT %:        100  MISS %:          0   MPKI: 0
LLC LOAD TRANSLATION ACCESS:         71  HIT:         10  MISS:         61  HIT %:    14.0845  MISS %:    85.9155   MPKI: 0.00122
LLC PREFETCH  REQUESTED:          0  ISSUED:          0  USEFUL:        104  USELESS:          0
LLC USEFUL LOAD PREFETCHES:        104 PREFETCH ISSUED TO LOWER LEVEL:       4105  ACCURACY: 2.5335
LLC TIMELY PREFETCHES:        104 LATE PREFETCHES: 0 DROPPED PREFETCHES: 0
LLC PREFETCHES SAME FILL-ORIGIN LEVEL: 0 DIFFERENT FILL-ORIGIN LEVEL: 0
LLC AVERAGE MISS LATENCY: 123.34 cycles
LLC RQ	ACCESS:       1542	FORWARD:          0	MERGED:          0	TO_CACHE:       1542
LLC WQ	ACCESS:        559	FORWARD:          0	MERGED:          0	TO_CACHE:        559
LLC PQ	ACCESS:       4906	FORWARD:          0	MERGED:          0	TO_CACHE:       4906

LLC Dense regions hint to LLC: 0

RAW hits: 375090
Loads Generated: 13545102
Loads sent to L1D: 13170012
Stores Generated: 5839795
Stores sent to L1D: 5839795
Major fault: 0 Minor fault: 541
Allocated PAGES: 541

stream: 
stream:times selected: 3121075
stream:pref_filled: 56046
stream:pref_useful: 24029
stream:pref_late: 1224
stream:misses: 6193
stream:misses_by_poll: 0

CS: 
CS:times selected: 140254
CS:pref_filled: 50050
CS:pref_useful: 44108
CS:pref_late: 737
CS:misses: 2790
CS:misses_by_poll: 231

CPLX: 
CPLX:times selected: 2978980
CPLX:pref_filled: 13890
CPLX:pref_useful: 4426
CPLX:pref_late: 52
CPLX:misses: 40618
CPLX:misses_by_poll: 15

NL_L1: 
NL:times selected: 28780
NL:pref_filled: 1050
NL:pref_useful: 138
NL:pref_late: 1
NL:misses: 718
NL:misses_by_poll: 1

total selections: 6269089
total_filled: 95360
total_useful: 56730
total_late: 2165
total_polluted: 247
total_misses_after_warmup: 65625
conflicts: 1044561
Degree Incremented Times: 50106
Degree Decremented Times: 115461

L1 IP Table Write Accesses: 8642004
L1 IP Table Read Accesses: 7597443
L1 RST Write Accesses: 2625813
L1 RST Read Accesses: 5251626
L1 CSPT Write Accesses: 2625813
L1 CSPT Read Accesses: 5141026
L1 RR Filter Tag Write Accesses: 1033101
L1 RR Filter Tag Read Accesses: 85261625
L1 IP Table Tag Write Accesses: 10467959
L1 IP Table Tag Read Accesses: 10467959
L1 RST Tag Write Accesses: 0
L1 RST Tag Read Accesses: 28524689
L1 RR Filter Write Accesses: 0
L1 RR Filter Read Accesses: 3563682
test: 319898
L2 IP Table Read Accesses: 296355
L2 IP Table Write Accesses: 238951
L2 IP Table Tag Read Accesses: 150483
L2 IP Table Tag Write Accesses: 150483

DRAM Statistics
 CHANNEL 0
 RQ ROW_BUFFER_HIT:       2431  ROW_BUFFER_MISS:       2653
 DBUS_CONGESTED:          0
 WQ ROW_BUFFER_HIT:          0  ROW_BUFFER_MISS:          0  FULL:          0

 AVG_CONGESTED_CYCLE: -
 All warmup complete: 2
Channel 0 Bank busy for read cycles: 0
Channel 0 Bank busy for write cycles: 0
Channel 0
Rank 0
0banks busy for read cycles: 149609007
0banks busy for write cycles: 0
1banks busy for read cycles: 287541
1banks busy for write cycles: 0
2banks busy for read cycles: 45244
2banks busy for write cycles: 0
3banks busy for read cycles: 14363
3banks busy for write cycles: 0
4banks busy for read cycles: 17523
4banks busy for write cycles: 0
5banks busy for read cycles: 2550
5banks busy for write cycles: 0
6banks busy for read cycles: 1105
6banks busy for write cycles: 0
7banks busy for read cycles: 841
7banks busy for write cycles: 0
8banks busy for read cycles: 378
8banks busy for write cycles: 0

CPU 0 Branch Prediction Accuracy: 87.2784% MPKI: 21.4218 Average ROB Occupancy at Mispredict: 13.4614
Branch types
NOT_BRANCH: 41580273 83.1605%
BRANCH_DIRECT_JUMP: 266110 0.53222%
BRANCH_INDIRECT: 390 0.00078%
BRANCH_CONDITIONAL: 5176805 10.3536%
BRANCH_DIRECT_CALL: 1488087 2.97617%
BRANCH_INDIRECT_CALL: 0 0%
BRANCH_RETURN: 1488089 2.97618%
BRANCH_OTHER: 0 0%

@sumon_overall_L1D     56730      1997     38709     95360   2066181   2066181
@Sumon_Early_by_class_L1D     18188     35423      2985         1
@Sumon_Late_by_class_L1D      1138       661        46         1

@Sumon_Early_by_cycle_L1D     17724     10835      9877      1049       851      5434      3860       935       613      1206       827      3519
@Sumon_Late_by_cycle_L1D      1941        56         0         0         0         0         0         0         0         0         0         0
@Sumon_Early_stream_L1D      3384       421       792       841       331      3612      3209       672       433       883       645      2965
@Sumon_Early_CS_L1D     14070     10266      8965       116       379      1164       200        92        42        82        26        21
@Sumon_Early_CPLX_L1D       263       148       119        91       139       596       450       155       133       233       150       508
@Sumon_Late_stream_L1D      1126        12         0         0         0         0         0         0         0         0         0         0
@Sumon_Late_CS_L1D       617        44         0         0         0         0         0         0         0         0         0         0
@Sumon_Late_CPLX_L1D        46         0         0         0         0         0         0         0         0         0         0         0
@sumon_overall_L2C       619         2      1999      4904    105354    105354
@Sumon_Early_by_class_L2C       337       159        90         0
@Sumon_Late_by_class_L2C         0         0         0         0

@Sumon_Early_by_cycle_L2C         6         3         1         0         0         2         1         1         1         1         2       601
@Sumon_Late_by_cycle_L2C         1         1         0         0         0         0         0         0         0         0         0         0
@Sumon_Early_stream_L2C         0         0         0         0         0         0         0         0         0         0         0       337
@Sumon_Early_CS_L2C         5         2         1         0         0         2         0         0         0         0         1       148
@Sumon_Early_CPLX_L2C         0         0         0         0         0         0         0         0         0         0         0        90
@Sumon_Late_stream_L2C         0         0         0         0         0         0         0         0         0         0         0         0
@Sumon_Late_CS_L2C         0         0         0         0         0         0         0         0         0         0         0         0
@Sumon_Late_CPLX_L2C         0         0         0         0         0         0         0         0         0         0         0         0
DRAM PAGES: 1048576
Allocated PAGES: 541
