
*** ChampSim Multicore Out-of-Order Simulator ***

Warmup Instructions: 10000000
Simulation Instructions: 50000000
Number of CPUs: 1
LLC sets: 2048
LLC ways: 16
Off-chip DRAM Size: 4096 MB Channels: 1 Width: 64-bit Data Rate: 6400 MT/s
CPU 0 runs traces/SPEC2017/654.roms_s-1390B.champsimtrace.xz
.xz
CPU 0 Bimodal branch predictor
BTB has LRU replacement policy
ITLB has LRU replacement policy
DTLB has LRU replacement policy
STLB has LRU replacement policy
L1I has LRU replacement policy
IP Table Entries: 256
L1D has LRU replacement policy
IP_Table L2 entries: 256
Initialize DRRIP state for L2C
LLC has LRU replacement policy
Heartbeat CPU 0 instructions: 10000001 cycles: 3756055 heartbeat IPC: 2.66237 cumulative IPC: 2.66237 (Simulation time: 0 hr 33 min 52 sec) 

Warmup complete CPU 0 instructions: 10000001 cycles: 3756055 (Simulation time: 0 hr 33 min 52 sec) 

Heartbeat CPU 0 instructions: 20000000 cycles: 18285095 heartbeat IPC: 0.688277 cumulative IPC: 0.688277 (Simulation time: 0 hr 56 min 6 sec) 
Heartbeat CPU 0 instructions: 30000003 cycles: 33599932 heartbeat IPC: 0.652962 cumulative IPC: 0.670154 (Simulation time: 1 hr 17 min 30 sec) 
Heartbeat CPU 0 instructions: 40000002 cycles: 45988052 heartbeat IPC: 0.807225 cumulative IPC: 0.710362 (Simulation time: 1 hr 47 min 58 sec) 
Heartbeat CPU 0 instructions: 50000000 cycles: 58800232 heartbeat IPC: 0.780507 cumulative IPC: 0.726689 (Simulation time: 2 hr 8 min 33 sec) 
Heartbeat CPU 0 instructions: 60000001 cycles: 70836581 heartbeat IPC: 0.830817 cumulative IPC: 0.745373 (Simulation time: 2 hr 14 min 17 sec) 
Finished CPU 0 instructions: 50000000 cycles: 67080526 cumulative IPC: 0.745373 (Simulation time: 2 hr 14 min 17 sec) 

ChampSim completed all CPUs

Region of Interest Statistics

CPU 0 cumulative IPC: 0.745373 instructions: 50000000 cycles: 67080526
ITLB TOTAL     ACCESS:    7565244  HIT:    7565221  MISS:         23  HIT %:    99.9997  MISS %: 0.000304022   MPKI: 0.00046
ITLB LOAD TRANSLATION ACCESS:    7565244  HIT:    7565221  MISS:         23  HIT %:    99.9997  MISS %: 0.000304022   MPKI: 0.00046
ITLB PREFETCH  REQUESTED:          0  ISSUED:          0  USEFUL:          0  USELESS:          0
ITLB USEFUL LOAD PREFETCHES:          0 PREFETCH ISSUED TO LOWER LEVEL:          0  ACCURACY: -nan
ITLB TIMELY PREFETCHES:          0 LATE PREFETCHES: 0 DROPPED PREFETCHES: 0
ITLB PREFETCHES SAME FILL-ORIGIN LEVEL: 0 DIFFERENT FILL-ORIGIN LEVEL: 0
ITLB AVERAGE MISS LATENCY: 308.696 cycles
ITLB RQ	ACCESS:    8566856	FORWARD:          0	MERGED:    1001606	TO_CACHE:    7565250

DTLB TOTAL     ACCESS:   14768470  HIT:   14713885  MISS:      54585  HIT %:    99.6304  MISS %:   0.369605   MPKI: 1.0917
DTLB LOAD TRANSLATION ACCESS:   14768470  HIT:   14713885  MISS:      54585  HIT %:    99.6304  MISS %:   0.369605   MPKI: 1.0917
DTLB PREFETCH  REQUESTED:          0  ISSUED:          0  USEFUL:          0  USELESS:          0
DTLB USEFUL LOAD PREFETCHES:          0 PREFETCH ISSUED TO LOWER LEVEL:          0  ACCURACY: -nan
DTLB TIMELY PREFETCHES:          0 LATE PREFETCHES: 0 DROPPED PREFETCHES: 0
DTLB PREFETCHES SAME FILL-ORIGIN LEVEL: 0 DIFFERENT FILL-ORIGIN LEVEL: 0
DTLB AVERAGE MISS LATENCY: 189.692 cycles
DTLB RQ	ACCESS:   16146532	FORWARD:          0	MERGED:    1322107	TO_CACHE:   14824425

STLB TOTAL     ACCESS:    1214556  HIT:    1175582  MISS:      38974  HIT %:    96.7911  MISS %:    3.20891   MPKI: 0.77948
STLB LOAD TRANSLATION ACCESS:      54608  HIT:      15635  MISS:      38973  HIT %:    28.6313  MISS %:    71.3687   MPKI: 0.77946
STLB TRANSLATION FROM L1D PREFETCHER ACCESS:    1159948  HIT:    1159947  MISS:          1  HIT %:    99.9999  MISS %: 8.62108e-05   MPKI: 2e-05
STLB PREFETCH  REQUESTED:          0  ISSUED:          0  USEFUL:          0  USELESS:          1
STLB USEFUL LOAD PREFETCHES:          0 PREFETCH ISSUED TO LOWER LEVEL:          0  ACCURACY: -nan
STLB TIMELY PREFETCHES:          0 LATE PREFETCHES: 0 DROPPED PREFETCHES: 0
STLB PREFETCHES SAME FILL-ORIGIN LEVEL: 0 DIFFERENT FILL-ORIGIN LEVEL: 0
STLB AVERAGE MISS LATENCY: 251.819 cycles
STLB RQ	ACCESS:    3611131	FORWARD:          0	MERGED:    2396574	TO_CACHE:    1214557

STLB Hit, L1D data hit: 0
STLB Hit, L2C data hit: 0
STLB Hit, LLC data hit: 0
STLB Hit, LLC data miss: 0
STLB STLB hints to L2: 0
L1D TOTAL     ACCESS:   16392074  HIT:   14561933  MISS:    1830141  HIT %:    88.8352  MISS %:    11.1648   MPKI: 36.6028
L1D LOAD      ACCESS:   10868724  HIT:   10776762  MISS:      91962  HIT %:    99.1539  MISS %:   0.846116   MPKI: 1.83924
L1D RFO       ACCESS:    2016676  HIT:    1518248  MISS:     498428  HIT %:    75.2847  MISS %:    24.7153   MPKI: 9.96856
L1D PREFETCH  ACCESS:    3506674  HIT:    2266923  MISS:    1239751  HIT %:     64.646  MISS %:     35.354   MPKI: 24.795
L1D PREFETCH  REQUESTED:    8039347  ISSUED:    7124202  USEFUL:    1167951  USELESS:      71789
L1D USEFUL LOAD PREFETCHES:    1167951 PREFETCH ISSUED TO LOWER LEVEL:    1293673  ACCURACY: 90.2818
L1D TIMELY PREFETCHES:    1167951 LATE PREFETCHES: 25753 DROPPED PREFETCHES: 0
L1D PREFETCHES SAME FILL-ORIGIN LEVEL: 1293673 DIFFERENT FILL-ORIGIN LEVEL: 0
L1D AVERAGE MISS LATENCY: 462143 cycles
L1D RQ	ACCESS:   17793310	FORWARD:          0	MERGED:    6839806	TO_CACHE:   10953277
L1D WQ	ACCESS:    5193273	FORWARD:        228	MERGED:         18	TO_CACHE:    5193255
L1D PQ	ACCESS:    3567679	FORWARD:          0	MERGED:      11155	TO_CACHE:    3556523

L1D UNIQUE REGIONS ACCESSED: 0
L1D REGIONS CONFLICTS: 0
L1D Cross Page Prefetch Requests: 0
L1D Same Page Prefetch Requests: 5006345
L1D ROI Sum of L1D PQ occupancy: 157034853
L1D PREFETCHES PUSHED FROM L2C: 0
L1I TOTAL     ACCESS:    8566692  HIT:    8566273  MISS:        419  HIT %:    99.9951  MISS %: 0.00489104   MPKI: 0.00838
L1I LOAD      ACCESS:    8566692  HIT:    8566273  MISS:        419  HIT %:    99.9951  MISS %: 0.00489104   MPKI: 0.00838
L1I PREFETCH  REQUESTED:          0  ISSUED:          0  USEFUL:          0  USELESS:          0
L1I USEFUL LOAD PREFETCHES:          0 PREFETCH ISSUED TO LOWER LEVEL:          0  ACCURACY: -nan
L1I TIMELY PREFETCHES:          0 LATE PREFETCHES: 0 DROPPED PREFETCHES: 0
L1I PREFETCHES SAME FILL-ORIGIN LEVEL: 0 DIFFERENT FILL-ORIGIN LEVEL: 0
L1I AVERAGE MISS LATENCY: 243.632 cycles
L1I RQ	ACCESS:   12793574	FORWARD:          0	MERGED:    4226718	TO_CACHE:    8566856

BTB TOTAL     ACCESS:    3086896  HIT:    3086656  MISS:        240  HIT %:    99.9922  MISS %:  0.0077748   MPKI: 0.0048
BTB BRANCH_DIRECT_JUMP	ACCESS:        167  HIT:        144  MISS:         23
BTB BRANCH_INDIRECT	ACCESS:          0  HIT:          0  MISS:          0
BTB BRANCH_CONDITIONAL	ACCESS:    3086455  HIT:    3086363  MISS:         92
BTB BRANCH_DIRECT_CALL	ACCESS:        137  HIT:         76  MISS:         61
BTB BRANCH_INDIRECT_CALL	ACCESS:          0  HIT:          0  MISS:          0
BTB BRANCH_RETURN	ACCESS:        137  HIT:         73  MISS:         64
BTB BRANCH_OTHER ACCESS:          0  HIT:          0  MISS:          0

L2C TOTAL     ACCESS:    6114958  HIT:    4349482  MISS:    1765476  HIT %:    71.1286  MISS %:    28.8714   MPKI: 35.3095
L2C LOAD      ACCESS:      66628  HIT:      26998  MISS:      39630  HIT %:    40.5205  MISS %:    59.4795   MPKI: 0.7926
L2C DATA LOAD MPKI: 0.78422
L2C INSTRUCTION LOAD MPKI: 0.00838
L2C RFO       ACCESS:     498428  HIT:         13  MISS:     498415  HIT %:  0.0026082  MISS %:    99.9974   MPKI: 9.9683
L2C PREFETCH  ACCESS:    4843452  HIT:    3636438  MISS:    1207014  HIT %:    75.0795  MISS %:    24.9205   MPKI: 24.1403
L2C DATA PREFETCH MPKI: 24.1403
L2C INSTRUCTION PREFETCH MPKI: 0
L2C WRITEBACK ACCESS:     667380  HIT:     655755  MISS:      11625  HIT %:    98.2581  MISS %:    1.74189   MPKI: 0.2325
L2C LOAD TRANSLATION ACCESS:      39068  HIT:      30278  MISS:       8790  HIT %:    77.5008  MISS %:    22.4992   MPKI: 0.1758
L2C TRANSLATION FROM L1D PREFETCHER ACCESS:          2  HIT:          0  MISS:          2  HIT %:          0  MISS %:        100   MPKI: 4e-05
L2C PREFETCH  REQUESTED:    5466589  ISSUED:    5311965  USEFUL:      17267  USELESS:    1189939
L2C USEFUL LOAD PREFETCHES:      17267 PREFETCH ISSUED TO LOWER LEVEL:    1207794  ACCURACY: 1.42963
L2C TIMELY PREFETCHES:      17267 LATE PREFETCHES: 780 DROPPED PREFETCHES: 0
L2C PREFETCHES SAME FILL-ORIGIN LEVEL: 1019880 DIFFERENT FILL-ORIGIN LEVEL: 0
L2C AVERAGE MISS LATENCY: 408.359 cycles
L2C RQ	ACCESS:     604126	FORWARD:          0	MERGED:          0	TO_CACHE:     604126
L2C WQ	ACCESS:     667380	FORWARD:          0	MERGED:          0	TO_CACHE:     667380
L2C PQ	ACCESS:    6577469	FORWARD:          0	MERGED:     744221	TO_CACHE:    5833248

L2C Instructions Evicting Data 417
L2C Translations Evicting Data 8743
L2C Data Evicting Data 1735550
L2C Instructions Evicting Instructions 0
L2C Translations Evicting Instructions 3
L2C Data Evicting Instructions 414
L2C Instructions Evicting Translations 2
L2C Translations Evicting Translations 46
L2C Data Evicting Translations 8676
L2C Dense regions hint from L2: 0
PSCL5 TOTAL     ACCESS:      38974  HIT:      38974  MISS:          0  HIT %:        100  MISS %:          0   MPKI: 0
PSCL5 LOAD TRANSLATION ACCESS:      38973  HIT:      38973  MISS:          0  HIT %:        100  MISS %:          0   MPKI: 0
PSCL5 TRANSLATION FROM L1D PREFETCHER ACCESS:          1  HIT:          1  MISS:          0  HIT %:        100  MISS %:          0   MPKI: 0
PSCL5 PREFETCH  REQUESTED:          0  ISSUED:          0  USEFUL:          0  USELESS:          0
PSCL5 USEFUL LOAD PREFETCHES:          0 PREFETCH ISSUED TO LOWER LEVEL:          0  ACCURACY: -nan
PSCL5 TIMELY PREFETCHES:          0 LATE PREFETCHES: 0 DROPPED PREFETCHES: 0
PSCL5 PREFETCHES SAME FILL-ORIGIN LEVEL: 0 DIFFERENT FILL-ORIGIN LEVEL: 0

PSCL4 TOTAL     ACCESS:      38974  HIT:      38974  MISS:          0  HIT %:        100  MISS %:          0   MPKI: 0
PSCL4 LOAD TRANSLATION ACCESS:      38973  HIT:      38973  MISS:          0  HIT %:        100  MISS %:          0   MPKI: 0
PSCL4 TRANSLATION FROM L1D PREFETCHER ACCESS:          1  HIT:          1  MISS:          0  HIT %:        100  MISS %:          0   MPKI: 0
PSCL4 PREFETCH  REQUESTED:          0  ISSUED:          0  USEFUL:          0  USELESS:          0
PSCL4 USEFUL LOAD PREFETCHES:          0 PREFETCH ISSUED TO LOWER LEVEL:          0  ACCURACY: -nan
PSCL4 TIMELY PREFETCHES:          0 LATE PREFETCHES: 0 DROPPED PREFETCHES: 0
PSCL4 PREFETCHES SAME FILL-ORIGIN LEVEL: 0 DIFFERENT FILL-ORIGIN LEVEL: 0

PSCL3 TOTAL     ACCESS:      38974  HIT:      38973  MISS:          1  HIT %:    99.9974  MISS %: 0.00256581   MPKI: 2e-05
PSCL3 LOAD TRANSLATION ACCESS:      38973  HIT:      38972  MISS:          1  HIT %:    99.9974  MISS %: 0.00256588   MPKI: 2e-05
PSCL3 TRANSLATION FROM L1D PREFETCHER ACCESS:          1  HIT:          1  MISS:          0  HIT %:        100  MISS %:          0   MPKI: 0
PSCL3 PREFETCH  REQUESTED:          0  ISSUED:          0  USEFUL:          0  USELESS:          0
PSCL3 USEFUL LOAD PREFETCHES:          0 PREFETCH ISSUED TO LOWER LEVEL:          0  ACCURACY: -nan
PSCL3 TIMELY PREFETCHES:          0 LATE PREFETCHES: 0 DROPPED PREFETCHES: 0
PSCL3 PREFETCHES SAME FILL-ORIGIN LEVEL: 0 DIFFERENT FILL-ORIGIN LEVEL: 0

PSCL2 TOTAL     ACCESS:      38974  HIT:      38782  MISS:        192  HIT %:    99.5074  MISS %:   0.492636   MPKI: 0.00384
PSCL2 LOAD TRANSLATION ACCESS:      38974  HIT:      38782  MISS:        192  HIT %:    99.5074  MISS %:   0.492636   MPKI: 0.00384
PSCL2 PREFETCH  REQUESTED:          0  ISSUED:          0  USEFUL:          0  USELESS:          0
PSCL2 USEFUL LOAD PREFETCHES:          0 PREFETCH ISSUED TO LOWER LEVEL:          0  ACCURACY: -nan
PSCL2 TIMELY PREFETCHES:          0 LATE PREFETCHES: 0 DROPPED PREFETCHES: 0
PSCL2 PREFETCHES SAME FILL-ORIGIN LEVEL: 0 DIFFERENT FILL-ORIGIN LEVEL: 0

LLC TOTAL     ACCESS:    2419452  HIT:     668963  MISS:    1750489  HIT %:    27.6494  MISS %:    72.3506   MPKI: 35.0098
LLC LOAD      ACCESS:      38850  HIT:        355  MISS:      38495  HIT %:   0.913771  MISS %:    99.0862   MPKI: 0.7699
LLC RFO       ACCESS:     498415  HIT:          3  MISS:     498412  HIT %: 0.000601908  MISS %:    99.9994   MPKI: 9.96824
LLC PREFETCH  ACCESS:    1207794  HIT:       2915  MISS:    1204879  HIT %:   0.241349  MISS %:    99.7587   MPKI: 24.0976
LLC WRITEBACK ACCESS:     665601  HIT:     665478  MISS:        123  HIT %:    99.9815  MISS %:  0.0184795   MPKI: 0.00246
LLC LOAD TRANSLATION ACCESS:       8790  HIT:        212  MISS:       8578  HIT %:    2.41183  MISS %:    97.5882   MPKI: 0.17156
LLC TRANSLATION FROM L1D PREFETCHER ACCESS:          2  HIT:          0  MISS:          2  HIT %:          0  MISS %:        100   MPKI: 4e-05
LLC PREFETCH  REQUESTED:          0  ISSUED:          0  USEFUL:         18  USELESS:    1206449
LLC USEFUL LOAD PREFETCHES:         18 PREFETCH ISSUED TO LOWER LEVEL:    1204879  ACCURACY: 0.00149393
LLC TIMELY PREFETCHES:         18 LATE PREFETCHES: 0 DROPPED PREFETCHES: 0
LLC PREFETCHES SAME FILL-ORIGIN LEVEL: 0 DIFFERENT FILL-ORIGIN LEVEL: 0
LLC AVERAGE MISS LATENCY: 379.791 cycles
LLC RQ	ACCESS:     546057	FORWARD:          0	MERGED:          0	TO_CACHE:     546057
LLC WQ	ACCESS:     665601	FORWARD:          0	MERGED:          0	TO_CACHE:     665601
LLC PQ	ACCESS:    1207794	FORWARD:          0	MERGED:          0	TO_CACHE:    1207794

LLC Dense regions hint to LLC: 0

RAW hits: 1692
Loads Generated: 17795006
Loads sent to L1D: 17793310
Stores Generated: 5193403
Stores sent to L1D: 5193404
Major fault: 0 Minor fault: 31870
Allocated PAGES: 31870

stream: 
stream:times selected: 2135225
stream:pref_filled: 1526575
stream:pref_useful: 1441060
stream:pref_late: 25384
stream:misses: 434
stream:misses_by_poll: 0

CS: 
CS:times selected: 2085117
CS:pref_filled: 1221
CS:pref_useful: 999
CS:pref_late: 33
CS:misses: 170251
CS:misses_by_poll: 14

CPLX: 
CPLX:times selected: 49992
CPLX:pref_filled: 336
CPLX:pref_useful: 46
CPLX:pref_late: 6
CPLX:misses: 5476
CPLX:misses_by_poll: 0

NL_L1: 
NL:times selected: 80
NL:pref_filled: 3
NL:pref_useful: 3
NL:pref_late: 0
NL:misses: 3
NL:misses_by_poll: 0

total selections: 4270414
total_filled: 1239751
total_useful: 1167951
total_late: 25844
total_polluted: 14
total_misses_after_warmup: 176516
conflicts: 1078
Degree Incremented Times: 114303
Degree Decremented Times: 1177

L1 IP Table Write Accesses: 10939408
L1 IP Table Read Accesses: 10938330
L1 RST Write Accesses: 1727404
L1 RST Read Accesses: 3454808
L1 CSPT Write Accesses: 1727404
L1 CSPT Read Accesses: 1786876
L1 RR Filter Tag Write Accesses: 4482824
L1 RR Filter Tag Read Accesses: 382273760
L1 IP Table Tag Write Accesses: 10953278
L1 IP Table Tag Read Accesses: 10953278
L1 RST Tag Write Accesses: 0
L1 RST Tag Read Accesses: 15523808
L1 RR Filter Write Accesses: 0
L1 RR Filter Read Accesses: 14708449
test: 48203
L2 IP Table Read Accesses: 1950492
L2 IP Table Write Accesses: 1886562
L2 IP Table Tag Read Accesses: 976074
L2 IP Table Tag Write Accesses: 976074

DRAM Statistics
 CHANNEL 0
 RQ ROW_BUFFER_HIT:     531276  ROW_BUFFER_MISS:    1219089
 DBUS_CONGESTED:        360
 WQ ROW_BUFFER_HIT:     118487  ROW_BUFFER_MISS:     545512  FULL:          0

 AVG_CONGESTED_CYCLE: 5
 All warmup complete: 2
Channel 0 Bank busy for read cycles: 0
Channel 0 Bank busy for write cycles: 0
Channel 0
Rank 0
0banks busy for read cycles: 2456920
0banks busy for write cycles: 3703
1banks busy for read cycles: 6427077
1banks busy for write cycles: 568293
2banks busy for read cycles: 7678725
2banks busy for write cycles: 193882
3banks busy for read cycles: 5705748
3banks busy for write cycles: 128589
4banks busy for read cycles: 4744007
4banks busy for write cycles: 131768
5banks busy for read cycles: 3226683
5banks busy for write cycles: 140041
6banks busy for read cycles: 3307152
6banks busy for write cycles: 158623
7banks busy for read cycles: 5869109
7banks busy for write cycles: 890891
8banks busy for read cycles: 11122186
8banks busy for write cycles: 14327130

CPU 0 Branch Prediction Accuracy: 99.7911% MPKI: 0.12922 Average ROB Occupancy at Mispredict: 69.6999
Branch types
NOT_BRANCH: 46907122 93.8142%
BRANCH_DIRECT_JUMP: 167 0.000334%
BRANCH_INDIRECT: 0 0%
BRANCH_CONDITIONAL: 3092362 6.18472%
BRANCH_DIRECT_CALL: 137 0.000274%
BRANCH_INDIRECT_CALL: 0 0%
BRANCH_RETURN: 137 0.000274%
BRANCH_OTHER: 0 0%

@sumon_overall_L1D   1167951     25753     71789   1239751   7124202   8039347
@Sumon_Early_by_class_L1D   1167144       749        46         0
@Sumon_Late_by_class_L1D     25294        33         6         0

@Sumon_Early_by_cycle_L1D     33575     65428    183304    141567    233006    319574    183349      5090         1      3057         0         0
@Sumon_Late_by_cycle_L1D      8792     11505      4199       903       227       127         0         0         0         0         0         0
@Sumon_Early_stream_L1D     33503     65341    183159    141494    232858    319359    183288      5085         1      3056         0         0
@Sumon_Early_CS_L1D        54        79       138        64       144       209        58         2         0         1         0         0
@Sumon_Early_CPLX_L1D        17         6         2         7         4         5         2         3         0         0         0         0
@Sumon_Late_stream_L1D      8365     11489      4188       901       224       127         0         0         0         0         0         0
@Sumon_Late_CS_L1D         7        10        11         2         3         0         0         0         0         0         0         0
@Sumon_Late_CPLX_L1D         0         6         0         0         0         0         0         0         0         0         0         0
@sumon_overall_L2C     17267       780   1189939   1207016   5311965   5466589
@Sumon_Early_by_class_L2C     17186         6         0         0
@Sumon_Late_by_class_L2C       766         0         0         0

@Sumon_Early_by_cycle_L2C       335       197       406       585       619      5381      6930       331       120      2239        35        89
@Sumon_Late_by_cycle_L2C       119       335       200        69        27        30         0         0         0         0         0         0
@Sumon_Early_stream_L2C       327       188       398       579       613      5365      6920       331       119      2236        23        87
@Sumon_Early_CS_L2C         0         0         1         1         3         1         0         0         0         0         0         0
@Sumon_Early_CPLX_L2C         0         0         0         0         0         0         0         0         0         0         0         0
@Sumon_Late_stream_L2C       112       328       200        69        27        30         0         0         0         0         0         0
@Sumon_Late_CS_L2C         0         0         0         0         0         0         0         0         0         0         0         0
@Sumon_Late_CPLX_L2C         0         0         0         0         0         0         0         0         0         0         0         0
DRAM PAGES: 1048576
Allocated PAGES: 31870
