
*** ChampSim Multicore Out-of-Order Simulator ***

Warmup Instructions: 10000000
Simulation Instructions: 50000000
Number of CPUs: 1
LLC sets: 2048
LLC ways: 16
Off-chip DRAM Size: 4096 MB Channels: 1 Width: 64-bit Data Rate: 6400 MT/s
CPU 0 runs traces/SPEC2017/654.roms_s-1613B.champsimtrace.xz
.xz
CPU 0 Bimodal branch predictor
BTB has LRU replacement policy
ITLB has LRU replacement policy
DTLB has LRU replacement policy
STLB has LRU replacement policy
L1I has LRU replacement policy
IP Table Entries: 256
L1D has LRU replacement policy
IP_Table L2 entries: 256
Initialize DRRIP state for L2C
LLC has LRU replacement policy
Heartbeat CPU 0 instructions: 10000001 cycles: 2910541 heartbeat IPC: 3.43579 cumulative IPC: 3.43579 (Simulation time: 0 hr 19 min 39 sec) 

Warmup complete CPU 0 instructions: 10000001 cycles: 2910541 (Simulation time: 0 hr 19 min 39 sec) 

Heartbeat CPU 0 instructions: 20000003 cycles: 19552601 heartbeat IPC: 0.600887 cumulative IPC: 0.600887 (Simulation time: 0 hr 36 min 26 sec) 
Heartbeat CPU 0 instructions: 30000003 cycles: 36193668 heartbeat IPC: 0.600923 cumulative IPC: 0.600905 (Simulation time: 0 hr 53 min 23 sec) 
Heartbeat CPU 0 instructions: 40000000 cycles: 52838462 heartbeat IPC: 0.600788 cumulative IPC: 0.600866 (Simulation time: 1 hr 10 min 31 sec) 
Heartbeat CPU 0 instructions: 50000001 cycles: 73774062 heartbeat IPC: 0.477655 cumulative IPC: 0.564465 (Simulation time: 1 hr 32 min 8 sec) 
Heartbeat CPU 0 instructions: 60000001 cycles: 90449199 heartbeat IPC: 0.599695 cumulative IPC: 0.571176 (Simulation time: 1 hr 48 min 12 sec) 
Finished CPU 0 instructions: 50000000 cycles: 87538658 cumulative IPC: 0.571176 (Simulation time: 1 hr 48 min 12 sec) 

ChampSim completed all CPUs

Region of Interest Statistics

CPU 0 cumulative IPC: 0.571176 instructions: 50000000 cycles: 87538658
ITLB TOTAL     ACCESS:    7738586  HIT:    7738571  MISS:         15  HIT %:    99.9998  MISS %: 0.000193834   MPKI: 0.0003
ITLB LOAD TRANSLATION ACCESS:    7738586  HIT:    7738571  MISS:         15  HIT %:    99.9998  MISS %: 0.000193834   MPKI: 0.0003
ITLB PREFETCH  REQUESTED:          0  ISSUED:          0  USEFUL:          0  USELESS:          0
ITLB USEFUL LOAD PREFETCHES:          0 PREFETCH ISSUED TO LOWER LEVEL:          0  ACCURACY: -nan
ITLB TIMELY PREFETCHES:          0 LATE PREFETCHES: 0 DROPPED PREFETCHES: 0
ITLB PREFETCHES SAME FILL-ORIGIN LEVEL: 0 DIFFERENT FILL-ORIGIN LEVEL: 0
ITLB AVERAGE MISS LATENCY: 281.933 cycles
ITLB RQ	ACCESS:    9996735	FORWARD:          0	MERGED:    2258149	TO_CACHE:    7738586

DTLB TOTAL     ACCESS:   10728161  HIT:   10723324  MISS:       4837  HIT %:    99.9549  MISS %:  0.0450869   MPKI: 0.09674
DTLB LOAD TRANSLATION ACCESS:   10728161  HIT:   10723324  MISS:       4837  HIT %:    99.9549  MISS %:  0.0450869   MPKI: 0.09674
DTLB PREFETCH  REQUESTED:          0  ISSUED:          0  USEFUL:          0  USELESS:          0
DTLB USEFUL LOAD PREFETCHES:          0 PREFETCH ISSUED TO LOWER LEVEL:          0  ACCURACY: -nan
DTLB TIMELY PREFETCHES:          0 LATE PREFETCHES: 0 DROPPED PREFETCHES: 0
DTLB PREFETCHES SAME FILL-ORIGIN LEVEL: 0 DIFFERENT FILL-ORIGIN LEVEL: 0
DTLB AVERAGE MISS LATENCY: 155.712 cycles
DTLB RQ	ACCESS:   12756899	FORWARD:          0	MERGED:    2023796	TO_CACHE:   10733103

STLB TOTAL     ACCESS:     300188  HIT:     295628  MISS:       4560  HIT %:     98.481  MISS %:    1.51905   MPKI: 0.0912
STLB LOAD TRANSLATION ACCESS:       4852  HIT:        293  MISS:       4559  HIT %:    6.03875  MISS %:    93.9613   MPKI: 0.09118
STLB TRANSLATION FROM L1D PREFETCHER ACCESS:     295336  HIT:     295335  MISS:          1  HIT %:    99.9997  MISS %: 0.000338597   MPKI: 2e-05
STLB PREFETCH  REQUESTED:          0  ISSUED:          0  USEFUL:          1  USELESS:          0
STLB USEFUL LOAD PREFETCHES:          1 PREFETCH ISSUED TO LOWER LEVEL:          0  ACCURACY: inf
STLB TIMELY PREFETCHES:          1 LATE PREFETCHES: 0 DROPPED PREFETCHES: 0
STLB PREFETCHES SAME FILL-ORIGIN LEVEL: 0 DIFFERENT FILL-ORIGIN LEVEL: 0
STLB AVERAGE MISS LATENCY: 156.484 cycles
STLB RQ	ACCESS:    1305769	FORWARD:          0	MERGED:    1005580	TO_CACHE:     300189

STLB Hit, L1D data hit: 0
STLB Hit, L2C data hit: 0
STLB Hit, LLC data hit: 0
STLB Hit, LLC data miss: 0
STLB STLB hints to L2: 0
L1D TOTAL     ACCESS:   13590561  HIT:   13360191  MISS:     230370  HIT %:    98.3049  MISS %:    1.69507   MPKI: 4.6074
L1D LOAD      ACCESS:    7529069  HIT:    7521141  MISS:       7928  HIT %:    99.8947  MISS %:   0.105299   MPKI: 0.15856
L1D RFO       ACCESS:    4764744  HIT:    4676262  MISS:      88482  HIT %:     98.143  MISS %:    1.85701   MPKI: 1.76964
L1D PREFETCH  ACCESS:    1296748  HIT:    1162788  MISS:     133960  HIT %:    89.6695  MISS %:    10.3305   MPKI: 2.6792
L1D PREFETCH  REQUESTED:    2602386  ISSUED:    2601837  USEFUL:     125078  USELESS:       8888
L1D USEFUL LOAD PREFETCHES:     125078 PREFETCH ISSUED TO LOWER LEVEL:     136577  ACCURACY: 91.5806
L1D TIMELY PREFETCHES:     125078 LATE PREFETCHES: 2615 DROPPED PREFETCHES: 0
L1D PREFETCHES SAME FILL-ORIGIN LEVEL: 136577 DIFFERENT FILL-ORIGIN LEVEL: 0
L1D AVERAGE MISS LATENCY: 699886 cycles
L1D RQ	ACCESS:   10183691	FORWARD:          0	MERGED:    2636118	TO_CACHE:    7541375
L1D WQ	ACCESS:    5563751	FORWARD:       6201	MERGED:     348227	TO_CACHE:    5215524
L1D PQ	ACCESS:    1300920	FORWARD:          0	MERGED:          0	TO_CACHE:    1300917

L1D UNIQUE REGIONS ACCESSED: 0
L1D REGIONS CONFLICTS: 0
L1D Cross Page Prefetch Requests: 0
L1D Same Page Prefetch Requests: 1585899
L1D ROI Sum of L1D PQ occupancy: 18986760
L1D PREFETCHES PUSHED FROM L2C: 0
L1I TOTAL     ACCESS:    9996694  HIT:    9996517  MISS:        177  HIT %:    99.9982  MISS %: 0.00177059   MPKI: 0.00354
L1I LOAD      ACCESS:    9996694  HIT:    9996517  MISS:        177  HIT %:    99.9982  MISS %: 0.00177059   MPKI: 0.00354
L1I PREFETCH  REQUESTED:          0  ISSUED:          0  USEFUL:          0  USELESS:          0
L1I USEFUL LOAD PREFETCHES:          0 PREFETCH ISSUED TO LOWER LEVEL:          0  ACCURACY: -nan
L1I TIMELY PREFETCHES:          0 LATE PREFETCHES: 0 DROPPED PREFETCHES: 0
L1I PREFETCHES SAME FILL-ORIGIN LEVEL: 0 DIFFERENT FILL-ORIGIN LEVEL: 0
L1I AVERAGE MISS LATENCY: 181.616 cycles
L1I RQ	ACCESS:   14517336	FORWARD:          0	MERGED:    4520601	TO_CACHE:    9996735

BTB TOTAL     ACCESS:    3115019  HIT:    2767458  MISS:     347561  HIT %:    88.8424  MISS %:    11.1576   MPKI: 6.95122
BTB BRANCH_DIRECT_JUMP	ACCESS:     347719  HIT:     347681  MISS:         38
BTB BRANCH_INDIRECT	ACCESS:         16  HIT:         15  MISS:          1
BTB BRANCH_CONDITIONAL	ACCESS:    1377020  HIT:    1376893  MISS:        127
BTB BRANCH_DIRECT_CALL	ACCESS:     695131  HIT:     695086  MISS:         45
BTB BRANCH_INDIRECT_CALL	ACCESS:          0  HIT:          0  MISS:          0
BTB BRANCH_RETURN	ACCESS:     695133  HIT:     347783  MISS:     347350
BTB BRANCH_OTHER ACCESS:          0  HIT:          0  MISS:          0

L2C TOTAL     ACCESS:     752645  HIT:     512666  MISS:     239979  HIT %:    68.1152  MISS %:    31.8848   MPKI: 4.79958
L2C LOAD      ACCESS:       5490  HIT:        186  MISS:       5304  HIT %:    3.38798  MISS %:     96.612   MPKI: 0.10608
L2C DATA LOAD MPKI: 0.10254
L2C INSTRUCTION LOAD MPKI: 0.00354
L2C RFO       ACCESS:      88482  HIT:         17  MISS:      88465  HIT %:  0.0192129  MISS %:    99.9808   MPKI: 1.7693
L2C PREFETCH  ACCESS:     565593  HIT:     421939  MISS:     143654  HIT %:    74.6012  MISS %:    25.3988   MPKI: 2.87308
L2C DATA PREFETCH MPKI: 2.87308
L2C INSTRUCTION PREFETCH MPKI: 0
L2C WRITEBACK ACCESS:      88520  HIT:      86869  MISS:       1651  HIT %:    98.1349  MISS %:    1.86512   MPKI: 0.03302
L2C LOAD TRANSLATION ACCESS:       4559  HIT:       3654  MISS:        905  HIT %:    80.1492  MISS %:    19.8508   MPKI: 0.0181
L2C TRANSLATION FROM L1D PREFETCHER ACCESS:          1  HIT:          1  MISS:          0  HIT %:        100  MISS %:          0   MPKI: 0
L2C PREFETCH  REQUESTED:     604024  ISSUED:     604017  USEFUL:        202  USELESS:     142726
L2C USEFUL LOAD PREFETCHES:        202 PREFETCH ISSUED TO LOWER LEVEL:     143768  ACCURACY: 0.140504
L2C TIMELY PREFETCHES:        202 LATE PREFETCHES: 114 DROPPED PREFETCHES: 0
L2C PREFETCHES SAME FILL-ORIGIN LEVEL: 119577 DIFFERENT FILL-ORIGIN LEVEL: 0
L2C AVERAGE MISS LATENCY: 223.681 cycles
L2C RQ	ACCESS:      98532	FORWARD:          0	MERGED:          0	TO_CACHE:      98532
L2C WQ	ACCESS:      88520	FORWARD:          0	MERGED:          0	TO_CACHE:      88520
L2C PQ	ACCESS:     740592	FORWARD:          0	MERGED:      51425	TO_CACHE:     689167

L2C Instructions Evicting Data 175
L2C Translations Evicting Data 900
L2C Data Evicting Data 236063
L2C Instructions Evicting Instructions 0
L2C Translations Evicting Instructions 1
L2C Data Evicting Instructions 175
L2C Instructions Evicting Translations 2
L2C Translations Evicting Translations 3
L2C Data Evicting Translations 905
L2C Dense regions hint from L2: 0
PSCL5 TOTAL     ACCESS:       4560  HIT:       4560  MISS:          0  HIT %:        100  MISS %:          0   MPKI: 0
PSCL5 LOAD TRANSLATION ACCESS:       4559  HIT:       4559  MISS:          0  HIT %:        100  MISS %:          0   MPKI: 0
PSCL5 TRANSLATION FROM L1D PREFETCHER ACCESS:          1  HIT:          1  MISS:          0  HIT %:        100  MISS %:          0   MPKI: 0
PSCL5 PREFETCH  REQUESTED:          0  ISSUED:          0  USEFUL:          0  USELESS:          0
PSCL5 USEFUL LOAD PREFETCHES:          0 PREFETCH ISSUED TO LOWER LEVEL:          0  ACCURACY: -nan
PSCL5 TIMELY PREFETCHES:          0 LATE PREFETCHES: 0 DROPPED PREFETCHES: 0
PSCL5 PREFETCHES SAME FILL-ORIGIN LEVEL: 0 DIFFERENT FILL-ORIGIN LEVEL: 0

PSCL4 TOTAL     ACCESS:       4560  HIT:       4560  MISS:          0  HIT %:        100  MISS %:          0   MPKI: 0
PSCL4 LOAD TRANSLATION ACCESS:       4559  HIT:       4559  MISS:          0  HIT %:        100  MISS %:          0   MPKI: 0
PSCL4 TRANSLATION FROM L1D PREFETCHER ACCESS:          1  HIT:          1  MISS:          0  HIT %:        100  MISS %:          0   MPKI: 0
PSCL4 PREFETCH  REQUESTED:          0  ISSUED:          0  USEFUL:          0  USELESS:          0
PSCL4 USEFUL LOAD PREFETCHES:          0 PREFETCH ISSUED TO LOWER LEVEL:          0  ACCURACY: -nan
PSCL4 TIMELY PREFETCHES:          0 LATE PREFETCHES: 0 DROPPED PREFETCHES: 0
PSCL4 PREFETCHES SAME FILL-ORIGIN LEVEL: 0 DIFFERENT FILL-ORIGIN LEVEL: 0

PSCL3 TOTAL     ACCESS:       4560  HIT:       4558  MISS:          2  HIT %:    99.9561  MISS %:  0.0438596   MPKI: 4e-05
PSCL3 LOAD TRANSLATION ACCESS:       4559  HIT:       4557  MISS:          2  HIT %:    99.9561  MISS %:  0.0438693   MPKI: 4e-05
PSCL3 TRANSLATION FROM L1D PREFETCHER ACCESS:          1  HIT:          1  MISS:          0  HIT %:        100  MISS %:          0   MPKI: 0
PSCL3 PREFETCH  REQUESTED:          0  ISSUED:          0  USEFUL:          0  USELESS:          0
PSCL3 USEFUL LOAD PREFETCHES:          0 PREFETCH ISSUED TO LOWER LEVEL:          0  ACCURACY: -nan
PSCL3 TIMELY PREFETCHES:          0 LATE PREFETCHES: 0 DROPPED PREFETCHES: 0
PSCL3 PREFETCHES SAME FILL-ORIGIN LEVEL: 0 DIFFERENT FILL-ORIGIN LEVEL: 0

PSCL2 TOTAL     ACCESS:       4560  HIT:       4545  MISS:         15  HIT %:    99.6711  MISS %:   0.328947   MPKI: 0.0003
PSCL2 LOAD TRANSLATION ACCESS:       4559  HIT:       4544  MISS:         15  HIT %:     99.671  MISS %:    0.32902   MPKI: 0.0003
PSCL2 TRANSLATION FROM L1D PREFETCHER ACCESS:          1  HIT:          1  MISS:          0  HIT %:        100  MISS %:          0   MPKI: 0
PSCL2 PREFETCH  REQUESTED:          0  ISSUED:          0  USEFUL:          0  USELESS:          0
PSCL2 USEFUL LOAD PREFETCHES:          0 PREFETCH ISSUED TO LOWER LEVEL:          0  ACCURACY: -nan
PSCL2 TIMELY PREFETCHES:          0 LATE PREFETCHES: 0 DROPPED PREFETCHES: 0
PSCL2 PREFETCHES SAME FILL-ORIGIN LEVEL: 0 DIFFERENT FILL-ORIGIN LEVEL: 0

LLC TOTAL     ACCESS:     327444  HIT:      89009  MISS:     238435  HIT %:     27.183  MISS %:     72.817   MPKI: 4.7687
LLC LOAD      ACCESS:       5190  HIT:          2  MISS:       5188  HIT %:  0.0385356  MISS %:    99.9615   MPKI: 0.10376
LLC RFO       ACCESS:      88465  HIT:          1  MISS:      88464  HIT %: 0.00113039  MISS %:    99.9989   MPKI: 1.76928
LLC PREFETCH  ACCESS:     143768  HIT:         88  MISS:     143680  HIT %:  0.0612097  MISS %:    99.9388   MPKI: 2.8736
LLC WRITEBACK ACCESS:      89116  HIT:      88907  MISS:        209  HIT %:    99.7655  MISS %:   0.234526   MPKI: 0.00418
LLC LOAD TRANSLATION ACCESS:        905  HIT:         11  MISS:        894  HIT %:    1.21547  MISS %:    98.7845   MPKI: 0.01788
LLC PREFETCH  REQUESTED:          0  ISSUED:          0  USEFUL:          2  USELESS:     130286
LLC USEFUL LOAD PREFETCHES:          2 PREFETCH ISSUED TO LOWER LEVEL:     143680  ACCURACY: 0.00139198
LLC TIMELY PREFETCHES:          2 LATE PREFETCHES: 0 DROPPED PREFETCHES: 0
LLC PREFETCHES SAME FILL-ORIGIN LEVEL: 0 DIFFERENT FILL-ORIGIN LEVEL: 0
LLC AVERAGE MISS LATENCY: 194.035 cycles
LLC RQ	ACCESS:      94560	FORWARD:          0	MERGED:          0	TO_CACHE:      94560
LLC WQ	ACCESS:      89116	FORWARD:          0	MERGED:          0	TO_CACHE:      89116
LLC PQ	ACCESS:     143768	FORWARD:          0	MERGED:          0	TO_CACHE:     143768

LLC Dense regions hint to LLC: 0

RAW hits: 1383386
Loads Generated: 11567078
Loads sent to L1D: 10183691
Stores Generated: 5563751
Stores sent to L1D: 5563751
Major fault: 0 Minor fault: 4303
Allocated PAGES: 4303

stream: 
stream:times selected: 1109941
stream:pref_filled: 136296
stream:pref_useful: 127280
stream:pref_late: 2553
stream:misses: 33
stream:misses_by_poll: 0

CS: 
CS:times selected: 237441
CS:pref_filled: 4779
CS:pref_useful: 4670
CS:pref_late: 11
CS:misses: 19783
CS:misses_by_poll: 12

CPLX: 
CPLX:times selected: 872416
CPLX:pref_filled: 246
CPLX:pref_useful: 22
CPLX:pref_late: 4
CPLX:misses: 635
CPLX:misses_by_poll: 0

NL_L1: 
NL:times selected: 9
NL:pref_filled: 3
NL:pref_useful: 3
NL:pref_late: 0
NL:misses: 0
NL:misses_by_poll: 0

total selections: 2219807
total_filled: 133960
total_useful: 125078
total_late: 2618
total_polluted: 12
total_misses_after_warmup: 20233
conflicts: 389
Degree Incremented Times: 43714
Degree Decremented Times: 0

L1 IP Table Write Accesses: 7193066
L1 IP Table Read Accesses: 7192677
L1 RST Write Accesses: 889376
L1 RST Read Accesses: 1778752
L1 CSPT Write Accesses: 889376
L1 CSPT Read Accesses: 2853859
L1 RR Filter Tag Write Accesses: 1301469
L1 RR Filter Tag Read Accesses: 156573916
L1 IP Table Tag Write Accesses: 7541374
L1 IP Table Tag Read Accesses: 7541374
L1 RST Tag Write Accesses: 0
L1 RST Tag Read Accesses: 9040195
L1 RR Filter Write Accesses: 0
L1 RR Filter Read Accesses: 7212778
test: 469902
L2 IP Table Read Accesses: 219210
L2 IP Table Write Accesses: 214042
L2 IP Table Tag Read Accesses: 109649
L2 IP Table Tag Write Accesses: 109649

DRAM Statistics
 CHANNEL 0
 RQ ROW_BUFFER_HIT:      80883  ROW_BUFFER_MISS:     157343
 DBUS_CONGESTED:        148
 WQ ROW_BUFFER_HIT:      13135  ROW_BUFFER_MISS:      69544  FULL:          0

 AVG_CONGESTED_CYCLE: 5
 All warmup complete: 2
Channel 0 Bank busy for read cycles: 0
Channel 0 Bank busy for write cycles: 0
Channel 0
Rank 0
0banks busy for read cycles: 73060085
0banks busy for write cycles: 9686
1banks busy for read cycles: 5586512
1banks busy for write cycles: 1495610
2banks busy for read cycles: 2081977
2banks busy for write cycles: 66302
3banks busy for read cycles: 871455
3banks busy for write cycles: 27756
4banks busy for read cycles: 493968
4banks busy for write cycles: 23881
5banks busy for read cycles: 302979
5banks busy for write cycles: 23554
6banks busy for read cycles: 401345
6banks busy for write cycles: 23986
7banks busy for read cycles: 618946
7banks busy for write cycles: 111897
8banks busy for read cycles: 724181
8banks busy for write cycles: 1614539

CPU 0 Branch Prediction Accuracy: 99.9515% MPKI: 0.04976 Average ROB Occupancy at Mispredict: 20.3131
Branch types
NOT_BRANCH: 44864579 89.7292%
BRANCH_DIRECT_JUMP: 347719 0.695438%
BRANCH_INDIRECT: 16 3.2e-05%
BRANCH_CONDITIONAL: 3397101 6.7942%
BRANCH_DIRECT_CALL: 695131 1.39026%
BRANCH_INDIRECT_CALL: 0 0%
BRANCH_RETURN: 695133 1.39027%
BRANCH_OTHER: 0 0%

@sumon_overall_L1D    125078      2615      8888    133960   2601837   2602386
@Sumon_Early_by_class_L1D    121082      3973        22         0
@Sumon_Late_by_class_L1D      2552         9         4         0

@Sumon_Early_by_cycle_L1D      4162      8108     13798     39329     29953      8198       339       378      4388     16395         2        28
@Sumon_Late_by_cycle_L1D      1015      1083       442        64         9         2         0         0         0         0         0         0
@Sumon_Early_stream_L1D      4125      8075     13755     39265     29004      8195       337       349      1559     16393         2        23
@Sumon_Early_CS_L1D        28        30        42        62       949         3         1        29      2829         0         0         0
@Sumon_Early_CPLX_L1D         9         3         1         1         0         0         1         0         0         2         0         5
@Sumon_Late_stream_L1D       957      1081       439        64         9         2         0         0         0         0         0         0
@Sumon_Late_CS_L1D         7         2         0         0         0         0         0         0         0         0         0         0
@Sumon_Late_CPLX_L1D         1         0         3         0         0         0         0         0         0         0         0         0
@sumon_overall_L2C       202       114    142726    143654    604017    604024
@Sumon_Early_by_class_L2C       174        20         5         0
@Sumon_Late_by_class_L2C       111         1         0         0

@Sumon_Early_by_cycle_L2C         5         6         2         6         6        13        18         9        11       107         0        19
@Sumon_Late_by_cycle_L2C         9        48        50         7         0         0         0         0         0         0         0         0
@Sumon_Early_stream_L2C         5         6         2         5         3        10        17         8         0       104         0        14
@Sumon_Early_CS_L2C         0         0         0         1         3         2         1         1         9         3         0         0
@Sumon_Early_CPLX_L2C         0         0         0         0         0         0         0         0         0         0         0         5
@Sumon_Late_stream_L2C         6        48        50         7         0         0         0         0         0         0         0         0
@Sumon_Late_CS_L2C         1         0         0         0         0         0         0         0         0         0         0         0
@Sumon_Late_CPLX_L2C         0         0         0         0         0         0         0         0         0         0         0         0
DRAM PAGES: 1048576
Allocated PAGES: 4303
