
*** ChampSim Multicore Out-of-Order Simulator ***

Warmup Instructions: 10000000
Simulation Instructions: 50000000
Number of CPUs: 1
LLC sets: 2048
LLC ways: 16
Off-chip DRAM Size: 4096 MB Channels: 1 Width: 64-bit Data Rate: 6400 MT/s
CPU 0 runs traces/SPEC2017/603.bwaves_s-2609B.champsimtrace.xz
.xz
CPU 0 Bimodal branch predictor
BTB has LRU replacement policy
ITLB has LRU replacement policy
DTLB has LRU replacement policy
STLB has LRU replacement policy
L1I has LRU replacement policy
IP Table Entries: 256
Initialize DRRIP state for L1D
IP_Table L2 entries: 256
L2C has LRU replacement policy
LLC has LRU replacement policy
Heartbeat CPU 0 instructions: 10000001 cycles: 3310362 heartbeat IPC: 3.02082 cumulative IPC: 3.02082 (Simulation time: 0 hr 14 min 6 sec) 

Warmup complete CPU 0 instructions: 10000001 cycles: 3310362 (Simulation time: 0 hr 14 min 6 sec) 

Heartbeat CPU 0 instructions: 20000001 cycles: 16426984 heartbeat IPC: 0.762391 cumulative IPC: 0.762391 (Simulation time: 0 hr 24 min 31 sec) 
Heartbeat CPU 0 instructions: 30000001 cycles: 29616086 heartbeat IPC: 0.758202 cumulative IPC: 0.760291 (Simulation time: 0 hr 34 min 46 sec) 
Heartbeat CPU 0 instructions: 40000000 cycles: 42806217 heartbeat IPC: 0.758143 cumulative IPC: 0.759573 (Simulation time: 0 hr 45 min 7 sec) 
Heartbeat CPU 0 instructions: 50000002 cycles: 56013822 heartbeat IPC: 0.75714 cumulative IPC: 0.758963 (Simulation time: 0 hr 54 min 49 sec) 
Heartbeat CPU 0 instructions: 60000000 cycles: 69198400 heartbeat IPC: 0.758462 cumulative IPC: 0.758863 (Simulation time: 1 hr 2 min 7 sec) 
Finished CPU 0 instructions: 50000001 cycles: 65888039 cumulative IPC: 0.758863 (Simulation time: 1 hr 2 min 7 sec) 

ChampSim completed all CPUs

Region of Interest Statistics

CPU 0 cumulative IPC: 0.758863 instructions: 50000001 cycles: 65888039
ITLB TOTAL     ACCESS:    6356449  HIT:    6356449  MISS:          0  HIT %:        100  MISS %:          0   MPKI: 0
ITLB LOAD TRANSLATION ACCESS:    6356449  HIT:    6356449  MISS:          0  HIT %:        100  MISS %:          0   MPKI: 0
ITLB PREFETCH  REQUESTED:          0  ISSUED:          0  USEFUL:          0  USELESS:          0
ITLB USEFUL LOAD PREFETCHES:          0 PREFETCH ISSUED TO LOWER LEVEL:          0  ACCURACY: -nan
ITLB TIMELY PREFETCHES:          0 LATE PREFETCHES: 0 DROPPED PREFETCHES: 0
ITLB PREFETCHES SAME FILL-ORIGIN LEVEL: 0 DIFFERENT FILL-ORIGIN LEVEL: 0
ITLB AVERAGE MISS LATENCY: -nan cycles
ITLB RQ	ACCESS:    8463016	FORWARD:          0	MERGED:    2106567	TO_CACHE:    6356449

DTLB TOTAL     ACCESS:   16328384  HIT:   16294566  MISS:      33818  HIT %:    99.7929  MISS %:   0.207112   MPKI: 0.67636
DTLB LOAD TRANSLATION ACCESS:   16328384  HIT:   16294566  MISS:      33818  HIT %:    99.7929  MISS %:   0.207112   MPKI: 0.67636
DTLB PREFETCH  REQUESTED:          0  ISSUED:          0  USEFUL:          0  USELESS:          0
DTLB USEFUL LOAD PREFETCHES:          0 PREFETCH ISSUED TO LOWER LEVEL:          0  ACCURACY: -nan
DTLB TIMELY PREFETCHES:          0 LATE PREFETCHES: 0 DROPPED PREFETCHES: 0
DTLB PREFETCHES SAME FILL-ORIGIN LEVEL: 0 DIFFERENT FILL-ORIGIN LEVEL: 0
DTLB AVERAGE MISS LATENCY: 225.261 cycles
DTLB RQ	ACCESS:   18972667	FORWARD:          0	MERGED:    2639180	TO_CACHE:   16333487

STLB TOTAL     ACCESS:    3968630  HIT:    3953787  MISS:      14843  HIT %:     99.626  MISS %:   0.374008   MPKI: 0.29686
STLB LOAD TRANSLATION ACCESS:      33818  HIT:      18975  MISS:      14843  HIT %:    56.1092  MISS %:    43.8908   MPKI: 0.29686
STLB TRANSLATION FROM L1D PREFETCHER ACCESS:    3934812  HIT:    3934812  MISS:          0  HIT %:        100  MISS %:          0   MPKI: 0
STLB PREFETCH  REQUESTED:          0  ISSUED:          0  USEFUL:          0  USELESS:          0
STLB USEFUL LOAD PREFETCHES:          0 PREFETCH ISSUED TO LOWER LEVEL:          0  ACCURACY: -nan
STLB TIMELY PREFETCHES:          0 LATE PREFETCHES: 0 DROPPED PREFETCHES: 0
STLB PREFETCHES SAME FILL-ORIGIN LEVEL: 0 DIFFERENT FILL-ORIGIN LEVEL: 0
STLB AVERAGE MISS LATENCY: 466.487 cycles
STLB RQ	ACCESS:    4965907	FORWARD:          0	MERGED:     997278	TO_CACHE:    3968629

STLB Hit, L1D data hit: 0
STLB Hit, L2C data hit: 0
STLB Hit, LLC data hit: 0
STLB Hit, LLC data miss: 0
STLB STLB hints to L2: 0
L1D TOTAL     ACCESS:   23100992  HIT:   19165764  MISS:    3935228  HIT %:    82.9651  MISS %:    17.0349   MPKI: 78.7046
L1D LOAD      ACCESS:   15969845  HIT:   13506233  MISS:    2463612  HIT %:    84.5734  MISS %:    15.4266   MPKI: 49.2722
L1D RFO       ACCESS:    2807078  HIT:    2782008  MISS:      25070  HIT %:    99.1069  MISS %:     0.8931   MPKI: 0.5014
L1D PREFETCH  ACCESS:    4324069  HIT:    2877523  MISS:    1446546  HIT %:    66.5466  MISS %:    33.4534   MPKI: 28.9309
L1D PREFETCH  REQUESTED:    9887616  ISSUED:    9864178  USEFUL:     368883  USELESS:    1077670
L1D USEFUL LOAD PREFETCHES:     368883 PREFETCH ISSUED TO LOWER LEVEL:    1886931  ACCURACY: 19.5494
L1D TIMELY PREFETCHES:     368883 LATE PREFETCHES: 440389 DROPPED PREFETCHES: 0
L1D PREFETCHES SAME FILL-ORIGIN LEVEL: 1886931 DIFFERENT FILL-ORIGIN LEVEL: 0
L1D AVERAGE MISS LATENCY: 4.05494e+06 cycles
L1D RQ	ACCESS:   21266126	FORWARD:          0	MERGED:    5040731	TO_CACHE:   16156003
L1D WQ	ACCESS:    2816699	FORWARD:      69392	MERGED:         35	TO_CACHE:    2816664
L1D PQ	ACCESS:    4932089	FORWARD:          0	MERGED:          0	TO_CACHE:    4932089

L1D UNIQUE REGIONS ACCESSED: 0
L1D REGIONS CONFLICTS: 0
L1D Cross Page Prefetch Requests: 0
L1D Same Page Prefetch Requests: 5870999
L1D ROI Sum of L1D PQ occupancy: 90393720
L1D PREFETCHES PUSHED FROM L2C: 0
L1I TOTAL     ACCESS:    8463016  HIT:    8463016  MISS:          0  HIT %:        100  MISS %:          0   MPKI: 0
L1I LOAD      ACCESS:    8463016  HIT:    8463016  MISS:          0  HIT %:        100  MISS %:          0   MPKI: 0
L1I PREFETCH  REQUESTED:          0  ISSUED:          0  USEFUL:          0  USELESS:          0
L1I USEFUL LOAD PREFETCHES:          0 PREFETCH ISSUED TO LOWER LEVEL:          0  ACCURACY: -nan
L1I TIMELY PREFETCHES:          0 LATE PREFETCHES: 0 DROPPED PREFETCHES: 0
L1I PREFETCHES SAME FILL-ORIGIN LEVEL: 0 DIFFERENT FILL-ORIGIN LEVEL: 0
L1I AVERAGE MISS LATENCY: -nan cycles
L1I RQ	ACCESS:   11737573	FORWARD:          0	MERGED:    3274557	TO_CACHE:    8463016

BTB TOTAL     ACCESS:    1208719  HIT:    1208714  MISS:          5  HIT %:    99.9996  MISS %: 0.000413661   MPKI: 0.0001
BTB BRANCH_DIRECT_JUMP	ACCESS:          0  HIT:          0  MISS:          0
BTB BRANCH_INDIRECT	ACCESS:          0  HIT:          0  MISS:          0
BTB BRANCH_CONDITIONAL	ACCESS:    1208719  HIT:    1208714  MISS:          5
BTB BRANCH_DIRECT_CALL	ACCESS:          0  HIT:          0  MISS:          0
BTB BRANCH_INDIRECT_CALL	ACCESS:          0  HIT:          0  MISS:          0
BTB BRANCH_RETURN	ACCESS:          0  HIT:          0  MISS:          0
BTB BRANCH_OTHER ACCESS:          0  HIT:          0  MISS:          0

L2C TOTAL     ACCESS:    3975557  HIT:    3023519  MISS:     952038  HIT %:    76.0527  MISS %:    23.9473   MPKI: 19.0408
L2C LOAD      ACCESS:    2023221  HIT:    1982446  MISS:      40775  HIT %:    97.9846  MISS %:    2.01535   MPKI: 0.8155
L2C DATA LOAD MPKI: 0.8155
L2C INSTRUCTION LOAD MPKI: 0
L2C RFO       ACCESS:      25067  HIT:        705  MISS:      24362  HIT %:    2.81246  MISS %:    97.1875   MPKI: 0.48724
L2C PREFETCH  ACCESS:    1886934  HIT:    1001940  MISS:     884994  HIT %:    53.0988  MISS %:    46.9012   MPKI: 17.6999
L2C DATA PREFETCH MPKI: 17.6999
L2C INSTRUCTION PREFETCH MPKI: 0
L2C WRITEBACK ACCESS:      25490  HIT:      25470  MISS:         20  HIT %:    99.9215  MISS %:  0.0784621   MPKI: 0.0004
L2C LOAD TRANSLATION ACCESS:      14845  HIT:      12958  MISS:       1887  HIT %:    87.2886  MISS %:    12.7114   MPKI: 0.03774
L2C PREFETCH  REQUESTED:          0  ISSUED:          0  USEFUL:     496145  USELESS:     388057
L2C USEFUL LOAD PREFETCHES:     496145 PREFETCH ISSUED TO LOWER LEVEL:     884994  ACCURACY: 56.062
L2C TIMELY PREFETCHES:     496145 LATE PREFETCHES: 0 DROPPED PREFETCHES: 0
L2C PREFETCHES SAME FILL-ORIGIN LEVEL: 0 DIFFERENT FILL-ORIGIN LEVEL: 0
L2C AVERAGE MISS LATENCY: 300.28 cycles
L2C RQ	ACCESS:    2063137	FORWARD:          0	MERGED:          0	TO_CACHE:    2063133
L2C WQ	ACCESS:      25490	FORWARD:          4	MERGED:          0	TO_CACHE:      25490
L2C PQ	ACCESS:    1886931	FORWARD:          0	MERGED:          0	TO_CACHE:    1886931

L2C Instructions Evicting Data 0
L2C Translations Evicting Data 1886
L2C Data Evicting Data 948246
L2C Instructions Evicting Instructions 0
L2C Translations Evicting Instructions 0
L2C Data Evicting Instructions 0
L2C Instructions Evicting Translations 0
L2C Translations Evicting Translations 1
L2C Data Evicting Translations 1885
L2C Dense regions hint from L2: 0
PSCL5 TOTAL     ACCESS:      14843  HIT:      14843  MISS:          0  HIT %:        100  MISS %:          0   MPKI: 0
PSCL5 LOAD TRANSLATION ACCESS:      14843  HIT:      14843  MISS:          0  HIT %:        100  MISS %:          0   MPKI: 0
PSCL5 PREFETCH  REQUESTED:          0  ISSUED:          0  USEFUL:          0  USELESS:          0
PSCL5 USEFUL LOAD PREFETCHES:          0 PREFETCH ISSUED TO LOWER LEVEL:          0  ACCURACY: -nan
PSCL5 TIMELY PREFETCHES:          0 LATE PREFETCHES: 0 DROPPED PREFETCHES: 0
PSCL5 PREFETCHES SAME FILL-ORIGIN LEVEL: 0 DIFFERENT FILL-ORIGIN LEVEL: 0

PSCL4 TOTAL     ACCESS:      14843  HIT:      14843  MISS:          0  HIT %:        100  MISS %:          0   MPKI: 0
PSCL4 LOAD TRANSLATION ACCESS:      14843  HIT:      14843  MISS:          0  HIT %:        100  MISS %:          0   MPKI: 0
PSCL4 PREFETCH  REQUESTED:          0  ISSUED:          0  USEFUL:          0  USELESS:          0
PSCL4 USEFUL LOAD PREFETCHES:          0 PREFETCH ISSUED TO LOWER LEVEL:          0  ACCURACY: -nan
PSCL4 TIMELY PREFETCHES:          0 LATE PREFETCHES: 0 DROPPED PREFETCHES: 0
PSCL4 PREFETCHES SAME FILL-ORIGIN LEVEL: 0 DIFFERENT FILL-ORIGIN LEVEL: 0

PSCL3 TOTAL     ACCESS:      14843  HIT:      14843  MISS:          0  HIT %:        100  MISS %:          0   MPKI: 0
PSCL3 LOAD TRANSLATION ACCESS:      14843  HIT:      14843  MISS:          0  HIT %:        100  MISS %:          0   MPKI: 0
PSCL3 PREFETCH  REQUESTED:          0  ISSUED:          0  USEFUL:          0  USELESS:          0
PSCL3 USEFUL LOAD PREFETCHES:          0 PREFETCH ISSUED TO LOWER LEVEL:          0  ACCURACY: -nan
PSCL3 TIMELY PREFETCHES:          0 LATE PREFETCHES: 0 DROPPED PREFETCHES: 0
PSCL3 PREFETCHES SAME FILL-ORIGIN LEVEL: 0 DIFFERENT FILL-ORIGIN LEVEL: 0

PSCL2 TOTAL     ACCESS:      14843  HIT:      14812  MISS:         31  HIT %:    99.7911  MISS %:   0.208853   MPKI: 0.00062
PSCL2 LOAD TRANSLATION ACCESS:      14843  HIT:      14812  MISS:         31  HIT %:    99.7911  MISS %:   0.208853   MPKI: 0.00062
PSCL2 PREFETCH  REQUESTED:          0  ISSUED:          0  USEFUL:          0  USELESS:          0
PSCL2 USEFUL LOAD PREFETCHES:          0 PREFETCH ISSUED TO LOWER LEVEL:          0  ACCURACY: -nan
PSCL2 TIMELY PREFETCHES:          0 LATE PREFETCHES: 0 DROPPED PREFETCHES: 0
PSCL2 PREFETCHES SAME FILL-ORIGIN LEVEL: 0 DIFFERENT FILL-ORIGIN LEVEL: 0

LLC TOTAL     ACCESS:     976394  HIT:      24364  MISS:     952030  HIT %:     2.4953  MISS %:    97.5047   MPKI: 19.0406
LLC LOAD      ACCESS:      40775  HIT:          0  MISS:      40775  HIT %:          0  MISS %:        100   MPKI: 0.8155
LLC RFO       ACCESS:      24362  HIT:          0  MISS:      24362  HIT %:          0  MISS %:        100   MPKI: 0.48724
LLC PREFETCH  ACCESS:     884994  HIT:          0  MISS:     884994  HIT %:          0  MISS %:        100   MPKI: 17.6999
LLC WRITEBACK ACCESS:      24376  HIT:      24364  MISS:         12  HIT %:    99.9508  MISS %:  0.0492287   MPKI: 0.00024
LLC LOAD TRANSLATION ACCESS:       1887  HIT:          0  MISS:       1887  HIT %:          0  MISS %:        100   MPKI: 0.03774
LLC PREFETCH  REQUESTED:          0  ISSUED:          0  USEFUL:          0  USELESS:     885577
LLC USEFUL LOAD PREFETCHES:          0 PREFETCH ISSUED TO LOWER LEVEL:     884994  ACCURACY: 0
LLC TIMELY PREFETCHES:          0 LATE PREFETCHES: 0 DROPPED PREFETCHES: 0
LLC PREFETCHES SAME FILL-ORIGIN LEVEL: 0 DIFFERENT FILL-ORIGIN LEVEL: 0
LLC AVERAGE MISS LATENCY: 269.508 cycles
LLC RQ	ACCESS:      67024	FORWARD:          0	MERGED:          0	TO_CACHE:      67024
LLC WQ	ACCESS:      24376	FORWARD:          0	MERGED:          0	TO_CACHE:      24376
LLC PQ	ACCESS:     884994	FORWARD:          0	MERGED:          0	TO_CACHE:     884994

LLC Dense regions hint to LLC: 0

RAW hits: 223891
Loads Generated: 21490015
Loads sent to L1D: 21266126
Stores Generated: 2816699
Stores sent to L1D: 2816699
Major fault: 0 Minor fault: 17250
Allocated PAGES: 17250

stream: 
stream:times selected: 6909604
stream:pref_filled: 1596217
stream:pref_useful: 411140
stream:pref_late: 440533
stream:misses: 8167
stream:misses_by_poll: 0

CS: 
CS:times selected: 6583872
CS:pref_filled: 41233
CS:pref_useful: 8934
CS:pref_late: 2776
CS:misses: 18733
CS:misses_by_poll: 169

CPLX: 
CPLX:times selected: 6908786
CPLX:pref_filled: 231167
CPLX:pref_useful: 23300
CPLX:pref_late: 1877
CPLX:misses: 3171721
CPLX:misses_by_poll: 835

NL_L1: 
NL:times selected: 377
NL:pref_filled: 101
NL:pref_useful: 7
NL:pref_late: 4
NL:misses: 217
NL:misses_by_poll: 0

total selections: 20402639
total_filled: 1446546
total_useful: 368883
total_late: 454367
total_polluted: 1004
total_misses_after_warmup: 2649775
conflicts: 8
Degree Incremented Times: 0
Degree Decremented Times: 230408

L1 IP Table Write Accesses: 16155143
L1 IP Table Read Accesses: 16155135
L1 RST Write Accesses: 5780065
L1 RST Read Accesses: 11560130
L1 CSPT Write Accesses: 5780065
L1 CSPT Read Accesses: 11560113
L1 RR Filter Tag Write Accesses: 4955527
L1 RR Filter Tag Read Accesses: 429658273
L1 IP Table Tag Write Accesses: 16156008
L1 IP Table Tag Read Accesses: 16156008
L1 RST Tag Write Accesses: 0
L1 RST Tag Read Accesses: 52025461
L1 RR Filter Write Accesses: 0
L1 RR Filter Read Accesses: 16699226
test: 136420
L2 IP Table Read Accesses: 7819742
L2 IP Table Write Accesses: 5796521
L2 IP Table Tag Read Accesses: 3909871
L2 IP Table Tag Write Accesses: 3909871

DRAM Statistics
 CHANNEL 0
 RQ ROW_BUFFER_HIT:     729182  ROW_BUFFER_MISS:     222835
 DBUS_CONGESTED:         51
 WQ ROW_BUFFER_HIT:       1913  ROW_BUFFER_MISS:      22491  FULL:          0

 AVG_CONGESTED_CYCLE: 3
 All warmup complete: 2
Channel 0 Bank busy for read cycles: 0
Channel 0 Bank busy for write cycles: 0
Channel 0
Rank 0
0banks busy for read cycles: 26646172
0banks busy for write cycles: 9793
1banks busy for read cycles: 17661030
1banks busy for write cycles: 641728
2banks busy for read cycles: 9791476
2banks busy for write cycles: 240265
3banks busy for read cycles: 7780417
3banks busy for write cycles: 838886
4banks busy for read cycles: 1609284
4banks busy for write cycles: 81428
5banks busy for read cycles: 556632
5banks busy for write cycles: 11963
6banks busy for read cycles: 13312
6banks busy for write cycles: 2612
7banks busy for read cycles: 141
7banks busy for write cycles: 1147
8banks busy for read cycles: 0
8banks busy for write cycles: 1754

CPU 0 Branch Prediction Accuracy: 81.2316% MPKI: 4.68482 Average ROB Occupancy at Mispredict: 82.8122
Branch types
NOT_BRANCH: 48751584 97.5032%
BRANCH_DIRECT_JUMP: 0 0%
BRANCH_INDIRECT: 0 0%
BRANCH_CONDITIONAL: 1248063 2.49613%
BRANCH_DIRECT_CALL: 0 0%
BRANCH_INDIRECT_CALL: 0 0%
BRANCH_RETURN: 0 0%
BRANCH_OTHER: 0 0%

@sumon_overall_L1D    368883    440389   1077670   1446546   9864178   9887616
@Sumon_Early_by_class_L1D    339402      7873     21608         0
@Sumon_Late_by_class_L1D    427499      2384      1804         0

@Sumon_Early_by_cycle_L1D    118505     42533     40584     26809     15910     60101     62349       115      1973         4         0         0
@Sumon_Late_by_cycle_L1D     71367    137031    203488     28464        39         0         0         0         0         0         0         0
@Sumon_Early_stream_L1D    100183     38769     38022     26242     15679     59194     61214        99         0         0         0         0
@Sumon_Early_CS_L1D      4684       515       323       286       169       851      1042         3         0         0         0         0
@Sumon_Early_CPLX_L1D     13638      3249      2239       281        62        56        93        13      1973         4         0         0
@Sumon_Late_stream_L1D     61183    135982    202013     28282        39         0         0         0         0         0         0         0
@Sumon_Late_CS_L1D      1208       473       643        60         0         0         0         0         0         0         0         0
@Sumon_Late_CPLX_L1D       274       576       832       122         0         0         0         0         0         0         0         0
@sumon_overall_L2C    496145         0    388057    884994         0         0
@Sumon_Early_by_class_L2C    476722      2457     16966         0
@Sumon_Late_by_class_L2C         0         0         0         0

@Sumon_Early_by_cycle_L2C      8085     78783    190246     91285     35737     69336      3464         4     15799         2        10      3394
@Sumon_Late_by_cycle_L2C         0         0         0         0         0         0         0         0         0         0         0         0
@Sumon_Early_stream_L2C      8041     78478    189162     90611     35352     68608      3372         4         0         0         1      3093
@Sumon_Early_CS_L2C        19       181       637       477       347       706        50         0         0         0         0        40
@Sumon_Early_CPLX_L2C        25       124       447       197        38        22        42         0     15799         2         9       261
@Sumon_Late_stream_L2C         0         0         0         0         0         0         0         0         0         0         0         0
@Sumon_Late_CS_L2C         0         0         0         0         0         0         0         0         0         0         0         0
@Sumon_Late_CPLX_L2C         0         0         0         0         0         0         0         0         0         0         0         0
DRAM PAGES: 1048576
Allocated PAGES: 17250
