
*** ChampSim Multicore Out-of-Order Simulator ***

Warmup Instructions: 10000000
Simulation Instructions: 50000000
Number of CPUs: 1
LLC sets: 2048
LLC ways: 16
Off-chip DRAM Size: 4096 MB Channels: 1 Width: 64-bit Data Rate: 6400 MT/s
CPU 0 runs traces/SPEC2017/619.lbm_s-2676B.champsimtrace.xz
.xz
CPU 0 Bimodal branch predictor
BTB has LRU replacement policy
ITLB has LRU replacement policy
DTLB has LRU replacement policy
STLB has LRU replacement policy
L1I has LRU replacement policy
IP Table Entries: 256
Initialize DRRIP state for L1D
IP_Table L2 entries: 256
L2C has LRU replacement policy
LLC has LRU replacement policy
Heartbeat CPU 0 instructions: 10000003 cycles: 2896879 heartbeat IPC: 3.45199 cumulative IPC: 3.45199 (Simulation time: 0 hr 10 min 2 sec) 

Warmup complete CPU 0 instructions: 10000003 cycles: 2896879 (Simulation time: 0 hr 10 min 2 sec) 

Heartbeat CPU 0 instructions: 20000001 cycles: 21428515 heartbeat IPC: 0.539618 cumulative IPC: 0.539618 (Simulation time: 0 hr 32 min 0 sec) 
Heartbeat CPU 0 instructions: 30000002 cycles: 39681417 heartbeat IPC: 0.547858 cumulative IPC: 0.543707 (Simulation time: 0 hr 53 min 6 sec) 
Heartbeat CPU 0 instructions: 40000002 cycles: 56936968 heartbeat IPC: 0.579524 cumulative IPC: 0.555143 (Simulation time: 1 hr 5 min 35 sec) 
Heartbeat CPU 0 instructions: 50000003 cycles: 73490020 heartbeat IPC: 0.604118 cumulative IPC: 0.566627 (Simulation time: 1 hr 11 min 8 sec) 
Heartbeat CPU 0 instructions: 60000001 cycles: 89294855 heartbeat IPC: 0.632718 cumulative IPC: 0.578717 (Simulation time: 1 hr 14 min 46 sec) 
Finished CPU 0 instructions: 50000002 cycles: 86397977 cumulative IPC: 0.578717 (Simulation time: 1 hr 14 min 46 sec) 

ChampSim completed all CPUs

Region of Interest Statistics

CPU 0 cumulative IPC: 0.578717 instructions: 50000002 cycles: 86397977
ITLB TOTAL     ACCESS:    6658909  HIT:    6658909  MISS:          0  HIT %:        100  MISS %:          0   MPKI: 0
ITLB LOAD TRANSLATION ACCESS:    6658909  HIT:    6658909  MISS:          0  HIT %:        100  MISS %:          0   MPKI: 0
ITLB PREFETCH  REQUESTED:          0  ISSUED:          0  USEFUL:          0  USELESS:          0
ITLB USEFUL LOAD PREFETCHES:          0 PREFETCH ISSUED TO LOWER LEVEL:          0  ACCURACY: -nan
ITLB TIMELY PREFETCHES:          0 LATE PREFETCHES: 0 DROPPED PREFETCHES: 0
ITLB PREFETCHES SAME FILL-ORIGIN LEVEL: 0 DIFFERENT FILL-ORIGIN LEVEL: 0
ITLB AVERAGE MISS LATENCY: -nan cycles
ITLB RQ	ACCESS:    8632441	FORWARD:          0	MERGED:    1973531	TO_CACHE:    6658910

DTLB TOTAL     ACCESS:    8896873  HIT:    8838355  MISS:      58518  HIT %:    99.3423  MISS %:   0.657737   MPKI: 1.17036
DTLB LOAD TRANSLATION ACCESS:    8896873  HIT:    8838355  MISS:      58518  HIT %:    99.3423  MISS %:   0.657737   MPKI: 1.17036
DTLB PREFETCH  REQUESTED:          0  ISSUED:          0  USEFUL:          0  USELESS:          0
DTLB USEFUL LOAD PREFETCHES:          0 PREFETCH ISSUED TO LOWER LEVEL:          0  ACCURACY: -nan
DTLB TIMELY PREFETCHES:          0 LATE PREFETCHES: 0 DROPPED PREFETCHES: 0
DTLB PREFETCHES SAME FILL-ORIGIN LEVEL: 0 DIFFERENT FILL-ORIGIN LEVEL: 0
DTLB AVERAGE MISS LATENCY: 108.881 cycles
DTLB RQ	ACCESS:   12861610	FORWARD:          0	MERGED:    3945123	TO_CACHE:    8916487

STLB TOTAL     ACCESS:     368169  HIT:     336416  MISS:      31753  HIT %:    91.3754  MISS %:    8.62457   MPKI: 0.63506
STLB LOAD TRANSLATION ACCESS:      58518  HIT:      26765  MISS:      31753  HIT %:    45.7381  MISS %:    54.2619   MPKI: 0.63506
STLB TRANSLATION FROM L1D PREFETCHER ACCESS:     309651  HIT:     309651  MISS:          0  HIT %:        100  MISS %:          0   MPKI: 0
STLB PREFETCH  REQUESTED:          0  ISSUED:          0  USEFUL:          0  USELESS:          0
STLB USEFUL LOAD PREFETCHES:          0 PREFETCH ISSUED TO LOWER LEVEL:          0  ACCURACY: -nan
STLB TIMELY PREFETCHES:          0 LATE PREFETCHES: 0 DROPPED PREFETCHES: 0
STLB PREFETCHES SAME FILL-ORIGIN LEVEL: 0 DIFFERENT FILL-ORIGIN LEVEL: 0
STLB AVERAGE MISS LATENCY: 181.388 cycles
STLB RQ	ACCESS:     577039	FORWARD:          0	MERGED:     208870	TO_CACHE:     368169

STLB Hit, L1D data hit: 0
STLB Hit, L2C data hit: 0
STLB Hit, LLC data hit: 0
STLB Hit, LLC data miss: 0
STLB STLB hints to L2: 0
L1D TOTAL     ACCESS:   13193821  HIT:    9612530  MISS:    3581291  HIT %:    72.8563  MISS %:    27.1437   MPKI: 71.6258
L1D LOAD      ACCESS:    4625729  HIT:    4353891  MISS:     271838  HIT %:    94.1233  MISS %:    5.87665   MPKI: 5.43676
L1D RFO       ACCESS:    8147219  HIT:    5193188  MISS:    2954031  HIT %:    63.7418  MISS %:    36.2582   MPKI: 59.0806
L1D PREFETCH  ACCESS:     420873  HIT:      65451  MISS:     355422  HIT %:    15.5512  MISS %:    84.4488   MPKI: 7.10844
L1D PREFETCH  REQUESTED:    1057006  ISSUED:    1037050  USEFUL:     245509  USELESS:     109920
L1D USEFUL LOAD PREFETCHES:     245509 PREFETCH ISSUED TO LOWER LEVEL:     396663  ACCURACY: 61.8936
L1D TIMELY PREFETCHES:     245509 LATE PREFETCHES: 41215 DROPPED PREFETCHES: 0
L1D PREFETCHES SAME FILL-ORIGIN LEVEL: 396663 DIFFERENT FILL-ORIGIN LEVEL: 0
L1D AVERAGE MISS LATENCY: 507044 cycles
L1D RQ	ACCESS:   12067447	FORWARD:          0	MERGED:    5974241	TO_CACHE:    4678544
L1D WQ	ACCESS:    8740015	FORWARD:    1414662	MERGED:     556949	TO_CACHE:    8183066
L1D PQ	ACCESS:     518529	FORWARD:          0	MERGED:          8	TO_CACHE:     518521

L1D UNIQUE REGIONS ACCESSED: 0
L1D REGIONS CONFLICTS: 0
L1D Cross Page Prefetch Requests: 0
L1D Same Page Prefetch Requests: 639155
L1D ROI Sum of L1D PQ occupancy: 397913974
L1D PREFETCHES PUSHED FROM L2C: 0
L1I TOTAL     ACCESS:    8632440  HIT:    8632440  MISS:          0  HIT %:        100  MISS %:          0   MPKI: 0
L1I LOAD      ACCESS:    8632440  HIT:    8632440  MISS:          0  HIT %:        100  MISS %:          0   MPKI: 0
L1I PREFETCH  REQUESTED:          0  ISSUED:          0  USEFUL:          0  USELESS:          0
L1I USEFUL LOAD PREFETCHES:          0 PREFETCH ISSUED TO LOWER LEVEL:          0  ACCURACY: -nan
L1I TIMELY PREFETCHES:          0 LATE PREFETCHES: 0 DROPPED PREFETCHES: 0
L1I PREFETCHES SAME FILL-ORIGIN LEVEL: 0 DIFFERENT FILL-ORIGIN LEVEL: 0
L1I AVERAGE MISS LATENCY: -nan cycles
L1I RQ	ACCESS:   12332296	FORWARD:          0	MERGED:    3699855	TO_CACHE:    8632441

BTB TOTAL     ACCESS:     800654  HIT:     800648  MISS:          6  HIT %:    99.9993  MISS %: 0.000749387   MPKI: 0.00012
BTB BRANCH_DIRECT_JUMP	ACCESS:     107474  HIT:     107473  MISS:          1
BTB BRANCH_INDIRECT	ACCESS:          0  HIT:          0  MISS:          0
BTB BRANCH_CONDITIONAL	ACCESS:     693180  HIT:     693175  MISS:          5
BTB BRANCH_DIRECT_CALL	ACCESS:          0  HIT:          0  MISS:          0
BTB BRANCH_INDIRECT_CALL	ACCESS:          0  HIT:          0  MISS:          0
BTB BRANCH_RETURN	ACCESS:          0  HIT:          0  MISS:          0
BTB BRANCH_OTHER ACCESS:          0  HIT:          0  MISS:          0

L2C TOTAL     ACCESS:    6771776  HIT:    4709260  MISS:    2062516  HIT %:    69.5425  MISS %:    30.4575   MPKI: 41.2503
L2C LOAD      ACCESS:     230623  HIT:     144260  MISS:      86363  HIT %:    62.5523  MISS %:    37.4477   MPKI: 1.72726
L2C DATA LOAD MPKI: 1.72726
L2C INSTRUCTION LOAD MPKI: 0
L2C RFO       ACCESS:    2947207  HIT:    1396991  MISS:    1550216  HIT %:    47.4005  MISS %:    52.5995   MPKI: 31.0043
L2C PREFETCH  ACCESS:     608151  HIT:     186607  MISS:     421544  HIT %:    30.6843  MISS %:    69.3157   MPKI: 8.43088
L2C DATA PREFETCH MPKI: 8.43088
L2C INSTRUCTION PREFETCH MPKI: 0
L2C WRITEBACK ACCESS:    2954040  HIT:    2953659  MISS:        381  HIT %:    99.9871  MISS %:  0.0128976   MPKI: 0.00762
L2C LOAD TRANSLATION ACCESS:      31755  HIT:      27743  MISS:       4012  HIT %:    87.3658  MISS %:    12.6342   MPKI: 0.08024
L2C PREFETCH  REQUESTED:     431404  ISSUED:     431392  USEFUL:     136421  USELESS:     285160
L2C USEFUL LOAD PREFETCHES:     136421 PREFETCH ISSUED TO LOWER LEVEL:     433342  ACCURACY: 31.4811
L2C TIMELY PREFETCHES:     136421 LATE PREFETCHES: 11799 DROPPED PREFETCHES: 0
L2C PREFETCHES SAME FILL-ORIGIN LEVEL: 111258 DIFFERENT FILL-ORIGIN LEVEL: 0
L2C AVERAGE MISS LATENCY: 574.511 cycles
L2C RQ	ACCESS:    3216411	FORWARD:          0	MERGED:          0	TO_CACHE:    3209587
L2C WQ	ACCESS:    2954040	FORWARD:       6824	MERGED:          0	TO_CACHE:    2954040
L2C PQ	ACCESS:     828029	FORWARD:          0	MERGED:     128115	TO_CACHE:     699914

L2C Instructions Evicting Data 0
L2C Translations Evicting Data 3984
L2C Data Evicting Data 2054144
L2C Instructions Evicting Instructions 0
L2C Translations Evicting Instructions 0
L2C Data Evicting Instructions 0
L2C Instructions Evicting Translations 0
L2C Translations Evicting Translations 28
L2C Data Evicting Translations 3979
L2C Dense regions hint from L2: 0
PSCL5 TOTAL     ACCESS:      31753  HIT:      31753  MISS:          0  HIT %:        100  MISS %:          0   MPKI: 0
PSCL5 LOAD TRANSLATION ACCESS:      31753  HIT:      31753  MISS:          0  HIT %:        100  MISS %:          0   MPKI: 0
PSCL5 PREFETCH  REQUESTED:          0  ISSUED:          0  USEFUL:          0  USELESS:          0
PSCL5 USEFUL LOAD PREFETCHES:          0 PREFETCH ISSUED TO LOWER LEVEL:          0  ACCURACY: -nan
PSCL5 TIMELY PREFETCHES:          0 LATE PREFETCHES: 0 DROPPED PREFETCHES: 0
PSCL5 PREFETCHES SAME FILL-ORIGIN LEVEL: 0 DIFFERENT FILL-ORIGIN LEVEL: 0

PSCL4 TOTAL     ACCESS:      31753  HIT:      31753  MISS:          0  HIT %:        100  MISS %:          0   MPKI: 0
PSCL4 LOAD TRANSLATION ACCESS:      31753  HIT:      31753  MISS:          0  HIT %:        100  MISS %:          0   MPKI: 0
PSCL4 PREFETCH  REQUESTED:          0  ISSUED:          0  USEFUL:          0  USELESS:          0
PSCL4 USEFUL LOAD PREFETCHES:          0 PREFETCH ISSUED TO LOWER LEVEL:          0  ACCURACY: -nan
PSCL4 TIMELY PREFETCHES:          0 LATE PREFETCHES: 0 DROPPED PREFETCHES: 0
PSCL4 PREFETCHES SAME FILL-ORIGIN LEVEL: 0 DIFFERENT FILL-ORIGIN LEVEL: 0

PSCL3 TOTAL     ACCESS:      31753  HIT:      31753  MISS:          0  HIT %:        100  MISS %:          0   MPKI: 0
PSCL3 LOAD TRANSLATION ACCESS:      31753  HIT:      31753  MISS:          0  HIT %:        100  MISS %:          0   MPKI: 0
PSCL3 PREFETCH  REQUESTED:          0  ISSUED:          0  USEFUL:          0  USELESS:          0
PSCL3 USEFUL LOAD PREFETCHES:          0 PREFETCH ISSUED TO LOWER LEVEL:          0  ACCURACY: -nan
PSCL3 TIMELY PREFETCHES:          0 LATE PREFETCHES: 0 DROPPED PREFETCHES: 0
PSCL3 PREFETCHES SAME FILL-ORIGIN LEVEL: 0 DIFFERENT FILL-ORIGIN LEVEL: 0

PSCL2 TOTAL     ACCESS:      31753  HIT:      31719  MISS:         34  HIT %:    99.8929  MISS %:   0.107076   MPKI: 0.00068
PSCL2 LOAD TRANSLATION ACCESS:      31753  HIT:      31719  MISS:         34  HIT %:    99.8929  MISS %:   0.107076   MPKI: 0.00068
PSCL2 PREFETCH  REQUESTED:          0  ISSUED:          0  USEFUL:          0  USELESS:          0
PSCL2 USEFUL LOAD PREFETCHES:          0 PREFETCH ISSUED TO LOWER LEVEL:          0  ACCURACY: -nan
PSCL2 TIMELY PREFETCHES:          0 LATE PREFETCHES: 0 DROPPED PREFETCHES: 0
PSCL2 PREFETCHES SAME FILL-ORIGIN LEVEL: 0 DIFFERENT FILL-ORIGIN LEVEL: 0

LLC TOTAL     ACCESS:    3612911  HIT:    1577265  MISS:    2035646  HIT %:    43.6563  MISS %:    56.3437   MPKI: 40.7129
LLC LOAD      ACCESS:      74564  HIT:          0  MISS:      74564  HIT %:          0  MISS %:        100   MPKI: 1.49128
LLC RFO       ACCESS:    1550171  HIT:      26477  MISS:    1523694  HIT %:    1.70801  MISS %:     98.292   MPKI: 30.4739
LLC PREFETCH  ACCESS:     433343  HIT:          0  MISS:     433343  HIT %:          0  MISS %:        100   MPKI: 8.66686
LLC WRITEBACK ACCESS:    1550821  HIT:    1550788  MISS:         33  HIT %:    99.9979  MISS %: 0.00212791   MPKI: 0.00066
LLC LOAD TRANSLATION ACCESS:       4012  HIT:          0  MISS:       4012  HIT %:          0  MISS %:        100   MPKI: 0.08024
LLC PREFETCH  REQUESTED:          0  ISSUED:          0  USEFUL:          0  USELESS:     434691
LLC USEFUL LOAD PREFETCHES:          0 PREFETCH ISSUED TO LOWER LEVEL:     433343  ACCURACY: 0
LLC TIMELY PREFETCHES:          0 LATE PREFETCHES: 0 DROPPED PREFETCHES: 0
LLC PREFETCHES SAME FILL-ORIGIN LEVEL: 0 DIFFERENT FILL-ORIGIN LEVEL: 0
LLC AVERAGE MISS LATENCY: 553.744 cycles
LLC RQ	ACCESS:    1628794	FORWARD:          0	MERGED:          0	TO_CACHE:    1628749
LLC WQ	ACCESS:    1550821	FORWARD:         45	MERGED:          0	TO_CACHE:    1550821
LLC PQ	ACCESS:     433342	FORWARD:          0	MERGED:          0	TO_CACHE:     433342

LLC Dense regions hint to LLC: 0

RAW hits: 607433
Loads Generated: 12674880
Loads sent to L1D: 12067447
Stores Generated: 8740011
Stores sent to L1D: 8740015
Major fault: 0 Minor fault: 22569
Allocated PAGES: 22569

stream: 
stream:times selected: 2048490
stream:pref_filled: 82340
stream:pref_useful: 68741
stream:pref_late: 14852
stream:misses: 33326
stream:misses_by_poll: 0

CS: 
CS:times selected: 379034
CS:pref_filled: 190260
CS:pref_useful: 121188
CS:pref_late: 16056
CS:misses: 130335
CS:misses_by_poll: 925

CPLX: 
CPLX:times selected: 1667564
CPLX:pref_filled: 190377
CPLX:pref_useful: 126903
CPLX:pref_late: 12275
CPLX:misses: 193031
CPLX:misses_by_poll: 676

NL_L1: 
NL:times selected: 847
NL:pref_filled: 43
NL:pref_useful: 25
NL:pref_late: 23
NL:misses: 132
NL:misses_by_poll: 0

total selections: 4095935
total_filled: 355422
total_useful: 245509
total_late: 44668
total_polluted: 1601
total_misses_after_warmup: 324652
conflicts: 123007
Degree Incremented Times: 20362
Degree Decremented Times: 0

L1 IP Table Write Accesses: 4181533
L1 IP Table Read Accesses: 4058526
L1 RST Write Accesses: 1650326
L1 RST Read Accesses: 3300652
L1 CSPT Write Accesses: 1650326
L1 CSPT Read Accesses: 5221131
L1 RR Filter Tag Write Accesses: 538485
L1 RR Filter Tag Read Accesses: 273955312
L1 IP Table Tag Write Accesses: 4678543
L1 IP Table Tag Read Accesses: 4678543
L1 RST Tag Write Accesses: 0
L1 RST Tag Read Accesses: 14842468
L1 RR Filter Write Accesses: 0
L1 RR Filter Read Accesses: 12357548
test: 295272
L2 IP Table Read Accesses: 1180030
L2 IP Table Write Accesses: 949809
L2 IP Table Tag Read Accesses: 590385
L2 IP Table Tag Write Accesses: 590385

DRAM Statistics
 CHANNEL 0
 RQ ROW_BUFFER_HIT:     159276  ROW_BUFFER_MISS:    1876337
 DBUS_CONGESTED:          1
 WQ ROW_BUFFER_HIT:     319092  ROW_BUFFER_MISS:    1204194  FULL:          0

 AVG_CONGESTED_CYCLE: 6
 All warmup complete: 2
Channel 0 Bank busy for read cycles: 0
Channel 0 Bank busy for write cycles: 0
Channel 0
Rank 0
0banks busy for read cycles: 12174
0banks busy for write cycles: 0
1banks busy for read cycles: 744924
1banks busy for write cycles: 151609
2banks busy for read cycles: 1188449
2banks busy for write cycles: 151607
3banks busy for read cycles: 2119035
3banks busy for write cycles: 151604
4banks busy for read cycles: 3791044
4banks busy for write cycles: 151597
5banks busy for read cycles: 8463094
5banks busy for write cycles: 151597
6banks busy for read cycles: 11175351
6banks busy for write cycles: 151758
7banks busy for read cycles: 13986590
7banks busy for write cycles: 1678099
8banks busy for read cycles: 12470647
8banks busy for write cycles: 29858799

CPU 0 Branch Prediction Accuracy: 95.9387% MPKI: 0.6505 Average ROB Occupancy at Mispredict: 161.095
Branch types
NOT_BRANCH: 49198820 98.3976%
BRANCH_DIRECT_JUMP: 107474 0.214948%
BRANCH_INDIRECT: 0 0%
BRANCH_CONDITIONAL: 693373 1.38675%
BRANCH_DIRECT_CALL: 0 0%
BRANCH_INDIRECT_CALL: 0 0%
BRANCH_RETURN: 0 0%
BRANCH_OTHER: 0 0%

@sumon_overall_L1D    245509     41215    109920    355422   1037050   1057006
@Sumon_Early_by_class_L1D     52060    100367     93006        17
@Sumon_Late_by_class_L1D     12366     16012     11646        17

@Sumon_Early_by_cycle_L1D     22600     20151     21183     39036     24292     98868     15417      3955         7         0         0         0
@Sumon_Late_by_cycle_L1D      7632      7324     15285      6750      2028      2177        19         0         0         0         0         0
@Sumon_Early_stream_L1D      7218      8276      6559     13593      5891     10518         5         0         0         0         0         0
@Sumon_Early_CS_L1D      8903      6200      7560     13306      7918     53357      3116         7         0         0         0         0
@Sumon_Early_CPLX_L1D      6473      5666      7058     12129     10475     34957     12293      3948         7         0         0         0
@Sumon_Late_stream_L1D      2201      2123      4700      1879       790       665         8         0         0         0         0         0
@Sumon_Late_CS_L1D      2325      2889      5538      3128       861      1261        10         0         0         0         0         0
@Sumon_Late_CPLX_L1D      1937      2307      5040      1739       373       249         1         0         0         0         0         0
@sumon_overall_L2C    136421     11799    285160    421544    431392    431404
@Sumon_Early_by_class_L2C     49196     52455     34612         0
@Sumon_Late_by_class_L2C     11744         0         0         0

@Sumon_Early_by_cycle_L2C      6987      4812      8107     15782      7718     74083     16089      2812        31         0         0         0
@Sumon_Late_by_cycle_L2C      1308      2890      3904      2189       702       802         4         0         0         0         0         0
@Sumon_Early_stream_L2C      6941      4365      7282     11485      4456     14499       168         0         0         0         0         0
@Sumon_Early_CS_L2C        21       221       457      2815      2215     42691      4030         5         0         0         0         0
@Sumon_Early_CPLX_L2C        22       221       365      1472      1045     16838     11827      2791        31         0         0         0
@Sumon_Late_stream_L2C      1256      2890      3902      2188       702       802         4         0         0         0         0         0
@Sumon_Late_CS_L2C         0         0         0         0         0         0         0         0         0         0         0         0
@Sumon_Late_CPLX_L2C         0         0         0         0         0         0         0         0         0         0         0         0
DRAM PAGES: 1048576
Allocated PAGES: 22569
