
*** ChampSim Multicore Out-of-Order Simulator ***

Warmup Instructions: 10000000
Simulation Instructions: 50000000
Number of CPUs: 1
LLC sets: 2048
LLC ways: 16
Off-chip DRAM Size: 4096 MB Channels: 1 Width: 64-bit Data Rate: 6400 MT/s
CPU 0 runs traces/SPEC2017/628.pop2_s-17B.champsimtrace.xz
.xz
CPU 0 Bimodal branch predictor
BTB has LRU replacement policy
ITLB has LRU replacement policy
DTLB has LRU replacement policy
STLB has LRU replacement policy
L1I has LRU replacement policy
IP Table Entries: 256
Initialize DRRIP state for L1D
IP_Table L2 entries: 256
L2C has LRU replacement policy
LLC has LRU replacement policy
Heartbeat CPU 0 instructions: 10000003 cycles: 2998633 heartbeat IPC: 3.33485 cumulative IPC: 3.33485 (Simulation time: 0 hr 8 min 44 sec) 

Warmup complete CPU 0 instructions: 10000003 cycles: 2998633 (Simulation time: 0 hr 8 min 44 sec) 

Heartbeat CPU 0 instructions: 20000001 cycles: 15810232 heartbeat IPC: 0.780543 cumulative IPC: 0.780543 (Simulation time: 0 hr 16 min 49 sec) 
Heartbeat CPU 0 instructions: 30000003 cycles: 28610323 heartbeat IPC: 0.781245 cumulative IPC: 0.780893 (Simulation time: 0 hr 25 min 0 sec) 
Heartbeat CPU 0 instructions: 40000001 cycles: 41417800 heartbeat IPC: 0.780794 cumulative IPC: 0.78086 (Simulation time: 0 hr 33 min 10 sec) 
Heartbeat CPU 0 instructions: 50000000 cycles: 54041953 heartbeat IPC: 0.792132 cumulative IPC: 0.783648 (Simulation time: 0 hr 41 min 23 sec) 
Heartbeat CPU 0 instructions: 60000000 cycles: 66593004 heartbeat IPC: 0.796746 cumulative IPC: 0.786233 (Simulation time: 0 hr 49 min 37 sec) 
Finished CPU 0 instructions: 50000003 cycles: 63594380 cumulative IPC: 0.786233 (Simulation time: 0 hr 49 min 37 sec) 

ChampSim completed all CPUs

Region of Interest Statistics

CPU 0 cumulative IPC: 0.786233 instructions: 50000003 cycles: 63594380
ITLB TOTAL     ACCESS:    7897037  HIT:    7894558  MISS:       2479  HIT %:    99.9686  MISS %:  0.0313915   MPKI: 0.04958
ITLB LOAD TRANSLATION ACCESS:    7897037  HIT:    7894558  MISS:       2479  HIT %:    99.9686  MISS %:  0.0313915   MPKI: 0.04958
ITLB PREFETCH  REQUESTED:          0  ISSUED:          0  USEFUL:          0  USELESS:          0
ITLB USEFUL LOAD PREFETCHES:          0 PREFETCH ISSUED TO LOWER LEVEL:          0  ACCURACY: -nan
ITLB TIMELY PREFETCHES:          0 LATE PREFETCHES: 0 DROPPED PREFETCHES: 0
ITLB PREFETCHES SAME FILL-ORIGIN LEVEL: 0 DIFFERENT FILL-ORIGIN LEVEL: 0
ITLB AVERAGE MISS LATENCY: 9.00081 cycles
ITLB RQ	ACCESS:    9355827	FORWARD:          0	MERGED:    1458076	TO_CACHE:    7897751

DTLB TOTAL     ACCESS:   11104222  HIT:   11062565  MISS:      41657  HIT %:    99.6249  MISS %:   0.375146   MPKI: 0.83314
DTLB LOAD TRANSLATION ACCESS:   11104222  HIT:   11062565  MISS:      41657  HIT %:    99.6249  MISS %:   0.375146   MPKI: 0.83314
DTLB PREFETCH  REQUESTED:          0  ISSUED:          0  USEFUL:          0  USELESS:          0
DTLB USEFUL LOAD PREFETCHES:          0 PREFETCH ISSUED TO LOWER LEVEL:          0  ACCURACY: -nan
DTLB TIMELY PREFETCHES:          0 LATE PREFETCHES: 0 DROPPED PREFETCHES: 0
DTLB PREFETCHES SAME FILL-ORIGIN LEVEL: 0 DIFFERENT FILL-ORIGIN LEVEL: 0
DTLB AVERAGE MISS LATENCY: 21.4703 cycles
DTLB RQ	ACCESS:   12314096	FORWARD:          0	MERGED:    1203902	TO_CACHE:   11110194

STLB TOTAL     ACCESS:    1548118  HIT:    1545655  MISS:       2463  HIT %:    99.8409  MISS %:   0.159096   MPKI: 0.04926
STLB LOAD TRANSLATION ACCESS:      44136  HIT:      41673  MISS:       2463  HIT %:    94.4195  MISS %:    5.58048   MPKI: 0.04926
STLB TRANSLATION FROM L1D PREFETCHER ACCESS:    1503982  HIT:    1503982  MISS:          0  HIT %:        100  MISS %:          0   MPKI: 0
STLB PREFETCH  REQUESTED:          0  ISSUED:          0  USEFUL:          0  USELESS:          0
STLB USEFUL LOAD PREFETCHES:          0 PREFETCH ISSUED TO LOWER LEVEL:          0  ACCURACY: -nan
STLB TIMELY PREFETCHES:          0 LATE PREFETCHES: 0 DROPPED PREFETCHES: 0
STLB PREFETCHES SAME FILL-ORIGIN LEVEL: 0 DIFFERENT FILL-ORIGIN LEVEL: 0
STLB AVERAGE MISS LATENCY: 208.078 cycles
STLB RQ	ACCESS:    5062662	FORWARD:          0	MERGED:    3514544	TO_CACHE:    1548118

STLB Hit, L1D data hit: 0
STLB Hit, L2C data hit: 0
STLB Hit, LLC data hit: 0
STLB Hit, LLC data miss: 0
STLB STLB hints to L2: 0
L1D TOTAL     ACCESS:   16782493  HIT:   14950224  MISS:    1832269  HIT %:    89.0823  MISS %:    10.9177   MPKI: 36.6454
L1D LOAD      ACCESS:    8513929  HIT:    8232131  MISS:     281798  HIT %:    96.6902  MISS %:    3.30985   MPKI: 5.63596
L1D RFO       ACCESS:    3263084  HIT:    2974104  MISS:     288980  HIT %:     91.144  MISS %:    8.85604   MPKI: 5.7796
L1D PREFETCH  ACCESS:    5005480  HIT:    3743989  MISS:    1261491  HIT %:    74.7978  MISS %:    25.2022   MPKI: 25.2298
L1D PREFETCH  REQUESTED:   10619465  ISSUED:   10037150  USEFUL:     558817  USELESS:     702693
L1D USEFUL LOAD PREFETCHES:     558817 PREFETCH ISSUED TO LOWER LEVEL:    1265900  ACCURACY: 44.1439
L1D TIMELY PREFETCHES:     558817 LATE PREFETCHES: 4378 DROPPED PREFETCHES: 0
L1D PREFETCHES SAME FILL-ORIGIN LEVEL: 1265900 DIFFERENT FILL-ORIGIN LEVEL: 0
L1D AVERAGE MISS LATENCY: 84550.1 cycles
L1D RQ	ACCESS:   11098744	FORWARD:          0	MERGED:    2493150	TO_CACHE:    8541963
L1D WQ	ACCESS:    3798884	FORWARD:      63672	MERGED:      26751	TO_CACHE:    3772133
L1D PQ	ACCESS:    5018624	FORWARD:          0	MERGED:         57	TO_CACHE:    5018526

L1D UNIQUE REGIONS ACCESSED: 0
L1D REGIONS CONFLICTS: 0
L1D Cross Page Prefetch Requests: 0
L1D Same Page Prefetch Requests: 5923025
L1D ROI Sum of L1D PQ occupancy: 74063400
L1D PREFETCHES PUSHED FROM L2C: 0
L1I TOTAL     ACCESS:    9333407  HIT:    9274239  MISS:      59168  HIT %:    99.3661  MISS %:   0.633938   MPKI: 1.18336
L1I LOAD      ACCESS:    9333407  HIT:    9274239  MISS:      59168  HIT %:    99.3661  MISS %:   0.633938   MPKI: 1.18336
L1I PREFETCH  REQUESTED:          0  ISSUED:          0  USEFUL:          0  USELESS:          0
L1I USEFUL LOAD PREFETCHES:          0 PREFETCH ISSUED TO LOWER LEVEL:          0  ACCURACY: -nan
L1I TIMELY PREFETCHES:          0 LATE PREFETCHES: 0 DROPPED PREFETCHES: 0
L1I PREFETCHES SAME FILL-ORIGIN LEVEL: 0 DIFFERENT FILL-ORIGIN LEVEL: 0
L1I AVERAGE MISS LATENCY: 43.7361 cycles
L1I RQ	ACCESS:   14082560	FORWARD:          0	MERGED:    4726733	TO_CACHE:    9355827

BTB TOTAL     ACCESS:    5449076  HIT:    5427266  MISS:      21810  HIT %:    99.5997  MISS %:   0.400251   MPKI: 0.4362
BTB BRANCH_DIRECT_JUMP	ACCESS:     113010  HIT:     112818  MISS:        192
BTB BRANCH_INDIRECT	ACCESS:       3160  HIT:       2838  MISS:        322
BTB BRANCH_CONDITIONAL	ACCESS:    4936779  HIT:    4935358  MISS:       1421
BTB BRANCH_DIRECT_CALL	ACCESS:     198063  HIT:     197223  MISS:        840
BTB BRANCH_INDIRECT_CALL	ACCESS:          0  HIT:          0  MISS:          0
BTB BRANCH_RETURN	ACCESS:     198064  HIT:     179029  MISS:      19035
BTB BRANCH_OTHER ACCESS:          0  HIT:          0  MISS:          0

L2C TOTAL     ACCESS:    2370269  HIT:    1783166  MISS:     587103  HIT %:    75.2305  MISS %:    24.7695   MPKI: 11.7421
L2C LOAD      ACCESS:     336530  HIT:     240356  MISS:      96174  HIT %:    71.4219  MISS %:    28.5781   MPKI: 1.92348
L2C DATA LOAD MPKI: 0.7676
L2C INSTRUCTION LOAD MPKI: 1.15588
L2C RFO       ACCESS:     288237  HIT:     183806  MISS:     104431  HIT %:    63.7691  MISS %:    36.2309   MPKI: 2.08862
L2C PREFETCH  ACCESS:    1321517  HIT:     937859  MISS:     383658  HIT %:    70.9684  MISS %:    29.0316   MPKI: 7.67316
L2C DATA PREFETCH MPKI: 7.67316
L2C INSTRUCTION PREFETCH MPKI: 0
L2C WRITEBACK ACCESS:     420656  HIT:     420402  MISS:        254  HIT %:    99.9396  MISS %:  0.0603819   MPKI: 0.00508
L2C LOAD TRANSLATION ACCESS:       3329  HIT:        743  MISS:       2586  HIT %:     22.319  MISS %:     77.681   MPKI: 0.05172
L2C PREFETCH  REQUESTED:      67067  ISSUED:      67062  USEFUL:      75944  USELESS:     307790
L2C USEFUL LOAD PREFETCHES:      75944 PREFETCH ISSUED TO LOWER LEVEL:     384364  ACCURACY: 19.7584
L2C TIMELY PREFETCHES:      75944 LATE PREFETCHES: 706 DROPPED PREFETCHES: 0
L2C PREFETCHES SAME FILL-ORIGIN LEVEL: 14284 DIFFERENT FILL-ORIGIN LEVEL: 0
L2C AVERAGE MISS LATENCY: 68.6193 cycles
L2C RQ	ACCESS:     628888	FORWARD:          0	MERGED:          0	TO_CACHE:     628096
L2C WQ	ACCESS:     420661	FORWARD:        819	MERGED:          5	TO_CACHE:     420656
L2C PQ	ACCESS:    1332940	FORWARD:          0	MERGED:       8598	TO_CACHE:    1324315

L2C Instructions Evicting Data 53058
L2C Translations Evicting Data 2408
L2C Data Evicting Data 471015
L2C Instructions Evicting Instructions 4464
L2C Translations Evicting Instructions 165
L2C Data Evicting Instructions 53151
L2C Instructions Evicting Translations 272
L2C Translations Evicting Translations 13
L2C Data Evicting Translations 2303
L2C Dense regions hint from L2: 0
PSCL5 TOTAL     ACCESS:       2463  HIT:       2463  MISS:          0  HIT %:        100  MISS %:          0   MPKI: 0
PSCL5 LOAD TRANSLATION ACCESS:       2463  HIT:       2463  MISS:          0  HIT %:        100  MISS %:          0   MPKI: 0
PSCL5 PREFETCH  REQUESTED:          0  ISSUED:          0  USEFUL:          0  USELESS:          0
PSCL5 USEFUL LOAD PREFETCHES:          0 PREFETCH ISSUED TO LOWER LEVEL:          0  ACCURACY: -nan
PSCL5 TIMELY PREFETCHES:          0 LATE PREFETCHES: 0 DROPPED PREFETCHES: 0
PSCL5 PREFETCHES SAME FILL-ORIGIN LEVEL: 0 DIFFERENT FILL-ORIGIN LEVEL: 0

PSCL4 TOTAL     ACCESS:       2463  HIT:       2463  MISS:          0  HIT %:        100  MISS %:          0   MPKI: 0
PSCL4 LOAD TRANSLATION ACCESS:       2463  HIT:       2463  MISS:          0  HIT %:        100  MISS %:          0   MPKI: 0
PSCL4 PREFETCH  REQUESTED:          0  ISSUED:          0  USEFUL:          0  USELESS:          0
PSCL4 USEFUL LOAD PREFETCHES:          0 PREFETCH ISSUED TO LOWER LEVEL:          0  ACCURACY: -nan
PSCL4 TIMELY PREFETCHES:          0 LATE PREFETCHES: 0 DROPPED PREFETCHES: 0
PSCL4 PREFETCHES SAME FILL-ORIGIN LEVEL: 0 DIFFERENT FILL-ORIGIN LEVEL: 0

PSCL3 TOTAL     ACCESS:       2463  HIT:       2463  MISS:          0  HIT %:        100  MISS %:          0   MPKI: 0
PSCL3 LOAD TRANSLATION ACCESS:       2463  HIT:       2463  MISS:          0  HIT %:        100  MISS %:          0   MPKI: 0
PSCL3 PREFETCH  REQUESTED:          0  ISSUED:          0  USEFUL:          0  USELESS:          0
PSCL3 USEFUL LOAD PREFETCHES:          0 PREFETCH ISSUED TO LOWER LEVEL:          0  ACCURACY: -nan
PSCL3 TIMELY PREFETCHES:          0 LATE PREFETCHES: 0 DROPPED PREFETCHES: 0
PSCL3 PREFETCHES SAME FILL-ORIGIN LEVEL: 0 DIFFERENT FILL-ORIGIN LEVEL: 0

PSCL2 TOTAL     ACCESS:       2463  HIT:       1591  MISS:        872  HIT %:     64.596  MISS %:     35.404   MPKI: 0.01744
PSCL2 LOAD TRANSLATION ACCESS:       2463  HIT:       1591  MISS:        872  HIT %:     64.596  MISS %:     35.404   MPKI: 0.01744
PSCL2 PREFETCH  REQUESTED:          0  ISSUED:          0  USEFUL:          0  USELESS:          0
PSCL2 USEFUL LOAD PREFETCHES:          0 PREFETCH ISSUED TO LOWER LEVEL:          0  ACCURACY: -nan
PSCL2 TIMELY PREFETCHES:          0 LATE PREFETCHES: 0 DROPPED PREFETCHES: 0
PSCL2 PREFETCHES SAME FILL-ORIGIN LEVEL: 0 DIFFERENT FILL-ORIGIN LEVEL: 0

LLC TOTAL     ACCESS:     769889  HIT:     612837  MISS:     157052  HIT %:    79.6007  MISS %:    20.3993   MPKI: 3.14104
LLC LOAD      ACCESS:      95502  HIT:      87452  MISS:       8050  HIT %:    91.5709  MISS %:    8.42914   MPKI: 0.161
LLC RFO       ACCESS:     104393  HIT:      93788  MISS:      10605  HIT %:    89.8413  MISS %:    10.1587   MPKI: 0.2121
LLC PREFETCH  ACCESS:     384364  HIT:     247396  MISS:     136968  HIT %:     64.365  MISS %:     35.635   MPKI: 2.73936
LLC WRITEBACK ACCESS:     183044  HIT:     181963  MISS:       1081  HIT %:    99.4094  MISS %:   0.590568   MPKI: 0.02162
LLC LOAD TRANSLATION ACCESS:       2586  HIT:       2238  MISS:        348  HIT %:    86.5429  MISS %:    13.4571   MPKI: 0.00696
LLC PREFETCH  REQUESTED:          0  ISSUED:          0  USEFUL:       5527  USELESS:     132836
LLC USEFUL LOAD PREFETCHES:       5527 PREFETCH ISSUED TO LOWER LEVEL:     136968  ACCURACY: 4.03525
LLC TIMELY PREFETCHES:       5527 LATE PREFETCHES: 0 DROPPED PREFETCHES: 0
LLC PREFETCHES SAME FILL-ORIGIN LEVEL: 0 DIFFERENT FILL-ORIGIN LEVEL: 0
LLC AVERAGE MISS LATENCY: 143.714 cycles
LLC RQ	ACCESS:     202485	FORWARD:          0	MERGED:          0	TO_CACHE:     202481
LLC WQ	ACCESS:     183044	FORWARD:          4	MERGED:          0	TO_CACHE:     183044
LLC PQ	ACCESS:     384364	FORWARD:          0	MERGED:          0	TO_CACHE:     384364

LLC Dense regions hint to LLC: 0

RAW hits: 200343
Loads Generated: 11299087
Loads sent to L1D: 11098744
Stores Generated: 3798884
Stores sent to L1D: 3798884
Major fault: 0 Minor fault: 3592
Allocated PAGES: 3592

stream: 
stream:times selected: 2197272
stream:pref_filled: 1468772
stream:pref_useful: 654174
stream:pref_late: 3418
stream:misses: 3227
stream:misses_by_poll: 0

CS: 
CS:times selected: 1943264
CS:pref_filled: 20513
CS:pref_useful: 9510
CS:pref_late: 266
CS:misses: 241840
CS:misses_by_poll: 135

CPLX: 
CPLX:times selected: 253566
CPLX:pref_filled: 8420
CPLX:pref_useful: 2321
CPLX:pref_late: 37
CPLX:misses: 41169
CPLX:misses_by_poll: 8

NL_L1: 
NL:times selected: 267
NL:pref_filled: 70
NL:pref_useful: 9
NL:pref_late: 2
NL:misses: 93
NL:misses_by_poll: 0

total selections: 4394369
total_filled: 1261491
total_useful: 558817
total_late: 4608
total_polluted: 143
total_misses_after_warmup: 309831
conflicts: 127714
Degree Incremented Times: 0
Degree Decremented Times: 24243

L1 IP Table Write Accesses: 8375254
L1 IP Table Read Accesses: 8247540
L1 RST Write Accesses: 1832732
L1 RST Read Accesses: 3665464
L1 CSPT Write Accesses: 1832732
L1 CSPT Read Accesses: 2045477
L1 RR Filter Tag Write Accesses: 5600939
L1 RR Filter Tag Read Accesses: 413016168
L1 IP Table Tag Write Accesses: 8541962
L1 IP Table Tag Read Accesses: 8541962
L1 RST Tag Write Accesses: 0
L1 RST Tag Read Accesses: 17208524
L1 RR Filter Write Accesses: 0
L1 RR Filter Read Accesses: 15205665
test: 98378
L2 IP Table Read Accesses: 3007107
L2 IP Table Write Accesses: 2819728
L2 IP Table Tag Read Accesses: 1537543
L2 IP Table Tag Write Accesses: 1537543

DRAM Statistics
 CHANNEL 0
 RQ ROW_BUFFER_HIT:      63702  ROW_BUFFER_MISS:      92269
 DBUS_CONGESTED:        905
 WQ ROW_BUFFER_HIT:      12857  ROW_BUFFER_MISS:      32217  FULL:          0

 AVG_CONGESTED_CYCLE: 5
 All warmup complete: 2
Channel 0 Bank busy for read cycles: 0
Channel 0 Bank busy for write cycles: 0
Channel 0
Rank 0
0banks busy for read cycles: 51415744
0banks busy for write cycles: 7218
1banks busy for read cycles: 5261766
1banks busy for write cycles: 989534
2banks busy for read cycles: 2154212
2banks busy for write cycles: 508265
3banks busy for read cycles: 630647
3banks busy for write cycles: 337322
4banks busy for read cycles: 304066
4banks busy for write cycles: 268302
5banks busy for read cycles: 196679
5banks busy for write cycles: 230210
6banks busy for read cycles: 171006
6banks busy for write cycles: 206779
7banks busy for read cycles: 196691
7banks busy for write cycles: 212753
8banks busy for read cycles: 121809
8banks busy for write cycles: 381378

CPU 0 Branch Prediction Accuracy: 96.8434% MPKI: 3.61642 Average ROB Occupancy at Mispredict: 24.7715
Branch types
NOT_BRANCH: 44271658 88.5433%
BRANCH_DIRECT_JUMP: 113010 0.22602%
BRANCH_INDIRECT: 3160 0.00632%
BRANCH_CONDITIONAL: 5216078 10.4322%
BRANCH_DIRECT_CALL: 198063 0.396126%
BRANCH_INDIRECT_CALL: 0 0%
BRANCH_RETURN: 198064 0.396128%
BRANCH_OTHER: 0 0%

@sumon_overall_L1D    558817      4378    702693   1261491  10037150  10619465
@Sumon_Early_by_class_L1D    545044      8181      1974         2
@Sumon_Late_by_class_L1D      3230       236        36         2

@Sumon_Early_by_cycle_L1D     27407    120923    135334     58570     40838    157514     15092       888      1157       900       189         5
@Sumon_Late_by_cycle_L1D      3507       854        17         0         0         0         0         0         0         0         0         0
@Sumon_Early_stream_L1D     24525    117005    133236     57531     40202    155463     14361       684       992       873       167         5
@Sumon_Early_CS_L1D      1393      2419      1003       851       557      1196       513       151        98         0         0         0
@Sumon_Early_CPLX_L1D       205       184       333        27        78       787       218        52        52        27        11         0
@Sumon_Late_stream_L1D      2486       731        13         0         0         0         0         0         0         0         0         0
@Sumon_Late_CS_L1D       191        45         0         0         0         0         0         0         0         0         0         0
@Sumon_Late_CPLX_L1D        32         3         1         0         0         0         0         0         0         0         0         0
@sumon_overall_L2C     75944       706    307790    383658     67062     67067
@Sumon_Early_by_class_L2C     67141      1223       307         0
@Sumon_Late_by_class_L2C         0         0         0         0

@Sumon_Early_by_cycle_L2C      2035      2867      3880      4186      3177     23177      6080       321      1428      2509      5850     20434
@Sumon_Late_by_cycle_L2C       654        51         1         0         0         0         0         0         0         0         0         0
@Sumon_Early_stream_L2C       108      1554      2574      3367      2921     22820      5902       140      1256      2351      5325     18823
@Sumon_Early_CS_L2C         2        20        18        15         5        44        32        68        57         7        74       881
@Sumon_Early_CPLX_L2C         1         5         0         2         1        53        71         5        27        11        35        96
@Sumon_Late_stream_L2C         0         0         0         0         0         0         0         0         0         0         0         0
@Sumon_Late_CS_L2C         0         0         0         0         0         0         0         0         0         0         0         0
@Sumon_Late_CPLX_L2C         0         0         0         0         0         0         0         0         0         0         0         0
DRAM PAGES: 1048576
Allocated PAGES: 3592
