
*** ChampSim Multicore Out-of-Order Simulator ***

Warmup Instructions: 10000000
Simulation Instructions: 50000000
Number of CPUs: 1
LLC sets: 2048
LLC ways: 16
Off-chip DRAM Size: 4096 MB Channels: 1 Width: 64-bit Data Rate: 6400 MT/s
CPU 0 runs traces/SPEC2017/654.roms_s-1007B.champsimtrace.xz
.xz
CPU 0 Bimodal branch predictor
BTB has LRU replacement policy
ITLB has LRU replacement policy
DTLB has LRU replacement policy
STLB has LRU replacement policy
L1I has LRU replacement policy
IP Table Entries: 256
Initialize DRRIP state for L1D
IP_Table L2 entries: 256
L2C has LRU replacement policy
LLC has LRU replacement policy
Heartbeat CPU 0 instructions: 10000000 cycles: 3015986 heartbeat IPC: 3.31567 cumulative IPC: 3.31567 (Simulation time: 0 hr 10 min 32 sec) 

Warmup complete CPU 0 instructions: 10000004 cycles: 3015987 (Simulation time: 0 hr 10 min 32 sec) 

Heartbeat CPU 0 instructions: 20000001 cycles: 22511227 heartbeat IPC: 0.512946 cumulative IPC: 0.512946 (Simulation time: 0 hr 20 min 28 sec) 
Heartbeat CPU 0 instructions: 30000000 cycles: 42021815 heartbeat IPC: 0.512542 cumulative IPC: 0.512744 (Simulation time: 0 hr 30 min 35 sec) 
Heartbeat CPU 0 instructions: 40000000 cycles: 61528237 heartbeat IPC: 0.512652 cumulative IPC: 0.512713 (Simulation time: 0 hr 40 min 58 sec) 
Heartbeat CPU 0 instructions: 50000000 cycles: 76569186 heartbeat IPC: 0.664852 cumulative IPC: 0.543824 (Simulation time: 0 hr 51 min 46 sec) 
Heartbeat CPU 0 instructions: 60000002 cycles: 94229690 heartbeat IPC: 0.566235 cumulative IPC: 0.548163 (Simulation time: 1 hr 0 min 9 sec) 
Finished CPU 0 instructions: 50000000 cycles: 91213715 cumulative IPC: 0.548163 (Simulation time: 1 hr 0 min 9 sec) 

ChampSim completed all CPUs

Region of Interest Statistics

CPU 0 cumulative IPC: 0.548163 instructions: 50000000 cycles: 91213715
ITLB TOTAL     ACCESS:    8367278  HIT:    8367272  MISS:          6  HIT %:    99.9999  MISS %: 7.17079e-05   MPKI: 0.00012
ITLB LOAD TRANSLATION ACCESS:    8367278  HIT:    8367272  MISS:          6  HIT %:    99.9999  MISS %: 7.17079e-05   MPKI: 0.00012
ITLB PREFETCH  REQUESTED:          0  ISSUED:          0  USEFUL:          0  USELESS:          0
ITLB USEFUL LOAD PREFETCHES:          0 PREFETCH ISSUED TO LOWER LEVEL:          0  ACCURACY: -nan
ITLB TIMELY PREFETCHES:          0 LATE PREFETCHES: 0 DROPPED PREFETCHES: 0
ITLB PREFETCHES SAME FILL-ORIGIN LEVEL: 0 DIFFERENT FILL-ORIGIN LEVEL: 0
ITLB AVERAGE MISS LATENCY: 288.5 cycles
ITLB RQ	ACCESS:   10686436	FORWARD:          0	MERGED:    2319158	TO_CACHE:    8367278

DTLB TOTAL     ACCESS:   14154050  HIT:   14142542  MISS:      11508  HIT %:    99.9187  MISS %:  0.0813054   MPKI: 0.23016
DTLB LOAD TRANSLATION ACCESS:   14154050  HIT:   14142542  MISS:      11508  HIT %:    99.9187  MISS %:  0.0813054   MPKI: 0.23016
DTLB PREFETCH  REQUESTED:          0  ISSUED:          0  USEFUL:          0  USELESS:          0
DTLB USEFUL LOAD PREFETCHES:          0 PREFETCH ISSUED TO LOWER LEVEL:          0  ACCURACY: -nan
DTLB TIMELY PREFETCHES:          0 LATE PREFETCHES: 0 DROPPED PREFETCHES: 0
DTLB PREFETCHES SAME FILL-ORIGIN LEVEL: 0 DIFFERENT FILL-ORIGIN LEVEL: 0
DTLB AVERAGE MISS LATENCY: 205.794 cycles
DTLB RQ	ACCESS:   15939905	FORWARD:          0	MERGED:    1773480	TO_CACHE:   14166425

STLB TOTAL     ACCESS:     360586  HIT:     349674  MISS:      10912  HIT %:    96.9738  MISS %:    3.02619   MPKI: 0.21824
STLB LOAD TRANSLATION ACCESS:      11514  HIT:        602  MISS:      10912  HIT %:    5.22842  MISS %:    94.7716   MPKI: 0.21824
STLB TRANSLATION FROM L1D PREFETCHER ACCESS:     349072  HIT:     349072  MISS:          0  HIT %:        100  MISS %:          0   MPKI: 0
STLB PREFETCH  REQUESTED:          0  ISSUED:          0  USEFUL:          0  USELESS:          0
STLB USEFUL LOAD PREFETCHES:          0 PREFETCH ISSUED TO LOWER LEVEL:          0  ACCURACY: -nan
STLB TIMELY PREFETCHES:          0 LATE PREFETCHES: 0 DROPPED PREFETCHES: 0
STLB PREFETCHES SAME FILL-ORIGIN LEVEL: 0 DIFFERENT FILL-ORIGIN LEVEL: 0
STLB AVERAGE MISS LATENCY: 206.927 cycles
STLB RQ	ACCESS:     396441	FORWARD:          0	MERGED:      35855	TO_CACHE:     360586

STLB Hit, L1D data hit: 0
STLB Hit, L2C data hit: 0
STLB Hit, LLC data hit: 0
STLB Hit, LLC data miss: 0
STLB STLB hints to L2: 0
L1D TOTAL     ACCESS:   15444669  HIT:   14913971  MISS:     530698  HIT %:    96.5639  MISS %:    3.43612   MPKI: 10.614
L1D LOAD      ACCESS:   10108235  HIT:   10004863  MISS:     103372  HIT %:    98.9773  MISS %:    1.02265   MPKI: 2.06744
L1D RFO       ACCESS:    4979403  HIT:    4825621  MISS:     153782  HIT %:    96.9116  MISS %:    3.08836   MPKI: 3.07564
L1D PREFETCH  ACCESS:     357031  HIT:      83487  MISS:     273544  HIT %:    23.3837  MISS %:    76.6163   MPKI: 5.47088
L1D PREFETCH  REQUESTED:     769854  ISSUED:     769854  USEFUL:     201416  USELESS:      72131
L1D USEFUL LOAD PREFETCHES:     201416 PREFETCH ISSUED TO LOWER LEVEL:     299284  ACCURACY: 67.2993
L1D TIMELY PREFETCHES:     201416 LATE PREFETCHES: 25740 DROPPED PREFETCHES: 0
L1D PREFETCHES SAME FILL-ORIGIN LEVEL: 299284 DIFFERENT FILL-ORIGIN LEVEL: 0
L1D AVERAGE MISS LATENCY: 3.91566e+06 cycles
L1D RQ	ACCESS:   12547531	FORWARD:          0	MERGED:    2392251	TO_CACHE:   10148297
L1D WQ	ACCESS:    6118340	FORWARD:       6983	MERGED:     326732	TO_CACHE:    5791608
L1D PQ	ACCESS:     384927	FORWARD:          0	MERGED:          0	TO_CACHE:     384927

L1D UNIQUE REGIONS ACCESSED: 0
L1D REGIONS CONFLICTS: 0
L1D Cross Page Prefetch Requests: 0
L1D Same Page Prefetch Requests: 417957
L1D ROI Sum of L1D PQ occupancy: 5784641
L1D PREFETCHES PUSHED FROM L2C: 0
L1I TOTAL     ACCESS:   10686417  HIT:   10686354  MISS:         63  HIT %:    99.9994  MISS %: 0.000589533   MPKI: 0.00126
L1I LOAD      ACCESS:   10686417  HIT:   10686354  MISS:         63  HIT %:    99.9994  MISS %: 0.000589533   MPKI: 0.00126
L1I PREFETCH  REQUESTED:          0  ISSUED:          0  USEFUL:          0  USELESS:          0
L1I USEFUL LOAD PREFETCHES:          0 PREFETCH ISSUED TO LOWER LEVEL:          0  ACCURACY: -nan
L1I TIMELY PREFETCHES:          0 LATE PREFETCHES: 0 DROPPED PREFETCHES: 0
L1I PREFETCHES SAME FILL-ORIGIN LEVEL: 0 DIFFERENT FILL-ORIGIN LEVEL: 0
L1I AVERAGE MISS LATENCY: 231.54 cycles
L1I RQ	ACCESS:   13930290	FORWARD:          0	MERGED:    3243854	TO_CACHE:   10686436

BTB TOTAL     ACCESS:    3139531  HIT:    2812744  MISS:     326787  HIT %:    89.5912  MISS %:    10.4088   MPKI: 6.53574
BTB BRANCH_DIRECT_JUMP	ACCESS:     326747  HIT:     326739  MISS:          8
BTB BRANCH_INDIRECT	ACCESS:          0  HIT:          0  MISS:          0
BTB BRANCH_CONDITIONAL	ACCESS:    1505847  HIT:    1505816  MISS:         31
BTB BRANCH_DIRECT_CALL	ACCESS:     653469  HIT:     653459  MISS:         10
BTB BRANCH_INDIRECT_CALL	ACCESS:          0  HIT:          0  MISS:          0
BTB BRANCH_RETURN	ACCESS:     653468  HIT:     326730  MISS:     326738
BTB BRANCH_OTHER ACCESS:          0  HIT:          0  MISS:          0

L2C TOTAL     ACCESS:     844390  HIT:     381102  MISS:     463288  HIT %:    45.1334  MISS %:    54.8666   MPKI: 9.26576
L2C LOAD      ACCESS:      77695  HIT:      67448  MISS:      10247  HIT %:    86.8112  MISS %:    13.1888   MPKI: 0.20494
L2C DATA LOAD MPKI: 0.20368
L2C INSTRUCTION LOAD MPKI: 0.00126
L2C RFO       ACCESS:     153781  HIT:         55  MISS:     153726  HIT %:  0.0357651  MISS %:    99.9642   MPKI: 3.07452
L2C PREFETCH  ACCESS:     448067  HIT:     151333  MISS:     296734  HIT %:    33.7746  MISS %:    66.2254   MPKI: 5.93468
L2C DATA PREFETCH MPKI: 5.93468
L2C INSTRUCTION PREFETCH MPKI: 0
L2C WRITEBACK ACCESS:     153926  HIT:     153703  MISS:        223  HIT %:    99.8551  MISS %:   0.144875   MPKI: 0.00446
L2C LOAD TRANSLATION ACCESS:      10921  HIT:       8563  MISS:       2358  HIT %:    78.4086  MISS %:    21.5914   MPKI: 0.04716
L2C PREFETCH  REQUESTED:     176202  ISSUED:     176202  USEFUL:      59868  USELESS:     236270
L2C USEFUL LOAD PREFETCHES:      59868 PREFETCH ISSUED TO LOWER LEVEL:     296738  ACCURACY: 20.1754
L2C TIMELY PREFETCHES:      59868 LATE PREFETCHES: 4 DROPPED PREFETCHES: 0
L2C PREFETCHES SAME FILL-ORIGIN LEVEL: 54226 DIFFERENT FILL-ORIGIN LEVEL: 0
L2C AVERAGE MISS LATENCY: 276.068 cycles
L2C RQ	ACCESS:     242398	FORWARD:          0	MERGED:          0	TO_CACHE:     242397
L2C WQ	ACCESS:     153926	FORWARD:          1	MERGED:          0	TO_CACHE:     153926
L2C PQ	ACCESS:     475486	FORWARD:          0	MERGED:      17418	TO_CACHE:     458068

L2C Instructions Evicting Data 62
L2C Translations Evicting Data 2353
L2C Data Evicting Data 457744
L2C Instructions Evicting Instructions 0
L2C Translations Evicting Instructions 0
L2C Data Evicting Instructions 45
L2C Instructions Evicting Translations 1
L2C Translations Evicting Translations 2
L2C Data Evicting Translations 2338
L2C Dense regions hint from L2: 0
PSCL5 TOTAL     ACCESS:      10912  HIT:      10912  MISS:          0  HIT %:        100  MISS %:          0   MPKI: 0
PSCL5 LOAD TRANSLATION ACCESS:      10912  HIT:      10912  MISS:          0  HIT %:        100  MISS %:          0   MPKI: 0
PSCL5 PREFETCH  REQUESTED:          0  ISSUED:          0  USEFUL:          0  USELESS:          0
PSCL5 USEFUL LOAD PREFETCHES:          0 PREFETCH ISSUED TO LOWER LEVEL:          0  ACCURACY: -nan
PSCL5 TIMELY PREFETCHES:          0 LATE PREFETCHES: 0 DROPPED PREFETCHES: 0
PSCL5 PREFETCHES SAME FILL-ORIGIN LEVEL: 0 DIFFERENT FILL-ORIGIN LEVEL: 0

PSCL4 TOTAL     ACCESS:      10912  HIT:      10912  MISS:          0  HIT %:        100  MISS %:          0   MPKI: 0
PSCL4 LOAD TRANSLATION ACCESS:      10912  HIT:      10912  MISS:          0  HIT %:        100  MISS %:          0   MPKI: 0
PSCL4 PREFETCH  REQUESTED:          0  ISSUED:          0  USEFUL:          0  USELESS:          0
PSCL4 USEFUL LOAD PREFETCHES:          0 PREFETCH ISSUED TO LOWER LEVEL:          0  ACCURACY: -nan
PSCL4 TIMELY PREFETCHES:          0 LATE PREFETCHES: 0 DROPPED PREFETCHES: 0
PSCL4 PREFETCHES SAME FILL-ORIGIN LEVEL: 0 DIFFERENT FILL-ORIGIN LEVEL: 0

PSCL3 TOTAL     ACCESS:      10912  HIT:      10909  MISS:          3  HIT %:    99.9725  MISS %:  0.0274927   MPKI: 6e-05
PSCL3 LOAD TRANSLATION ACCESS:      10912  HIT:      10909  MISS:          3  HIT %:    99.9725  MISS %:  0.0274927   MPKI: 6e-05
PSCL3 PREFETCH  REQUESTED:          0  ISSUED:          0  USEFUL:          0  USELESS:          0
PSCL3 USEFUL LOAD PREFETCHES:          0 PREFETCH ISSUED TO LOWER LEVEL:          0  ACCURACY: -nan
PSCL3 TIMELY PREFETCHES:          0 LATE PREFETCHES: 0 DROPPED PREFETCHES: 0
PSCL3 PREFETCHES SAME FILL-ORIGIN LEVEL: 0 DIFFERENT FILL-ORIGIN LEVEL: 0

PSCL2 TOTAL     ACCESS:      10912  HIT:      10861  MISS:         51  HIT %:    99.5326  MISS %:   0.467375   MPKI: 0.00102
PSCL2 LOAD TRANSLATION ACCESS:      10912  HIT:      10861  MISS:         51  HIT %:    99.5326  MISS %:   0.467375   MPKI: 0.00102
PSCL2 PREFETCH  REQUESTED:          0  ISSUED:          0  USEFUL:          0  USELESS:          0
PSCL2 USEFUL LOAD PREFETCHES:          0 PREFETCH ISSUED TO LOWER LEVEL:          0  ACCURACY: -nan
PSCL2 TIMELY PREFETCHES:          0 LATE PREFETCHES: 0 DROPPED PREFETCHES: 0
PSCL2 PREFETCHES SAME FILL-ORIGIN LEVEL: 0 DIFFERENT FILL-ORIGIN LEVEL: 0

LLC TOTAL     ACCESS:     617179  HIT:     153971  MISS:     463208  HIT %:    24.9475  MISS %:    75.0525   MPKI: 9.26416
LLC LOAD      ACCESS:      10243  HIT:          3  MISS:      10240  HIT %:  0.0292883  MISS %:    99.9707   MPKI: 0.2048
LLC RFO       ACCESS:     153726  HIT:          0  MISS:     153726  HIT %:          0  MISS %:        100   MPKI: 3.07452
LLC PREFETCH  ACCESS:     296738  HIT:         38  MISS:     296700  HIT %:  0.0128059  MISS %:    99.9872   MPKI: 5.934
LLC WRITEBACK ACCESS:     154114  HIT:     153924  MISS:        190  HIT %:    99.8767  MISS %:   0.123285   MPKI: 0.0038
LLC LOAD TRANSLATION ACCESS:       2358  HIT:          6  MISS:       2352  HIT %:   0.254453  MISS %:    99.7455   MPKI: 0.04704
LLC PREFETCH  REQUESTED:          0  ISSUED:          0  USEFUL:          0  USELESS:     284669
LLC USEFUL LOAD PREFETCHES:          0 PREFETCH ISSUED TO LOWER LEVEL:     296700  ACCURACY: 0
LLC TIMELY PREFETCHES:          0 LATE PREFETCHES: 0 DROPPED PREFETCHES: 0
LLC PREFETCHES SAME FILL-ORIGIN LEVEL: 0 DIFFERENT FILL-ORIGIN LEVEL: 0
LLC AVERAGE MISS LATENCY: 243.73 cycles
LLC RQ	ACCESS:     166327	FORWARD:          0	MERGED:          0	TO_CACHE:     166327
LLC WQ	ACCESS:     154114	FORWARD:          0	MERGED:          0	TO_CACHE:     154114
LLC PQ	ACCESS:     296738	FORWARD:          0	MERGED:          0	TO_CACHE:     296738

LLC Dense regions hint to LLC: 0

RAW hits: 1335441
Loads Generated: 13882972
Loads sent to L1D: 12547531
Stores Generated: 6118341
Stores sent to L1D: 6118340
Major fault: 0 Minor fault: 10479
Allocated PAGES: 10479

stream: 
stream:times selected: 1770280
stream:pref_filled: 7248
stream:pref_useful: 3657
stream:pref_late: 2310
stream:misses: 100
stream:misses_by_poll: 0

CS: 
CS:times selected: 398000
CS:pref_filled: 274296
CS:pref_useful: 205352
CS:pref_late: 22893
CS:misses: 138964
CS:misses_by_poll: 2044

CPLX: 
CPLX:times selected: 1372226
CPLX:pref_filled: 1418
CPLX:pref_useful: 16
CPLX:pref_late: 24
CPLX:misses: 3842
CPLX:misses_by_poll: 0

NL_L1: 
NL:times selected: 7
NL:pref_filled: 4
NL:pref_useful: 2
NL:pref_late: 0
NL:misses: 3
NL:misses_by_poll: 0

total selections: 3540513
total_filled: 273544
total_useful: 201416
total_late: 25743
total_polluted: 2044
total_misses_after_warmup: 143435
conflicts: 793
Degree Incremented Times: 32943
Degree Decremented Times: 72048

L1 IP Table Write Accesses: 10146943
L1 IP Table Read Accesses: 10146150
L1 RST Write Accesses: 1513466
L1 RST Read Accesses: 3026932
L1 CSPT Write Accesses: 1513466
L1 CSPT Read Accesses: 2652498
L1 RR Filter Tag Write Accesses: 384927
L1 RR Filter Tag Read Accesses: 72473072
L1 IP Table Tag Write Accesses: 10148298
L1 IP Table Tag Read Accesses: 10148298
L1 RST Tag Write Accesses: 0
L1 RST Tag Read Accesses: 15876180
L1 RR Filter Write Accesses: 0
L1 RR Filter Read Accesses: 3477605
test: 721026
L2 IP Table Read Accesses: 715634
L2 IP Table Write Accesses: 638126
L2 IP Table Tag Read Accesses: 357851
L2 IP Table Tag Write Accesses: 357851

DRAM Statistics
 CHANNEL 0
 RQ ROW_BUFFER_HIT:     216760  ROW_BUFFER_MISS:     246258
 DBUS_CONGESTED:         32
 WQ ROW_BUFFER_HIT:      22602  ROW_BUFFER_MISS:     125671  FULL:          0

 AVG_CONGESTED_CYCLE: 5
 All warmup complete: 2
Channel 0 Bank busy for read cycles: 0
Channel 0 Bank busy for write cycles: 0
Channel 0
Rank 0
0banks busy for read cycles: 70381338
0banks busy for write cycles: 10903
1banks busy for read cycles: 5009693
1banks busy for write cycles: 1676506
2banks busy for read cycles: 1763935
2banks busy for write cycles: 63536
3banks busy for read cycles: 2307283
3banks busy for write cycles: 31888
4banks busy for read cycles: 2544744
4banks busy for write cycles: 48269
5banks busy for read cycles: 1957234
5banks busy for write cycles: 24517
6banks busy for read cycles: 1332535
6banks busy for write cycles: 21440
7banks busy for read cycles: 703426
7banks busy for write cycles: 176655
8banks busy for read cycles: 175459
8banks busy for write cycles: 2984355

CPU 0 Branch Prediction Accuracy: 99.9659% MPKI: 0.03484 Average ROB Occupancy at Mispredict: 89.9334
Branch types
NOT_BRANCH: 44898664 89.7973%
BRANCH_DIRECT_JUMP: 326747 0.653494%
BRANCH_INDIRECT: 0 0%
BRANCH_CONDITIONAL: 3467349 6.9347%
BRANCH_DIRECT_CALL: 653469 1.30694%
BRANCH_INDIRECT_CALL: 0 0%
BRANCH_RETURN: 653468 1.30694%
BRANCH_OTHER: 0 0%

@sumon_overall_L1D    201416     25740     72131    273544    769854    769854
@Sumon_Early_by_class_L1D      3570    197835        11         0
@Sumon_Late_by_class_L1D      2310     22890        24         0

@Sumon_Early_by_cycle_L1D     20619     26960     34731     50131     40804      8369       402       537     18862         1         0         0
@Sumon_Late_by_cycle_L1D     10554     10543      3910       704        27         2         0         0         0         0         0         0
@Sumon_Early_stream_L1D      1226      1557       373       232        79        46        56         0         1         0         0         0
@Sumon_Early_CS_L1D     19384     25403     34357     49899     40724      8323       346       537     18861         1         0         0
@Sumon_Early_CPLX_L1D         9         0         1         0         1         0         0         0         0         0         0         0
@Sumon_Late_stream_L1D       486      1081       637       106         0         0         0         0         0         0         0         0
@Sumon_Late_CS_L1D      9548      9451      3266       596        27         2         0         0         0         0         0         0
@Sumon_Late_CPLX_L1D         5        10         7         2         0         0         0         0         0         0         0         0
@sumon_overall_L2C     59868         4    236270    296734    176202    176202
@Sumon_Early_by_class_L2C       614     59242         0         0
@Sumon_Late_by_class_L2C         0         3         0         0

@Sumon_Early_by_cycle_L2C        61       814      6008     23921     15535     12958        61         3       107       393         0         7
@Sumon_Late_by_cycle_L2C         3         0         1         0         0         0         0         0         0         0         0         0
@Sumon_Early_stream_L2C        14       275       172        89        51        12         1         0         0         0         0         0
@Sumon_Early_CS_L2C        45       539      5835     23832     15482     12943        57         2       107       393         0         7
@Sumon_Early_CPLX_L2C         0         0         0         0         0         0         0         0         0         0         0         0
@Sumon_Late_stream_L2C         0         0         0         0         0         0         0         0         0         0         0         0
@Sumon_Late_CS_L2C         2         0         1         0         0         0         0         0         0         0         0         0
@Sumon_Late_CPLX_L2C         0         0         0         0         0         0         0         0         0         0         0         0
DRAM PAGES: 1048576
Allocated PAGES: 10479
