
*** ChampSim Multicore Out-of-Order Simulator ***

Warmup Instructions: 10000000
Simulation Instructions: 50000000
Number of CPUs: 1
LLC sets: 2048
LLC ways: 16
Off-chip DRAM Size: 4096 MB Channels: 1 Width: 64-bit Data Rate: 6400 MT/s
CPU 0 runs traces/SPEC2017/654.roms_s-1390B.champsimtrace.xz
.xz
CPU 0 Bimodal branch predictor
BTB has LRU replacement policy
ITLB has LRU replacement policy
DTLB has LRU replacement policy
STLB has LRU replacement policy
L1I has LRU replacement policy
IP Table Entries: 256
Initialize DRRIP state for L1D
IP_Table L2 entries: 256
L2C has LRU replacement policy
LLC has LRU replacement policy
Heartbeat CPU 0 instructions: 10000001 cycles: 3760119 heartbeat IPC: 2.65949 cumulative IPC: 2.65949 (Simulation time: 0 hr 16 min 46 sec) 

Warmup complete CPU 0 instructions: 10000001 cycles: 3760119 (Simulation time: 0 hr 16 min 46 sec) 

Heartbeat CPU 0 instructions: 20000002 cycles: 22630356 heartbeat IPC: 0.529935 cumulative IPC: 0.529935 (Simulation time: 0 hr 30 min 29 sec) 
Heartbeat CPU 0 instructions: 30000003 cycles: 42384366 heartbeat IPC: 0.506226 cumulative IPC: 0.51781 (Simulation time: 0 hr 43 min 46 sec) 
Heartbeat CPU 0 instructions: 40000002 cycles: 58694992 heartbeat IPC: 0.613097 cumulative IPC: 0.546101 (Simulation time: 0 hr 58 min 39 sec) 
Heartbeat CPU 0 instructions: 50000000 cycles: 73755095 heartbeat IPC: 0.664006 cumulative IPC: 0.57147 (Simulation time: 1 hr 7 min 36 sec) 
Heartbeat CPU 0 instructions: 60000001 cycles: 86062118 heartbeat IPC: 0.812544 cumulative IPC: 0.607519 (Simulation time: 1 hr 10 min 13 sec) 
Finished CPU 0 instructions: 50000000 cycles: 82301999 cumulative IPC: 0.607519 (Simulation time: 1 hr 10 min 13 sec) 

ChampSim completed all CPUs

Region of Interest Statistics

CPU 0 cumulative IPC: 0.607519 instructions: 50000000 cycles: 82301999
ITLB TOTAL     ACCESS:    7981605  HIT:    7981582  MISS:         23  HIT %:    99.9997  MISS %: 0.000288163   MPKI: 0.00046
ITLB LOAD TRANSLATION ACCESS:    7981605  HIT:    7981582  MISS:         23  HIT %:    99.9997  MISS %: 0.000288163   MPKI: 0.00046
ITLB PREFETCH  REQUESTED:          0  ISSUED:          0  USEFUL:          0  USELESS:          0
ITLB USEFUL LOAD PREFETCHES:          0 PREFETCH ISSUED TO LOWER LEVEL:          0  ACCURACY: -nan
ITLB TIMELY PREFETCHES:          0 LATE PREFETCHES: 0 DROPPED PREFETCHES: 0
ITLB PREFETCHES SAME FILL-ORIGIN LEVEL: 0 DIFFERENT FILL-ORIGIN LEVEL: 0
ITLB AVERAGE MISS LATENCY: 304.913 cycles
ITLB RQ	ACCESS:    8790761	FORWARD:          0	MERGED:     809150	TO_CACHE:    7981611

DTLB TOTAL     ACCESS:   12439215  HIT:   12384608  MISS:      54607  HIT %:     99.561  MISS %:   0.438991   MPKI: 1.09214
DTLB LOAD TRANSLATION ACCESS:   12439215  HIT:   12384608  MISS:      54607  HIT %:     99.561  MISS %:   0.438991   MPKI: 1.09214
DTLB PREFETCH  REQUESTED:          0  ISSUED:          0  USEFUL:          0  USELESS:          0
DTLB USEFUL LOAD PREFETCHES:          0 PREFETCH ISSUED TO LOWER LEVEL:          0  ACCURACY: -nan
DTLB TIMELY PREFETCHES:          0 LATE PREFETCHES: 0 DROPPED PREFETCHES: 0
DTLB PREFETCHES SAME FILL-ORIGIN LEVEL: 0 DIFFERENT FILL-ORIGIN LEVEL: 0
DTLB AVERAGE MISS LATENCY: 156.708 cycles
DTLB RQ	ACCESS:   13606297	FORWARD:          0	MERGED:    1118209	TO_CACHE:   12488088

STLB TOTAL     ACCESS:    1366151  HIT:    1327177  MISS:      38974  HIT %:    97.1472  MISS %:    2.85283   MPKI: 0.77948
STLB LOAD TRANSLATION ACCESS:      54630  HIT:      15657  MISS:      38973  HIT %:    28.6601  MISS %:    71.3399   MPKI: 0.77946
STLB TRANSLATION FROM L1D PREFETCHER ACCESS:    1311521  HIT:    1311520  MISS:          1  HIT %:    99.9999  MISS %: 7.62473e-05   MPKI: 2e-05
STLB PREFETCH  REQUESTED:          0  ISSUED:          0  USEFUL:          0  USELESS:          1
STLB USEFUL LOAD PREFETCHES:          0 PREFETCH ISSUED TO LOWER LEVEL:          0  ACCURACY: -nan
STLB TIMELY PREFETCHES:          0 LATE PREFETCHES: 0 DROPPED PREFETCHES: 0
STLB PREFETCHES SAME FILL-ORIGIN LEVEL: 0 DIFFERENT FILL-ORIGIN LEVEL: 0
STLB AVERAGE MISS LATENCY: 205.332 cycles
STLB RQ	ACCESS:    1602359	FORWARD:          0	MERGED:     236206	TO_CACHE:    1366153

STLB Hit, L1D data hit: 0
STLB Hit, L2C data hit: 0
STLB Hit, LLC data hit: 0
STLB Hit, LLC data miss: 0
STLB STLB hints to L2: 0
L1D TOTAL     ACCESS:   11362161  HIT:    8980576  MISS:    2381585  HIT %:    79.0393  MISS %:    20.9607   MPKI: 47.6317
L1D LOAD      ACCESS:    7884583  HIT:    6818908  MISS:    1065675  HIT %:    86.4841  MISS %:    13.5159   MPKI: 21.3135
L1D RFO       ACCESS:    2409345  HIT:    1908981  MISS:     500364  HIT %:    79.2324  MISS %:    20.7676   MPKI: 10.0073
L1D PREFETCH  ACCESS:    1068233  HIT:     252687  MISS:     815546  HIT %:    23.6547  MISS %:    76.3453   MPKI: 16.3109
L1D PREFETCH  REQUESTED:    3101285  ISSUED:    3095458  USEFUL:     504115  USELESS:     311415
L1D USEFUL LOAD PREFETCHES:     504115 PREFETCH ISSUED TO LOWER LEVEL:    1220732  ACCURACY: 41.2961
L1D TIMELY PREFETCHES:     504115 LATE PREFETCHES: 405187 DROPPED PREFETCHES: 0
L1D PREFETCHES SAME FILL-ORIGIN LEVEL: 1220732 DIFFERENT FILL-ORIGIN LEVEL: 0
L1D AVERAGE MISS LATENCY: 5.81422e+06 cycles
L1D RQ	ACCESS:   17793092	FORWARD:          0	MERGED:    9379899	TO_CACHE:    8413066
L1D WQ	ACCESS:    5193249	FORWARD:        127	MERGED:         18	TO_CACHE:    5193231
L1D PQ	ACCESS:    1547729	FORWARD:          0	MERGED:          0	TO_CACHE:    1547729

L1D UNIQUE REGIONS ACCESSED: 0
L1D REGIONS CONFLICTS: 0
L1D Cross Page Prefetch Requests: 0
L1D Same Page Prefetch Requests: 2537739
L1D ROI Sum of L1D PQ occupancy: 52202797
L1D PREFETCHES PUSHED FROM L2C: 0
L1I TOTAL     ACCESS:    8790600  HIT:    8790181  MISS:        419  HIT %:    99.9952  MISS %: 0.00476646   MPKI: 0.00838
L1I LOAD      ACCESS:    8790600  HIT:    8790181  MISS:        419  HIT %:    99.9952  MISS %: 0.00476646   MPKI: 0.00838
L1I PREFETCH  REQUESTED:          0  ISSUED:          0  USEFUL:          0  USELESS:          0
L1I USEFUL LOAD PREFETCHES:          0 PREFETCH ISSUED TO LOWER LEVEL:          0  ACCURACY: -nan
L1I TIMELY PREFETCHES:          0 LATE PREFETCHES: 0 DROPPED PREFETCHES: 0
L1I PREFETCHES SAME FILL-ORIGIN LEVEL: 0 DIFFERENT FILL-ORIGIN LEVEL: 0
L1I AVERAGE MISS LATENCY: 234.014 cycles
L1I RQ	ACCESS:   13339882	FORWARD:          0	MERGED:    4549121	TO_CACHE:    8790761

BTB TOTAL     ACCESS:    3086896  HIT:    3086656  MISS:        240  HIT %:    99.9922  MISS %:  0.0077748   MPKI: 0.0048
BTB BRANCH_DIRECT_JUMP	ACCESS:        167  HIT:        144  MISS:         23
BTB BRANCH_INDIRECT	ACCESS:          0  HIT:          0  MISS:          0
BTB BRANCH_CONDITIONAL	ACCESS:    3086455  HIT:    3086363  MISS:         92
BTB BRANCH_DIRECT_CALL	ACCESS:        137  HIT:         76  MISS:         61
BTB BRANCH_INDIRECT_CALL	ACCESS:          0  HIT:          0  MISS:          0
BTB BRANCH_RETURN	ACCESS:        137  HIT:         73  MISS:         64
BTB BRANCH_OTHER ACCESS:          0  HIT:          0  MISS:          0

L2C TOTAL     ACCESS:    3092372  HIT:    1437374  MISS:    1654998  HIT %:    46.4813  MISS %:    53.5187   MPKI: 33.1
L2C LOAD      ACCESS:     660906  HIT:     555387  MISS:     105519  HIT %:    84.0342  MISS %:    15.9658   MPKI: 2.11038
L2C DATA LOAD MPKI: 2.102
L2C INSTRUCTION LOAD MPKI: 0.00838
L2C RFO       ACCESS:     500357  HIT:       1952  MISS:     498405  HIT %:   0.390121  MISS %:    99.6099   MPKI: 9.9681
L2C PREFETCH  ACCESS:    1224821  HIT:     182385  MISS:    1042436  HIT %:    14.8907  MISS %:    85.1093   MPKI: 20.8487
L2C DATA PREFETCH MPKI: 20.8487
L2C INSTRUCTION PREFETCH MPKI: 0
L2C WRITEBACK ACCESS:     667218  HIT:     667196  MISS:         22  HIT %:    99.9967  MISS %: 0.00329727   MPKI: 0.00044
L2C LOAD TRANSLATION ACCESS:      39068  HIT:      30454  MISS:       8614  HIT %:    77.9513  MISS %:    22.0487   MPKI: 0.17228
L2C TRANSLATION FROM L1D PREFETCHER ACCESS:          2  HIT:          0  MISS:          2  HIT %:          0  MISS %:        100   MPKI: 4e-05
L2C PREFETCH  REQUESTED:       4324  ISSUED:       4324  USEFUL:     224523  USELESS:     817294
L2C USEFUL LOAD PREFETCHES:     224523 PREFETCH ISSUED TO LOWER LEVEL:    1042450  ACCURACY: 21.538
L2C TIMELY PREFETCHES:     224523 LATE PREFETCHES: 15 DROPPED PREFETCHES: 0
L2C PREFETCHES SAME FILL-ORIGIN LEVEL: 237 DIFFERENT FILL-ORIGIN LEVEL: 0
L2C AVERAGE MISS LATENCY: 316.303 cycles
L2C RQ	ACCESS:    1200342	FORWARD:          0	MERGED:          0	TO_CACHE:    1200334
L2C WQ	ACCESS:     667218	FORWARD:          8	MERGED:          0	TO_CACHE:     667218
L2C PQ	ACCESS:    1225056	FORWARD:          0	MERGED:        150	TO_CACHE:    1224906

L2C Instructions Evicting Data 418
L2C Translations Evicting Data 8562
L2C Data Evicting Data 1636947
L2C Instructions Evicting Instructions 0
L2C Translations Evicting Instructions 4
L2C Data Evicting Instructions 415
L2C Instructions Evicting Translations 1
L2C Translations Evicting Translations 50
L2C Data Evicting Translations 8579
L2C Dense regions hint from L2: 0
PSCL5 TOTAL     ACCESS:      38974  HIT:      38974  MISS:          0  HIT %:        100  MISS %:          0   MPKI: 0
PSCL5 LOAD TRANSLATION ACCESS:      38973  HIT:      38973  MISS:          0  HIT %:        100  MISS %:          0   MPKI: 0
PSCL5 TRANSLATION FROM L1D PREFETCHER ACCESS:          1  HIT:          1  MISS:          0  HIT %:        100  MISS %:          0   MPKI: 0
PSCL5 PREFETCH  REQUESTED:          0  ISSUED:          0  USEFUL:          0  USELESS:          0
PSCL5 USEFUL LOAD PREFETCHES:          0 PREFETCH ISSUED TO LOWER LEVEL:          0  ACCURACY: -nan
PSCL5 TIMELY PREFETCHES:          0 LATE PREFETCHES: 0 DROPPED PREFETCHES: 0
PSCL5 PREFETCHES SAME FILL-ORIGIN LEVEL: 0 DIFFERENT FILL-ORIGIN LEVEL: 0

PSCL4 TOTAL     ACCESS:      38974  HIT:      38974  MISS:          0  HIT %:        100  MISS %:          0   MPKI: 0
PSCL4 LOAD TRANSLATION ACCESS:      38973  HIT:      38973  MISS:          0  HIT %:        100  MISS %:          0   MPKI: 0
PSCL4 TRANSLATION FROM L1D PREFETCHER ACCESS:          1  HIT:          1  MISS:          0  HIT %:        100  MISS %:          0   MPKI: 0
PSCL4 PREFETCH  REQUESTED:          0  ISSUED:          0  USEFUL:          0  USELESS:          0
PSCL4 USEFUL LOAD PREFETCHES:          0 PREFETCH ISSUED TO LOWER LEVEL:          0  ACCURACY: -nan
PSCL4 TIMELY PREFETCHES:          0 LATE PREFETCHES: 0 DROPPED PREFETCHES: 0
PSCL4 PREFETCHES SAME FILL-ORIGIN LEVEL: 0 DIFFERENT FILL-ORIGIN LEVEL: 0

PSCL3 TOTAL     ACCESS:      38974  HIT:      38973  MISS:          1  HIT %:    99.9974  MISS %: 0.00256581   MPKI: 2e-05
PSCL3 LOAD TRANSLATION ACCESS:      38973  HIT:      38972  MISS:          1  HIT %:    99.9974  MISS %: 0.00256588   MPKI: 2e-05
PSCL3 TRANSLATION FROM L1D PREFETCHER ACCESS:          1  HIT:          1  MISS:          0  HIT %:        100  MISS %:          0   MPKI: 0
PSCL3 PREFETCH  REQUESTED:          0  ISSUED:          0  USEFUL:          0  USELESS:          0
PSCL3 USEFUL LOAD PREFETCHES:          0 PREFETCH ISSUED TO LOWER LEVEL:          0  ACCURACY: -nan
PSCL3 TIMELY PREFETCHES:          0 LATE PREFETCHES: 0 DROPPED PREFETCHES: 0
PSCL3 PREFETCHES SAME FILL-ORIGIN LEVEL: 0 DIFFERENT FILL-ORIGIN LEVEL: 0

PSCL2 TOTAL     ACCESS:      38974  HIT:      38782  MISS:        192  HIT %:    99.5074  MISS %:   0.492636   MPKI: 0.00384
PSCL2 LOAD TRANSLATION ACCESS:      38974  HIT:      38782  MISS:        192  HIT %:    99.5074  MISS %:   0.492636   MPKI: 0.00384
PSCL2 PREFETCH  REQUESTED:          0  ISSUED:          0  USEFUL:          0  USELESS:          0
PSCL2 USEFUL LOAD PREFETCHES:          0 PREFETCH ISSUED TO LOWER LEVEL:          0  ACCURACY: -nan
PSCL2 TIMELY PREFETCHES:          0 LATE PREFETCHES: 0 DROPPED PREFETCHES: 0
PSCL2 PREFETCHES SAME FILL-ORIGIN LEVEL: 0 DIFFERENT FILL-ORIGIN LEVEL: 0

LLC TOTAL     ACCESS:    2320381  HIT:     665723  MISS:    1654658  HIT %:    28.6902  MISS %:    71.3098   MPKI: 33.0932
LLC LOAD      ACCESS:     105504  HIT:        228  MISS:     105276  HIT %:   0.216106  MISS %:    99.7839   MPKI: 2.10552
LLC RFO       ACCESS:     498405  HIT:          4  MISS:     498401  HIT %: 0.00080256  MISS %:    99.9992   MPKI: 9.96802
LLC PREFETCH  ACCESS:    1042451  HIT:         77  MISS:    1042374  HIT %: 0.00738644  MISS %:    99.9926   MPKI: 20.8475
LLC WRITEBACK ACCESS:     665405  HIT:     665376  MISS:         29  HIT %:    99.9956  MISS %: 0.00435825   MPKI: 0.00058
LLC LOAD TRANSLATION ACCESS:       8614  HIT:         38  MISS:       8576  HIT %:   0.441142  MISS %:    99.5589   MPKI: 0.17152
LLC TRANSLATION FROM L1D PREFETCHER ACCESS:          2  HIT:          0  MISS:          2  HIT %:          0  MISS %:        100   MPKI: 4e-05
LLC PREFETCH  REQUESTED:          0  ISSUED:          0  USEFUL:          1  USELESS:    1044111
LLC USEFUL LOAD PREFETCHES:          1 PREFETCH ISSUED TO LOWER LEVEL:    1042374  ACCURACY: 9.59349e-05
LLC TIMELY PREFETCHES:          1 LATE PREFETCHES: 0 DROPPED PREFETCHES: 0
LLC PREFETCHES SAME FILL-ORIGIN LEVEL: 0 DIFFERENT FILL-ORIGIN LEVEL: 0
LLC AVERAGE MISS LATENCY: 285.224 cycles
LLC RQ	ACCESS:     612525	FORWARD:          0	MERGED:          0	TO_CACHE:     612525
LLC WQ	ACCESS:     665405	FORWARD:          0	MERGED:          0	TO_CACHE:     665405
LLC PQ	ACCESS:    1042450	FORWARD:          0	MERGED:          0	TO_CACHE:    1042450

LLC Dense regions hint to LLC: 0

RAW hits: 1909
Loads Generated: 17795006
Loads sent to L1D: 17793092
Stores Generated: 5193403
Stores sent to L1D: 5193404
Major fault: 0 Minor fault: 31870
Allocated PAGES: 31870

stream: 
stream:times selected: 2352107
stream:pref_filled: 742329
stream:pref_useful: 413517
stream:pref_late: 335373
stream:misses: 996
stream:misses_by_poll: 0

CS: 
CS:times selected: 2157188
CS:pref_filled: 3048
CS:pref_useful: 1433
CS:pref_late: 1166
CS:misses: 13574
CS:misses_by_poll: 18

CPLX: 
CPLX:times selected: 2333141
CPLX:pref_filled: 525058
CPLX:pref_useful: 288413
CPLX:pref_late: 60997
CPLX:misses: 1836619
CPLX:misses_by_poll: 5265

NL_L1: 
NL:times selected: 74
NL:pref_filled: 11
NL:pref_useful: 8
NL:pref_late: 7
NL:misses: 34
NL:misses_by_poll: 0

total selections: 6842510
total_filled: 815546
total_useful: 504115
total_late: 405240
total_polluted: 5283
total_misses_after_warmup: 1594159
conflicts: 1091
Degree Incremented Times: 968
Degree Decremented Times: 1214618

L1 IP Table Write Accesses: 8399159
L1 IP Table Read Accesses: 8398068
L1 RST Write Accesses: 1944691
L1 RST Read Accesses: 3889382
L1 CSPT Write Accesses: 1944691
L1 CSPT Read Accesses: 5580227
L1 RR Filter Tag Write Accesses: 1553556
L1 RR Filter Tag Read Accesses: 185495090
L1 IP Table Tag Write Accesses: 8413067
L1 IP Table Tag Read Accesses: 8413067
L1 RST Tag Write Accesses: 0
L1 RST Tag Read Accesses: 17533677
L1 RR Filter Write Accesses: 0
L1 RR Filter Read Accesses: 7122458
test: 48642
L2 IP Table Read Accesses: 3757395
L2 IP Table Write Accesses: 3102014
L2 IP Table Tag Read Accesses: 1880917
L2 IP Table Tag Write Accesses: 1880917

DRAM Statistics
 CHANNEL 0
 RQ ROW_BUFFER_HIT:     367913  ROW_BUFFER_MISS:    1286716
 DBUS_CONGESTED:        309
 WQ ROW_BUFFER_HIT:     176593  ROW_BUFFER_MISS:     487245  FULL:          0

 AVG_CONGESTED_CYCLE: 6
 All warmup complete: 2
Channel 0 Bank busy for read cycles: 0
Channel 0 Bank busy for write cycles: 0
Channel 0
Rank 0
0banks busy for read cycles: 2558692
0banks busy for write cycles: 3880
1banks busy for read cycles: 7271294
1banks busy for write cycles: 593895
2banks busy for read cycles: 13312254
2banks busy for write cycles: 260964
3banks busy for read cycles: 12390590
3banks busy for write cycles: 149199
4banks busy for read cycles: 9317477
4banks busy for write cycles: 148880
5banks busy for read cycles: 6519441
5banks busy for write cycles: 150025
6banks busy for read cycles: 6497197
6banks busy for write cycles: 164476
7banks busy for read cycles: 4146704
7banks busy for write cycles: 952656
8banks busy for read cycles: 1604972
8banks busy for write cycles: 16259404

CPU 0 Branch Prediction Accuracy: 99.7911% MPKI: 0.12922 Average ROB Occupancy at Mispredict: 262.021
Branch types
NOT_BRANCH: 46907122 93.8142%
BRANCH_DIRECT_JUMP: 167 0.000334%
BRANCH_INDIRECT: 0 0%
BRANCH_CONDITIONAL: 3092362 6.18472%
BRANCH_DIRECT_CALL: 137 0.000274%
BRANCH_INDIRECT_CALL: 0 0%
BRANCH_RETURN: 137 0.000274%
BRANCH_OTHER: 0 0%

@sumon_overall_L1D    504115    405187    311415    815546   3095458   3101285
@Sumon_Early_by_class_L1D    214662      1056    288297         7
@Sumon_Late_by_class_L1D    335324      1166     60996         7

@Sumon_Early_by_cycle_L1D    168030     61092     36745     29133     45365    159808      3406       414        65        57         0         0
@Sumon_Late_by_cycle_L1D    152158    176931     70947      4869       215        67         0         0         0         0         0         0
@Sumon_Early_stream_L1D    137312     46114     24111      4828      1195       866         5       220         1        10         0         0
@Sumon_Early_CS_L1D       540       225       233        27        13         6         0        11         1         0         0         0
@Sumon_Early_CPLX_L1D     30170     14746     12326     24268     44157    158936      3401       183        63        47         0         0
@Sumon_Late_stream_L1D    124120    153917     54427      2768        64        28         0         0         0         0         0         0
@Sumon_Late_CS_L1D       411       564       186         5         0         0         0         0         0         0         0         0
@Sumon_Late_CPLX_L1D     19934     22443     16333      2096       151        39         0         0         0         0         0         0
@sumon_overall_L2C    224523        15    817294   1042438      4324      4324
@Sumon_Early_by_class_L2C     51870       532    172040         0
@Sumon_Late_by_class_L2C         0         0         0         0

@Sumon_Early_by_cycle_L2C      9044     19320      9067     16557     35304    106523      2309       502     15020      9360        28      1489
@Sumon_Late_by_cycle_L2C         4        10         1         0         0         0         0         0         0         0         0         0
@Sumon_Early_stream_L2C      7905     15266      5538      2209      1019      1692         5       325     14940      2770         1       200
@Sumon_Early_CS_L2C        27        80       148        75        61        71         0         3        43        18         0         6
@Sumon_Early_CPLX_L2C      1102      3966      3376     14269     34221    104743      2291       174        35      6567        17      1279
@Sumon_Late_stream_L2C         0         0         0         0         0         0         0         0         0         0         0         0
@Sumon_Late_CS_L2C         0         0         0         0         0         0         0         0         0         0         0         0
@Sumon_Late_CPLX_L2C         0         0         0         0         0         0         0         0         0         0         0         0
DRAM PAGES: 1048576
Allocated PAGES: 31870
