
*** ChampSim Multicore Out-of-Order Simulator ***

Warmup Instructions: 10000000
Simulation Instructions: 50000000
Number of CPUs: 1
LLC sets: 2048
LLC ways: 16
Off-chip DRAM Size: 4096 MB Channels: 1 Width: 64-bit Data Rate: 6400 MT/s
CPU 0 runs traces/SPEC2017/654.roms_s-1070B.champsimtrace.xz
.xz
CPU 0 Bimodal branch predictor
BTB has LRU replacement policy
ITLB has LRU replacement policy
DTLB has LRU replacement policy
STLB has LRU replacement policy
L1I has LRU replacement policy
IP Table Entries: 256
Initialize DRRIP state for L1D
IP_Table L2 entries: 256
L2C has LRU replacement policy
LLC has LRU replacement policy
Heartbeat CPU 0 instructions: 10000002 cycles: 3116411 heartbeat IPC: 3.20882 cumulative IPC: 3.20882 (Simulation time: 0 hr 11 min 51 sec) 

Warmup complete CPU 0 instructions: 10000002 cycles: 3116411 (Simulation time: 0 hr 11 min 51 sec) 

Heartbeat CPU 0 instructions: 20000000 cycles: 13245865 heartbeat IPC: 0.98722 cumulative IPC: 0.98722 (Simulation time: 0 hr 22 min 50 sec) 
Heartbeat CPU 0 instructions: 30000003 cycles: 23530890 heartbeat IPC: 0.972288 cumulative IPC: 0.979697 (Simulation time: 0 hr 33 min 32 sec) 
Heartbeat CPU 0 instructions: 40000001 cycles: 37767746 heartbeat IPC: 0.702402 cumulative IPC: 0.865767 (Simulation time: 0 hr 48 min 42 sec) 
Heartbeat CPU 0 instructions: 50000000 cycles: 46383877 heartbeat IPC: 1.16061 cumulative IPC: 0.924482 (Simulation time: 0 hr 57 min 10 sec) 
Heartbeat CPU 0 instructions: 60000000 cycles: 61332301 heartbeat IPC: 0.668967 cumulative IPC: 0.858872 (Simulation time: 1 hr 5 min 51 sec) 
Finished CPU 0 instructions: 50000002 cycles: 58215892 cumulative IPC: 0.858872 (Simulation time: 1 hr 5 min 51 sec) 

ChampSim completed all CPUs

Region of Interest Statistics

CPU 0 cumulative IPC: 0.858872 instructions: 50000002 cycles: 58215892
ITLB TOTAL     ACCESS:    7665304  HIT:    7665304  MISS:          0  HIT %:        100  MISS %:          0   MPKI: 0
ITLB LOAD TRANSLATION ACCESS:    7665304  HIT:    7665304  MISS:          0  HIT %:        100  MISS %:          0   MPKI: 0
ITLB PREFETCH  REQUESTED:          0  ISSUED:          0  USEFUL:          0  USELESS:          0
ITLB USEFUL LOAD PREFETCHES:          0 PREFETCH ISSUED TO LOWER LEVEL:          0  ACCURACY: -nan
ITLB TIMELY PREFETCHES:          0 LATE PREFETCHES: 0 DROPPED PREFETCHES: 0
ITLB PREFETCHES SAME FILL-ORIGIN LEVEL: 0 DIFFERENT FILL-ORIGIN LEVEL: 0
ITLB AVERAGE MISS LATENCY: -nan cycles
ITLB RQ	ACCESS:    8194557	FORWARD:          0	MERGED:     529254	TO_CACHE:    7665303

DTLB TOTAL     ACCESS:   12981762  HIT:   12957675  MISS:      24087  HIT %:    99.8145  MISS %:   0.185545   MPKI: 0.48174
DTLB LOAD TRANSLATION ACCESS:   12981762  HIT:   12957675  MISS:      24087  HIT %:    99.8145  MISS %:   0.185545   MPKI: 0.48174
DTLB PREFETCH  REQUESTED:          0  ISSUED:          0  USEFUL:          0  USELESS:          0
DTLB USEFUL LOAD PREFETCHES:          0 PREFETCH ISSUED TO LOWER LEVEL:          0  ACCURACY: -nan
DTLB TIMELY PREFETCHES:          0 LATE PREFETCHES: 0 DROPPED PREFETCHES: 0
DTLB PREFETCHES SAME FILL-ORIGIN LEVEL: 0 DIFFERENT FILL-ORIGIN LEVEL: 0
DTLB AVERAGE MISS LATENCY: 188.934 cycles
DTLB RQ	ACCESS:   14333790	FORWARD:          0	MERGED:    1329566	TO_CACHE:   13004224

STLB TOTAL     ACCESS:     728967  HIT:     704894  MISS:      24073  HIT %:    96.6977  MISS %:    3.30234   MPKI: 0.48146
STLB LOAD TRANSLATION ACCESS:      24087  HIT:         14  MISS:      24073  HIT %:  0.0581226  MISS %:    99.9419   MPKI: 0.48146
STLB TRANSLATION FROM L1D PREFETCHER ACCESS:     704880  HIT:     704880  MISS:          0  HIT %:        100  MISS %:          0   MPKI: 0
STLB PREFETCH  REQUESTED:          0  ISSUED:          0  USEFUL:          0  USELESS:          0
STLB USEFUL LOAD PREFETCHES:          0 PREFETCH ISSUED TO LOWER LEVEL:          0  ACCURACY: -nan
STLB TIMELY PREFETCHES:          0 LATE PREFETCHES: 0 DROPPED PREFETCHES: 0
STLB PREFETCHES SAME FILL-ORIGIN LEVEL: 0 DIFFERENT FILL-ORIGIN LEVEL: 0
STLB AVERAGE MISS LATENCY: 178.67 cycles
STLB RQ	ACCESS:     769411	FORWARD:          0	MERGED:      40444	TO_CACHE:     728967

STLB Hit, L1D data hit: 0
STLB Hit, L2C data hit: 0
STLB Hit, LLC data hit: 0
STLB Hit, LLC data miss: 0
STLB STLB hints to L2: 0
L1D TOTAL     ACCESS:   12978478  HIT:   11644666  MISS:    1333812  HIT %:    89.7229  MISS %:    10.2771   MPKI: 26.6762
L1D LOAD      ACCESS:   11486392  HIT:   11177072  MISS:     309320  HIT %:    97.3071  MISS %:    2.69293   MPKI: 6.1864
L1D RFO       ACCESS:     809217  HIT:     464784  MISS:     344433  HIT %:    57.4363  MISS %:    42.5637   MPKI: 6.88866
L1D PREFETCH  ACCESS:     682869  HIT:       2810  MISS:     680059  HIT %:   0.411499  MISS %:    99.5885   MPKI: 13.6012
L1D PREFETCH  REQUESTED:    1490648  ISSUED:    1490648  USEFUL:     510061  USELESS:     170000
L1D USEFUL LOAD PREFETCHES:     510061 PREFETCH ISSUED TO LOWER LEVEL:     740235  ACCURACY: 68.9053
L1D TIMELY PREFETCHES:     510061 LATE PREFETCHES: 60175 DROPPED PREFETCHES: 0
L1D PREFETCHES SAME FILL-ORIGIN LEVEL: 740235 DIFFERENT FILL-ORIGIN LEVEL: 0
L1D AVERAGE MISS LATENCY: 1.60901e+06 cycles
L1D RQ	ACCESS:   18807447	FORWARD:          0	MERGED:    7212383	TO_CACHE:   11595064
L1D WQ	ACCESS:    2738726	FORWARD:          0	MERGED:          0	TO_CACHE:    2738726
L1D PQ	ACCESS:     745324	FORWARD:          0	MERGED:          0	TO_CACHE:     745324

L1D UNIQUE REGIONS ACCESSED: 0
L1D REGIONS CONFLICTS: 0
L1D Cross Page Prefetch Requests: 0
L1D Same Page Prefetch Requests: 897080
L1D ROI Sum of L1D PQ occupancy: 11514440
L1D PREFETCHES PUSHED FROM L2C: 0
L1I TOTAL     ACCESS:    8194558  HIT:    8194558  MISS:          0  HIT %:        100  MISS %:          0   MPKI: 0
L1I LOAD      ACCESS:    8194558  HIT:    8194558  MISS:          0  HIT %:        100  MISS %:          0   MPKI: 0
L1I PREFETCH  REQUESTED:          0  ISSUED:          0  USEFUL:          0  USELESS:          0
L1I USEFUL LOAD PREFETCHES:          0 PREFETCH ISSUED TO LOWER LEVEL:          0  ACCURACY: -nan
L1I TIMELY PREFETCHES:          0 LATE PREFETCHES: 0 DROPPED PREFETCHES: 0
L1I PREFETCHES SAME FILL-ORIGIN LEVEL: 0 DIFFERENT FILL-ORIGIN LEVEL: 0
L1I AVERAGE MISS LATENCY: -nan cycles
L1I RQ	ACCESS:   13261546	FORWARD:          0	MERGED:    5066989	TO_CACHE:    8194557

BTB TOTAL     ACCESS:    2779529  HIT:    2779520  MISS:          9  HIT %:    99.9997  MISS %: 0.000323796   MPKI: 0.00018
BTB BRANCH_DIRECT_JUMP	ACCESS:          0  HIT:          0  MISS:          0
BTB BRANCH_INDIRECT	ACCESS:          0  HIT:          0  MISS:          0
BTB BRANCH_CONDITIONAL	ACCESS:    2779529  HIT:    2779520  MISS:          9
BTB BRANCH_DIRECT_CALL	ACCESS:          0  HIT:          0  MISS:          0
BTB BRANCH_INDIRECT_CALL	ACCESS:          0  HIT:          0  MISS:          0
BTB BRANCH_RETURN	ACCESS:          0  HIT:          0  MISS:          0
BTB BRANCH_OTHER ACCESS:          0  HIT:          0  MISS:          0

L2C TOTAL     ACCESS:    1702458  HIT:     589927  MISS:    1112531  HIT %:    34.6515  MISS %:    65.3485   MPKI: 22.2506
L2C LOAD      ACCESS:     249145  HIT:     226133  MISS:      23012  HIT %:    90.7636  MISS %:    9.23639   MPKI: 0.46024
L2C DATA LOAD MPKI: 0.46024
L2C INSTRUCTION LOAD MPKI: 0
L2C RFO       ACCESS:     344433  HIT:         49  MISS:     344384  HIT %:  0.0142263  MISS %:    99.9858   MPKI: 6.88768
L2C PREFETCH  ACCESS:     740257  HIT:         48  MISS:     740209  HIT %: 0.00648423  MISS %:    99.9935   MPKI: 14.8042
L2C DATA PREFETCH MPKI: 14.8042
L2C INSTRUCTION PREFETCH MPKI: 0
L2C WRITEBACK ACCESS:     344526  HIT:     344504  MISS:         22  HIT %:    99.9936  MISS %: 0.00638558   MPKI: 0.00044
L2C LOAD TRANSLATION ACCESS:      24097  HIT:      19193  MISS:       4904  HIT %:    79.6489  MISS %:    20.3511   MPKI: 0.09808
L2C PREFETCH  REQUESTED:         70  ISSUED:         70  USEFUL:     151549  USELESS:     588591
L2C USEFUL LOAD PREFETCHES:     151549 PREFETCH ISSUED TO LOWER LEVEL:     740210  ACCURACY: 20.4738
L2C TIMELY PREFETCHES:     151549 LATE PREFETCHES: 0 DROPPED PREFETCHES: 0
L2C PREFETCHES SAME FILL-ORIGIN LEVEL: 6 DIFFERENT FILL-ORIGIN LEVEL: 0
L2C AVERAGE MISS LATENCY: 289.915 cycles
L2C RQ	ACCESS:     617677	FORWARD:          0	MERGED:          0	TO_CACHE:     617677
L2C WQ	ACCESS:     344526	FORWARD:          0	MERGED:          0	TO_CACHE:     344526
L2C PQ	ACCESS:     740305	FORWARD:          0	MERGED:         29	TO_CACHE:     740276

L2C Instructions Evicting Data 0
L2C Translations Evicting Data 4868
L2C Data Evicting Data 1102734
L2C Instructions Evicting Instructions 0
L2C Translations Evicting Instructions 0
L2C Data Evicting Instructions 0
L2C Instructions Evicting Translations 0
L2C Translations Evicting Translations 36
L2C Data Evicting Translations 4871
L2C Dense regions hint from L2: 0
PSCL5 TOTAL     ACCESS:      24073  HIT:      24073  MISS:          0  HIT %:        100  MISS %:          0   MPKI: 0
PSCL5 LOAD TRANSLATION ACCESS:      24073  HIT:      24073  MISS:          0  HIT %:        100  MISS %:          0   MPKI: 0
PSCL5 PREFETCH  REQUESTED:          0  ISSUED:          0  USEFUL:          0  USELESS:          0
PSCL5 USEFUL LOAD PREFETCHES:          0 PREFETCH ISSUED TO LOWER LEVEL:          0  ACCURACY: -nan
PSCL5 TIMELY PREFETCHES:          0 LATE PREFETCHES: 0 DROPPED PREFETCHES: 0
PSCL5 PREFETCHES SAME FILL-ORIGIN LEVEL: 0 DIFFERENT FILL-ORIGIN LEVEL: 0

PSCL4 TOTAL     ACCESS:      24073  HIT:      24073  MISS:          0  HIT %:        100  MISS %:          0   MPKI: 0
PSCL4 LOAD TRANSLATION ACCESS:      24073  HIT:      24073  MISS:          0  HIT %:        100  MISS %:          0   MPKI: 0
PSCL4 PREFETCH  REQUESTED:          0  ISSUED:          0  USEFUL:          0  USELESS:          0
PSCL4 USEFUL LOAD PREFETCHES:          0 PREFETCH ISSUED TO LOWER LEVEL:          0  ACCURACY: -nan
PSCL4 TIMELY PREFETCHES:          0 LATE PREFETCHES: 0 DROPPED PREFETCHES: 0
PSCL4 PREFETCHES SAME FILL-ORIGIN LEVEL: 0 DIFFERENT FILL-ORIGIN LEVEL: 0

PSCL3 TOTAL     ACCESS:      24073  HIT:      24073  MISS:          0  HIT %:        100  MISS %:          0   MPKI: 0
PSCL3 LOAD TRANSLATION ACCESS:      24073  HIT:      24073  MISS:          0  HIT %:        100  MISS %:          0   MPKI: 0
PSCL3 PREFETCH  REQUESTED:          0  ISSUED:          0  USEFUL:          0  USELESS:          0
PSCL3 USEFUL LOAD PREFETCHES:          0 PREFETCH ISSUED TO LOWER LEVEL:          0  ACCURACY: -nan
PSCL3 TIMELY PREFETCHES:          0 LATE PREFETCHES: 0 DROPPED PREFETCHES: 0
PSCL3 PREFETCHES SAME FILL-ORIGIN LEVEL: 0 DIFFERENT FILL-ORIGIN LEVEL: 0

PSCL2 TOTAL     ACCESS:      24073  HIT:      24008  MISS:         65  HIT %:      99.73  MISS %:   0.270012   MPKI: 0.0013
PSCL2 LOAD TRANSLATION ACCESS:      24073  HIT:      24008  MISS:         65  HIT %:      99.73  MISS %:   0.270012   MPKI: 0.0013
PSCL2 PREFETCH  REQUESTED:          0  ISSUED:          0  USEFUL:          0  USELESS:          0
PSCL2 USEFUL LOAD PREFETCHES:          0 PREFETCH ISSUED TO LOWER LEVEL:          0  ACCURACY: -nan
PSCL2 TIMELY PREFETCHES:          0 LATE PREFETCHES: 0 DROPPED PREFETCHES: 0
PSCL2 PREFETCHES SAME FILL-ORIGIN LEVEL: 0 DIFFERENT FILL-ORIGIN LEVEL: 0

LLC TOTAL     ACCESS:    1457020  HIT:     344526  MISS:    1112494  HIT %:    23.6459  MISS %:    76.3541   MPKI: 22.2499
LLC LOAD      ACCESS:      23012  HIT:         19  MISS:      22993  HIT %:  0.0825656  MISS %:    99.9174   MPKI: 0.45986
LLC RFO       ACCESS:     344384  HIT:          0  MISS:     344384  HIT %:          0  MISS %:        100   MPKI: 6.88768
LLC PREFETCH  ACCESS:     740209  HIT:          0  MISS:     740209  HIT %:          0  MISS %:        100   MPKI: 14.8042
LLC WRITEBACK ACCESS:     344511  HIT:     344494  MISS:         17  HIT %:    99.9951  MISS %: 0.00493453   MPKI: 0.00034
LLC LOAD TRANSLATION ACCESS:       4904  HIT:         13  MISS:       4891  HIT %:    0.26509  MISS %:    99.7349   MPKI: 0.09782
LLC PREFETCH  REQUESTED:          0  ISSUED:          0  USEFUL:          0  USELESS:     739999
LLC USEFUL LOAD PREFETCHES:          0 PREFETCH ISSUED TO LOWER LEVEL:     740210  ACCURACY: 0
LLC TIMELY PREFETCHES:          0 LATE PREFETCHES: 0 DROPPED PREFETCHES: 0
LLC PREFETCHES SAME FILL-ORIGIN LEVEL: 0 DIFFERENT FILL-ORIGIN LEVEL: 0
LLC AVERAGE MISS LATENCY: 259.075 cycles
LLC RQ	ACCESS:     372302	FORWARD:          0	MERGED:          0	TO_CACHE:     372302
LLC WQ	ACCESS:     344511	FORWARD:          0	MERGED:          0	TO_CACHE:     344511
LLC PQ	ACCESS:     740210	FORWARD:          0	MERGED:          0	TO_CACHE:     740210

LLC Dense regions hint to LLC: 0

RAW hits: 2
Loads Generated: 18807450
Loads sent to L1D: 18807447
Stores Generated: 2738725
Stores sent to L1D: 2738726
Major fault: 0 Minor fault: 15227
Allocated PAGES: 15227

stream: 
stream:times selected: 1874604
stream:pref_filled: 17803
stream:pref_useful: 12414
stream:pref_late: 1766
stream:misses: 131
stream:misses_by_poll: 0

CS: 
CS:times selected: 1755249
CS:pref_filled: 809533
CS:pref_useful: 590707
CS:pref_late: 56004
CS:misses: 602728
CS:misses_by_poll: 4837

CPLX: 
CPLX:times selected: 119265
CPLX:pref_filled: 3739
CPLX:pref_useful: 2055
CPLX:pref_late: 1193
CPLX:misses: 6174
CPLX:misses_by_poll: 27

NL_L1: 
NL:times selected: 36
NL:pref_filled: 6
NL:pref_useful: 3
NL:pref_late: 2
NL:misses: 5
NL:misses_by_poll: 0

total selections: 3749154
total_filled: 680059
total_useful: 510061
total_late: 60337
total_polluted: 4864
total_misses_after_warmup: 417993
conflicts: 22
Degree Incremented Times: 2012
Degree Decremented Times: 1274

L1 IP Table Write Accesses: 11593106
L1 IP Table Read Accesses: 11593084
L1 RST Write Accesses: 1577365
L1 RST Read Accesses: 3154730
L1 CSPT Write Accesses: 1577365
L1 CSPT Read Accesses: 1928230
L1 RR Filter Tag Write Accesses: 745324
L1 RR Filter Tag Read Accesses: 157153846
L1 IP Table Tag Write Accesses: 11595065
L1 IP Table Tag Read Accesses: 11595065
L1 RST Tag Write Accesses: 0
L1 RST Tag Read Accesses: 14268276
L1 RR Filter Write Accesses: 0
L1 RR Filter Read Accesses: 6092603
test: 40345
L2 IP Table Read Accesses: 1978461
L2 IP Table Write Accesses: 1729330
L2 IP Table Tag Read Accesses: 989234
L2 IP Table Tag Write Accesses: 989234

DRAM Statistics
 CHANNEL 0
 RQ ROW_BUFFER_HIT:     219927  ROW_BUFFER_MISS:     892550
 DBUS_CONGESTED:         15
 WQ ROW_BUFFER_HIT:     103501  ROW_BUFFER_MISS:     241070  FULL:          0

 AVG_CONGESTED_CYCLE: 5
 All warmup complete: 2
Channel 0 Bank busy for read cycles: 0
Channel 0 Bank busy for write cycles: 0
Channel 0
Rank 0
0banks busy for read cycles: 57912
0banks busy for write cycles: 0
1banks busy for read cycles: 5924288
1banks busy for write cycles: 59902
2banks busy for read cycles: 13903152
2banks busy for write cycles: 59910
3banks busy for read cycles: 15347153
3banks busy for write cycles: 60419
4banks busy for read cycles: 6999198
4banks busy for write cycles: 60314
5banks busy for read cycles: 3317268
5banks busy for write cycles: 61614
6banks busy for read cycles: 1679397
6banks busy for write cycles: 72544
7banks busy for read cycles: 921630
7banks busy for write cycles: 502642
8banks busy for read cycles: 981454
8banks busy for write cycles: 8207096

CPU 0 Branch Prediction Accuracy: 99.8858% MPKI: 0.06352 Average ROB Occupancy at Mispredict: 233.735
Branch types
NOT_BRANCH: 47219347 94.4387%
BRANCH_DIRECT_JUMP: 0 0%
BRANCH_INDIRECT: 0 0%
BRANCH_CONDITIONAL: 2780656 5.56131%
BRANCH_DIRECT_CALL: 0 0%
BRANCH_INDIRECT_CALL: 0 0%
BRANCH_RETURN: 0 0%
BRANCH_OTHER: 0 0%

@sumon_overall_L1D    510061     60175    170000    680059   1490648   1490648
@Sumon_Early_by_class_L1D     11022    497094      1944         2
@Sumon_Late_by_class_L1D      1617     55993      1193         2

@Sumon_Early_by_cycle_L1D     29053     28958     38993    165853    206796     40353        55         0         0         0         0         0
@Sumon_Late_by_cycle_L1D     22271     14954     19357      3359       230         4         0         0         0         0         0         0
@Sumon_Early_stream_L1D      2407      5109      2246       746       356       157         1         0         0         0         0         0
@Sumon_Early_CS_L1D     25907     23319     36514    164929    206289     40127         9         0         0         0         0         0
@Sumon_Early_CPLX_L1D       738       530       233       178       151        69        45         0         0         0         0         0
@Sumon_Late_stream_L1D       296       699       543        76         3         0         0         0         0         0         0         0
@Sumon_Late_CS_L1D     20102     13953     18507      3215       212         4         0         0         0         0         0         0
@Sumon_Late_CPLX_L1D       503       300       307        68        15         0         0         0         0         0         0         0
@sumon_overall_L2C    151549         0    588591    740209        70        70
@Sumon_Early_by_class_L2C      3793    147331       422         0
@Sumon_Late_by_class_L2C         0         0         0         0

@Sumon_Early_by_cycle_L2C      2281     10579     10936     57704     59690     10318        40         0         0         1         0         0
@Sumon_Late_by_cycle_L2C         0         0         0         0         0         0         0         0         0         0         0         0
@Sumon_Early_stream_L2C        39       908      1901       726       174        44         1         0         0         0         0         0
@Sumon_Early_CS_L2C      2191      9455      8962     56937     59514     10267         5         0         0         0         0         0
@Sumon_Early_CPLX_L2C        51       214        73        41         2         7        34         0         0         0         0         0
@Sumon_Late_stream_L2C         0         0         0         0         0         0         0         0         0         0         0         0
@Sumon_Late_CS_L2C         0         0         0         0         0         0         0         0         0         0         0         0
@Sumon_Late_CPLX_L2C         0         0         0         0         0         0         0         0         0         0         0         0
DRAM PAGES: 1048576
Allocated PAGES: 15227
