
*** ChampSim Multicore Out-of-Order Simulator ***

Warmup Instructions: 10000000
Simulation Instructions: 50000000
Number of CPUs: 1
LLC sets: 2048
LLC ways: 16
Off-chip DRAM Size: 4096 MB Channels: 1 Width: 64-bit Data Rate: 6400 MT/s
CPU 0 runs traces/clientserver/server_031.champsimtrace.xz
.xz
CPU 0 Bimodal branch predictor
BTB has LRU replacement policy
ITLB has LRU replacement policy
DTLB has LRU replacement policy
STLB has LRU replacement policy
L1I has LRU replacement policy
IP Table Entries: 256
L1D has LRU replacement policy
IP_Table L2 entries: 256
Initialize DRRIP state for L2C
LLC has LRU replacement policy
Heartbeat CPU 0 instructions: 10000000 cycles: 2888217 heartbeat IPC: 3.46234 cumulative IPC: 3.46234 (Simulation time: 0 hr 18 min 14 sec) 

Warmup complete CPU 0 instructions: 10000004 cycles: 2888218 (Simulation time: 0 hr 18 min 14 sec) 

Heartbeat CPU 0 instructions: 20000003 cycles: 27242439 heartbeat IPC: 0.410607 cumulative IPC: 0.410606 (Simulation time: 0 hr 35 min 36 sec) 
Heartbeat CPU 0 instructions: 30000003 cycles: 51563972 heartbeat IPC: 0.411158 cumulative IPC: 0.410882 (Simulation time: 0 hr 52 min 44 sec) 
Heartbeat CPU 0 instructions: 40000002 cycles: 75869265 heartbeat IPC: 0.411433 cumulative IPC: 0.411066 (Simulation time: 1 hr 10 min 3 sec) 
Heartbeat CPU 0 instructions: 50000001 cycles: 100142491 heartbeat IPC: 0.411977 cumulative IPC: 0.411293 (Simulation time: 1 hr 26 min 50 sec) 
Heartbeat CPU 0 instructions: 60000000 cycles: 124490482 heartbeat IPC: 0.410711 cumulative IPC: 0.411177 (Simulation time: 1 hr 41 min 16 sec) 
Finished CPU 0 instructions: 50000002 cycles: 121602266 cumulative IPC: 0.411177 (Simulation time: 1 hr 41 min 16 sec) 

ChampSim completed all CPUs

Region of Interest Statistics

CPU 0 cumulative IPC: 0.411177 instructions: 50000002 cycles: 121602266
ITLB TOTAL     ACCESS:    8581758  HIT:    8029718  MISS:     552040  HIT %:    93.5673  MISS %:    6.43271   MPKI: 11.0408
ITLB LOAD TRANSLATION ACCESS:    8581758  HIT:    8029718  MISS:     552040  HIT %:    93.5673  MISS %:    6.43271   MPKI: 11.0408
ITLB PREFETCH  REQUESTED:          0  ISSUED:          0  USEFUL:          0  USELESS:          0
ITLB USEFUL LOAD PREFETCHES:          0 PREFETCH ISSUED TO LOWER LEVEL:          0  ACCURACY: -nan
ITLB TIMELY PREFETCHES:          0 LATE PREFETCHES: 0 DROPPED PREFETCHES: 0
ITLB PREFETCHES SAME FILL-ORIGIN LEVEL: 0 DIFFERENT FILL-ORIGIN LEVEL: 0
ITLB AVERAGE MISS LATENCY: 9.15514 cycles
ITLB RQ	ACCESS:   10296842	FORWARD:          0	MERGED:    1575941	TO_CACHE:    8720901

DTLB TOTAL     ACCESS:   12535245  HIT:   11974711  MISS:     560534  HIT %:    95.5283  MISS %:    4.47166   MPKI: 11.2107
DTLB LOAD TRANSLATION ACCESS:   12535245  HIT:   11974711  MISS:     560534  HIT %:    95.5283  MISS %:    4.47166   MPKI: 11.2107
DTLB PREFETCH  REQUESTED:          0  ISSUED:          0  USEFUL:          0  USELESS:          0
DTLB USEFUL LOAD PREFETCHES:          0 PREFETCH ISSUED TO LOWER LEVEL:          0  ACCURACY: -nan
DTLB TIMELY PREFETCHES:          0 LATE PREFETCHES: 0 DROPPED PREFETCHES: 0
DTLB PREFETCHES SAME FILL-ORIGIN LEVEL: 0 DIFFERENT FILL-ORIGIN LEVEL: 0
DTLB AVERAGE MISS LATENCY: 11.3556 cycles
DTLB RQ	ACCESS:   15682174	FORWARD:          0	MERGED:    3128363	TO_CACHE:   12553811

STLB TOTAL     ACCESS:    1492278  HIT:    1478276  MISS:      14002  HIT %:    99.0617  MISS %:   0.938297   MPKI: 0.28004
STLB LOAD TRANSLATION ACCESS:    1112574  HIT:    1098572  MISS:      14002  HIT %:    98.7415  MISS %:    1.25852   MPKI: 0.28004
STLB TRANSLATION FROM L1D PREFETCHER ACCESS:     379704  HIT:     379704  MISS:          0  HIT %:        100  MISS %:          0   MPKI: 0
STLB PREFETCH  REQUESTED:          0  ISSUED:          0  USEFUL:          0  USELESS:          0
STLB USEFUL LOAD PREFETCHES:          0 PREFETCH ISSUED TO LOWER LEVEL:          0  ACCURACY: -nan
STLB TIMELY PREFETCHES:          0 LATE PREFETCHES: 0 DROPPED PREFETCHES: 0
STLB PREFETCHES SAME FILL-ORIGIN LEVEL: 0 DIFFERENT FILL-ORIGIN LEVEL: 0
STLB AVERAGE MISS LATENCY: 99.3508 cycles
STLB RQ	ACCESS:    1594996	FORWARD:          0	MERGED:     102718	TO_CACHE:    1492278

STLB Hit, L1D data hit: 0
STLB Hit, L2C data hit: 0
STLB Hit, LLC data hit: 0
STLB Hit, LLC data miss: 0
STLB STLB hints to L2: 0
L1D TOTAL     ACCESS:   15600873  HIT:   14185017  MISS:    1415856  HIT %:    90.9245  MISS %:    9.07549   MPKI: 28.3171
L1D LOAD      ACCESS:    8698553  HIT:    7785890  MISS:     912663  HIT %:    89.5079  MISS %:    10.4921   MPKI: 18.2533
L1D RFO       ACCESS:    6488881  HIT:    6179516  MISS:     309365  HIT %:    95.2324  MISS %:    4.76762   MPKI: 6.1873
L1D PREFETCH  ACCESS:     413439  HIT:     219611  MISS:     193828  HIT %:    53.1181  MISS %:    46.8819   MPKI: 3.87656
L1D PREFETCH  REQUESTED:     965121  ISSUED:     965121  USEFUL:      60531  USELESS:     133298
L1D USEFUL LOAD PREFETCHES:      60531 PREFETCH ISSUED TO LOWER LEVEL:     243411  ACCURACY: 24.8678
L1D TIMELY PREFETCHES:      60531 LATE PREFETCHES: 49300 DROPPED PREFETCHES: 0
L1D PREFETCHES SAME FILL-ORIGIN LEVEL: 243411 DIFFERENT FILL-ORIGIN LEVEL: 0
L1D AVERAGE MISS LATENCY: 2.14837e+06 cycles
L1D RQ	ACCESS:   11880863	FORWARD:          0	MERGED:    3019061	TO_CACHE:    8738335
L1D WQ	ACCESS:    6988846	FORWARD:     123744	MERGED:      45007	TO_CACHE:    6943839
L1D PQ	ACCESS:     482699	FORWARD:          0	MERGED:          0	TO_CACHE:     482422

L1D UNIQUE REGIONS ACCESSED: 0
L1D REGIONS CONFLICTS: 0
L1D Cross Page Prefetch Requests: 0
L1D Same Page Prefetch Requests: 574080
L1D ROI Sum of L1D PQ occupancy: 6231046
L1D PREFETCHES PUSHED FROM L2C: 0
L1I TOTAL     ACCESS:    9772238  HIT:    6764965  MISS:    3007273  HIT %:    69.2264  MISS %:    30.7736   MPKI: 60.1455
L1I LOAD      ACCESS:    9772238  HIT:    6764965  MISS:    3007273  HIT %:    69.2264  MISS %:    30.7736   MPKI: 60.1455
L1I PREFETCH  REQUESTED:          0  ISSUED:          0  USEFUL:          0  USELESS:          0
L1I USEFUL LOAD PREFETCHES:          0 PREFETCH ISSUED TO LOWER LEVEL:          0  ACCURACY: -nan
L1I TIMELY PREFETCHES:          0 LATE PREFETCHES: 0 DROPPED PREFETCHES: 0
L1I PREFETCHES SAME FILL-ORIGIN LEVEL: 0 DIFFERENT FILL-ORIGIN LEVEL: 0
L1I AVERAGE MISS LATENCY: 15.5997 cycles
L1I RQ	ACCESS:   14039842	FORWARD:          0	MERGED:    3743000	TO_CACHE:   10296842

BTB TOTAL     ACCESS:    6102273  HIT:    4206279  MISS:    1895994  HIT %:    68.9297  MISS %:    31.0703   MPKI: 37.9199
BTB BRANCH_DIRECT_JUMP	ACCESS:     546758  HIT:     394739  MISS:     152019
BTB BRANCH_INDIRECT	ACCESS:     172660  HIT:     135870  MISS:      36790
BTB BRANCH_CONDITIONAL	ACCESS:    2968194  HIT:    2446710  MISS:     521484
BTB BRANCH_DIRECT_CALL	ACCESS:    1018538  HIT:     647411  MISS:     371127
BTB BRANCH_INDIRECT_CALL	ACCESS:     188789  HIT:     117745  MISS:      71044
BTB BRANCH_RETURN	ACCESS:    1207334  HIT:     463804  MISS:     743530
BTB BRANCH_OTHER ACCESS:          0  HIT:          0  MISS:          0

L2C TOTAL     ACCESS:    5751133  HIT:    5361216  MISS:     389917  HIT %:    93.2202  MISS %:    6.77983   MPKI: 7.79834
L2C LOAD      ACCESS:    3870635  HIT:    3647183  MISS:     223452  HIT %:     94.227  MISS %:    5.77301   MPKI: 4.46904
L2C DATA LOAD MPKI: 1.53224
L2C INSTRUCTION LOAD MPKI: 2.9368
L2C RFO       ACCESS:     309082  HIT:     270512  MISS:      38570  HIT %:    87.5211  MISS %:    12.4789   MPKI: 0.7714
L2C PREFETCH  ACCESS:     955685  HIT:     860622  MISS:      95063  HIT %:    90.0529  MISS %:    9.94711   MPKI: 1.90126
L2C DATA PREFETCH MPKI: 1.90126
L2C INSTRUCTION PREFETCH MPKI: 0
L2C WRITEBACK ACCESS:     594499  HIT:     572331  MISS:      22168  HIT %:    96.2711  MISS %:    3.72885   MPKI: 0.44336
L2C LOAD TRANSLATION ACCESS:      21232  HIT:      10568  MISS:      10664  HIT %:    49.7739  MISS %:    50.2261   MPKI: 0.21328
L2C PREFETCH  REQUESTED:     724765  ISSUED:     724765  USEFUL:       5930  USELESS:      89407
L2C USEFUL LOAD PREFETCHES:       5930 PREFETCH ISSUED TO LOWER LEVEL:      97198  ACCURACY: 6.10095
L2C TIMELY PREFETCHES:       5930 LATE PREFETCHES: 2135 DROPPED PREFETCHES: 0
L2C PREFETCHES SAME FILL-ORIGIN LEVEL: 38628 DIFFERENT FILL-ORIGIN LEVEL: 0
L2C AVERAGE MISS LATENCY: 48.9963 cycles
L2C RQ	ACCESS:    4200950	FORWARD:          0	MERGED:          0	TO_CACHE:    4200949
L2C WQ	ACCESS:     594499	FORWARD:          1	MERGED:          0	TO_CACHE:     594499
L2C PQ	ACCESS:     968176	FORWARD:          0	MERGED:       6270	TO_CACHE:     961906

L2C Instructions Evicting Data 63240
L2C Translations Evicting Data 8342
L2C Data Evicting Data 147768
L2C Instructions Evicting Instructions 81910
L2C Translations Evicting Instructions 1670
L2C Data Evicting Instructions 54590
L2C Instructions Evicting Translations 1689
L2C Translations Evicting Translations 652
L2C Data Evicting Translations 7884
L2C Dense regions hint from L2: 0
PSCL5 TOTAL     ACCESS:      14002  HIT:      14002  MISS:          0  HIT %:        100  MISS %:          0   MPKI: 0
PSCL5 LOAD TRANSLATION ACCESS:      14002  HIT:      14002  MISS:          0  HIT %:        100  MISS %:          0   MPKI: 0
PSCL5 PREFETCH  REQUESTED:          0  ISSUED:          0  USEFUL:          0  USELESS:          0
PSCL5 USEFUL LOAD PREFETCHES:          0 PREFETCH ISSUED TO LOWER LEVEL:          0  ACCURACY: -nan
PSCL5 TIMELY PREFETCHES:          0 LATE PREFETCHES: 0 DROPPED PREFETCHES: 0
PSCL5 PREFETCHES SAME FILL-ORIGIN LEVEL: 0 DIFFERENT FILL-ORIGIN LEVEL: 0

PSCL4 TOTAL     ACCESS:      13332  HIT:      13163  MISS:        169  HIT %:    98.7324  MISS %:    1.26763   MPKI: 0.00338
PSCL4 LOAD TRANSLATION ACCESS:      13332  HIT:      13163  MISS:        169  HIT %:    98.7324  MISS %:    1.26763   MPKI: 0.00338
PSCL4 PREFETCH  REQUESTED:          0  ISSUED:          0  USEFUL:          0  USELESS:          0
PSCL4 USEFUL LOAD PREFETCHES:          0 PREFETCH ISSUED TO LOWER LEVEL:          0  ACCURACY: -nan
PSCL4 TIMELY PREFETCHES:          0 LATE PREFETCHES: 0 DROPPED PREFETCHES: 0
PSCL4 PREFETCHES SAME FILL-ORIGIN LEVEL: 0 DIFFERENT FILL-ORIGIN LEVEL: 0

PSCL3 TOTAL     ACCESS:      13969  HIT:      13800  MISS:        169  HIT %:    98.7902  MISS %:    1.20982   MPKI: 0.00338
PSCL3 LOAD TRANSLATION ACCESS:      13969  HIT:      13800  MISS:        169  HIT %:    98.7902  MISS %:    1.20982   MPKI: 0.00338
PSCL3 PREFETCH  REQUESTED:          0  ISSUED:          0  USEFUL:          0  USELESS:          0
PSCL3 USEFUL LOAD PREFETCHES:          0 PREFETCH ISSUED TO LOWER LEVEL:          0  ACCURACY: -nan
PSCL3 TIMELY PREFETCHES:          0 LATE PREFETCHES: 0 DROPPED PREFETCHES: 0
PSCL3 PREFETCHES SAME FILL-ORIGIN LEVEL: 0 DIFFERENT FILL-ORIGIN LEVEL: 0

PSCL2 TOTAL     ACCESS:      14002  HIT:       7104  MISS:       6898  HIT %:    50.7356  MISS %:    49.2644   MPKI: 0.13796
PSCL2 LOAD TRANSLATION ACCESS:      14002  HIT:       7104  MISS:       6898  HIT %:    50.7356  MISS %:    49.2644   MPKI: 0.13796
PSCL2 PREFETCH  REQUESTED:          0  ISSUED:          0  USEFUL:          0  USELESS:          0
PSCL2 USEFUL LOAD PREFETCHES:          0 PREFETCH ISSUED TO LOWER LEVEL:          0  ACCURACY: -nan
PSCL2 TIMELY PREFETCHES:          0 LATE PREFETCHES: 0 DROPPED PREFETCHES: 0
PSCL2 PREFETCHES SAME FILL-ORIGIN LEVEL: 0 DIFFERENT FILL-ORIGIN LEVEL: 0

LLC TOTAL     ACCESS:     425489  HIT:     370202  MISS:      55287  HIT %:    87.0062  MISS %:    12.9938   MPKI: 1.10574
LLC LOAD      ACCESS:     221349  HIT:     203320  MISS:      18029  HIT %:    91.8549  MISS %:    8.14506   MPKI: 0.36058
LLC RFO       ACCESS:      38538  HIT:      35889  MISS:       2649  HIT %:    93.1263  MISS %:    6.87374   MPKI: 0.05298
LLC PREFETCH  ACCESS:      97198  HIT:      65058  MISS:      32140  HIT %:    66.9335  MISS %:    33.0665   MPKI: 0.6428
LLC WRITEBACK ACCESS:      57740  HIT:      57330  MISS:        410  HIT %:    99.2899  MISS %:    0.71008   MPKI: 0.0082
LLC LOAD TRANSLATION ACCESS:      10664  HIT:       8605  MISS:       2059  HIT %:     80.692  MISS %:     19.308   MPKI: 0.04118
LLC PREFETCH  REQUESTED:          0  ISSUED:          0  USEFUL:       1549  USELESS:      25483
LLC USEFUL LOAD PREFETCHES:       1549 PREFETCH ISSUED TO LOWER LEVEL:      32140  ACCURACY: 4.81954
LLC TIMELY PREFETCHES:       1549 LATE PREFETCHES: 0 DROPPED PREFETCHES: 0
LLC PREFETCHES SAME FILL-ORIGIN LEVEL: 0 DIFFERENT FILL-ORIGIN LEVEL: 0
LLC AVERAGE MISS LATENCY: 145.446 cycles
LLC RQ	ACCESS:     270551	FORWARD:          0	MERGED:          0	TO_CACHE:     270551
LLC WQ	ACCESS:      57740	FORWARD:          0	MERGED:          0	TO_CACHE:      57740
LLC PQ	ACCESS:      97198	FORWARD:          0	MERGED:          0	TO_CACHE:      97198

LLC Dense regions hint to LLC: 0

RAW hits: 576119
Loads Generated: 12456984
Loads sent to L1D: 11880863
Stores Generated: 6988844
Stores sent to L1D: 6988846
Major fault: 0 Minor fault: 5588
Allocated PAGES: 5588

stream: 
stream:times selected: 846266
stream:pref_filled: 132394
stream:pref_useful: 25619
stream:pref_late: 43069
stream:misses: 11442
stream:misses_by_poll: 0

CS: 
CS:times selected: 102527
CS:pref_filled: 61576
CS:pref_useful: 42657
CS:pref_late: 2559
CS:misses: 6265
CS:misses_by_poll: 4

CPLX: 
CPLX:times selected: 741572
CPLX:pref_filled: 37340
CPLX:pref_useful: 6087
CPLX:pref_late: 3031
CPLX:misses: 134427
CPLX:misses_by_poll: 15

NL_L1: 
NL:times selected: 2609
NL:pref_filled: 823
NL:pref_useful: 72
NL:pref_late: 26
NL:misses: 230
NL:misses_by_poll: 0

total selections: 1692974
total_filled: 193828
total_useful: 60531
total_late: 51442
total_polluted: 19
total_misses_after_warmup: 952445
conflicts: 3379666
Degree Incremented Times: 0
Degree Decremented Times: 136197

L1 IP Table Write Accesses: 5081922
L1 IP Table Read Accesses: 1702256
L1 RST Write Accesses: 714140
L1 RST Read Accesses: 1428280
L1 CSPT Write Accesses: 714140
L1 CSPT Read Accesses: 1338637
L1 RR Filter Tag Write Accesses: 482699
L1 RR Filter Tag Read Accesses: 34406697
L1 IP Table Tag Write Accesses: 8738335
L1 IP Table Tag Read Accesses: 8738335
L1 RST Tag Write Accesses: 0
L1 RST Tag Read Accesses: 6977551
L1 RR Filter Write Accesses: 0
L1 RR Filter Read Accesses: 1232928
test: 175337
L2 IP Table Read Accesses: 1469389
L2 IP Table Write Accesses: 1977454
L2 IP Table Tag Read Accesses: 1101499
L2 IP Table Tag Write Accesses: 1101499

DRAM Statistics
 CHANNEL 0
 RQ ROW_BUFFER_HIT:      16359  ROW_BUFFER_MISS:      38518
 DBUS_CONGESTED:          6
 WQ ROW_BUFFER_HIT:        450  ROW_BUFFER_MISS:       1361  FULL:          0

 AVG_CONGESTED_CYCLE: 3
 All warmup complete: 2
Channel 0 Bank busy for read cycles: 0
Channel 0 Bank busy for write cycles: 0
Channel 0
Rank 0
0banks busy for read cycles: 117862579
0banks busy for write cycles: 1298
1banks busy for read cycles: 1476775
1banks busy for write cycles: 248051
2banks busy for read cycles: 1185846
2banks busy for write cycles: 48872
3banks busy for read cycles: 460837
3banks busy for write cycles: 12879
4banks busy for read cycles: 190339
4banks busy for write cycles: 3731
5banks busy for read cycles: 65683
5banks busy for write cycles: 1908
6banks busy for read cycles: 20052
6banks busy for write cycles: 829
7banks busy for read cycles: 7079
7banks busy for write cycles: 162
8banks busy for read cycles: 13138
8banks busy for write cycles: 2209

CPU 0 Branch Prediction Accuracy: 91.8928% MPKI: 15.1591 Average ROB Occupancy at Mispredict: 19.5118
Branch types
NOT_BRANCH: 40650610 81.3012%
BRANCH_DIRECT_JUMP: 546758 1.09352%
BRANCH_INDIRECT: 172660 0.34532%
BRANCH_CONDITIONAL: 6215037 12.4301%
BRANCH_DIRECT_CALL: 1018538 2.03708%
BRANCH_INDIRECT_CALL: 188789 0.377578%
BRANCH_RETURN: 1207334 2.41467%
BRANCH_OTHER: 0 0%

@sumon_overall_L1D     60531     49300    133298    193828    965121    965121
@Sumon_Early_by_class_L1D     19478     35885      4060        15
@Sumon_Late_by_class_L1D     41900      2191      2579        15

@Sumon_Early_by_cycle_L1D     43674      4848      2987      1496       203      1459       791       592      2469      1607       401         4
@Sumon_Late_by_cycle_L1D     47899      1379        22         0         0         0         0         0         0         0         0         0
@Sumon_Early_stream_L1D      7759      2608      1869      1273       188      1327       637       553      1708      1227       326         3
@Sumon_Early_CS_L1D     33339      1743       661        85         0         0         0         0         0        57         0         0
@Sumon_Early_CPLX_L1D      2385       203       445       119        15       129       149        35       262       242        75         1
@Sumon_Late_stream_L1D     40889       991        20         0         0         0         0         0         0         0         0         0
@Sumon_Late_CS_L1D      1945       246         0         0         0         0         0         0         0         0         0         0
@Sumon_Late_CPLX_L1D      2489        88         2         0         0         0         0         0         0         0         0         0
@sumon_overall_L2C      5930      2135     89407     95063    724765    724765
@Sumon_Early_by_class_L2C       357        21       112         0
@Sumon_Late_by_class_L2C         0         0         0         0

@Sumon_Early_by_cycle_L2C      1739       486       379       141       220      1265       188       376        84       108        74       870
@Sumon_Late_by_cycle_L2C      1428       704         3         0         0         0         0         0         0         0         0         0
@Sumon_Early_stream_L2C         0         0         0         0         0         0         0         0         0        13        27       317
@Sumon_Early_CS_L2C         0         0         0         0         0         0         0         0         0         0         1        20
@Sumon_Early_CPLX_L2C         0         0         0         0         0         0         0         0         0         3         7       102
@Sumon_Late_stream_L2C         0         0         0         0         0         0         0         0         0         0         0         0
@Sumon_Late_CS_L2C         0         0         0         0         0         0         0         0         0         0         0         0
@Sumon_Late_CPLX_L2C         0         0         0         0         0         0         0         0         0         0         0         0
DRAM PAGES: 1048576
Allocated PAGES: 5588
