
*** ChampSim Multicore Out-of-Order Simulator ***

Warmup Instructions: 10000000
Simulation Instructions: 50000000
Number of CPUs: 1
LLC sets: 2048
LLC ways: 16
Off-chip DRAM Size: 4096 MB Channels: 1 Width: 64-bit Data Rate: 6400 MT/s
CPU 0 runs traces/clientserver/server_009.champsimtrace.xz
.xz
CPU 0 Bimodal branch predictor
BTB has LRU replacement policy
ITLB has LRU replacement policy
DTLB has LRU replacement policy
STLB has LRU replacement policy
L1I has LRU replacement policy
IP Table Entries: 256
L1D has LRU replacement policy
IP_Table L2 entries: 256
Initialize DRRIP state for L2C
LLC has LRU replacement policy
Heartbeat CPU 0 instructions: 10000001 cycles: 2767994 heartbeat IPC: 3.61273 cumulative IPC: 3.61273 (Simulation time: 0 hr 15 min 52 sec) 

Warmup complete CPU 0 instructions: 10000001 cycles: 2767994 (Simulation time: 0 hr 15 min 52 sec) 

Heartbeat CPU 0 instructions: 20000003 cycles: 23108610 heartbeat IPC: 0.491627 cumulative IPC: 0.491627 (Simulation time: 0 hr 32 min 8 sec) 
Heartbeat CPU 0 instructions: 30000001 cycles: 43660764 heartbeat IPC: 0.486567 cumulative IPC: 0.489084 (Simulation time: 0 hr 48 min 29 sec) 
Heartbeat CPU 0 instructions: 40000000 cycles: 64306673 heartbeat IPC: 0.484357 cumulative IPC: 0.487498 (Simulation time: 1 hr 5 min 5 sec) 
Heartbeat CPU 0 instructions: 50000002 cycles: 84303874 heartbeat IPC: 0.50007 cumulative IPC: 0.490582 (Simulation time: 1 hr 21 min 47 sec) 
Heartbeat CPU 0 instructions: 60000001 cycles: 110667600 heartbeat IPC: 0.379309 cumulative IPC: 0.463394 (Simulation time: 1 hr 40 min 57 sec) 
Finished CPU 0 instructions: 50000000 cycles: 107899606 cumulative IPC: 0.463394 (Simulation time: 1 hr 40 min 57 sec) 

ChampSim completed all CPUs

Region of Interest Statistics

CPU 0 cumulative IPC: 0.463394 instructions: 50000000 cycles: 107899606
ITLB TOTAL     ACCESS:    8299945  HIT:    8114792  MISS:     185153  HIT %:    97.7692  MISS %:    2.23077   MPKI: 3.70306
ITLB LOAD TRANSLATION ACCESS:    8299945  HIT:    8114792  MISS:     185153  HIT %:    97.7692  MISS %:    2.23077   MPKI: 3.70306
ITLB PREFETCH  REQUESTED:          0  ISSUED:          0  USEFUL:          0  USELESS:          0
ITLB USEFUL LOAD PREFETCHES:          0 PREFETCH ISSUED TO LOWER LEVEL:          0  ACCURACY: -nan
ITLB TIMELY PREFETCHES:          0 LATE PREFETCHES: 0 DROPPED PREFETCHES: 0
ITLB PREFETCHES SAME FILL-ORIGIN LEVEL: 0 DIFFERENT FILL-ORIGIN LEVEL: 0
ITLB AVERAGE MISS LATENCY: 16.4709 cycles
ITLB RQ	ACCESS:   10027295	FORWARD:          0	MERGED:    1679574	TO_CACHE:    8347721

DTLB TOTAL     ACCESS:   10478541  HIT:    9437700  MISS:    1040841  HIT %:    90.0669  MISS %:    9.93307   MPKI: 20.8168
DTLB LOAD TRANSLATION ACCESS:   10478541  HIT:    9437700  MISS:    1040841  HIT %:    90.0669  MISS %:    9.93307   MPKI: 20.8168
DTLB PREFETCH  REQUESTED:          0  ISSUED:          0  USEFUL:          0  USELESS:          0
DTLB USEFUL LOAD PREFETCHES:          0 PREFETCH ISSUED TO LOWER LEVEL:          0  ACCURACY: -nan
DTLB TIMELY PREFETCHES:          0 LATE PREFETCHES: 0 DROPPED PREFETCHES: 0
DTLB PREFETCHES SAME FILL-ORIGIN LEVEL: 0 DIFFERENT FILL-ORIGIN LEVEL: 0
DTLB AVERAGE MISS LATENCY: 12.3726 cycles
DTLB RQ	ACCESS:   13113364	FORWARD:          0	MERGED:    2599994	TO_CACHE:   10513370

STLB TOTAL     ACCESS:    1977437  HIT:    1866333  MISS:     111104  HIT %:    94.3814  MISS %:    5.61859   MPKI: 2.22208
STLB LOAD TRANSLATION ACCESS:    1225994  HIT:    1114890  MISS:     111104  HIT %:    90.9376  MISS %:    9.06236   MPKI: 2.22208
STLB TRANSLATION FROM L1D PREFETCHER ACCESS:     751443  HIT:     751443  MISS:          0  HIT %:        100  MISS %:          0   MPKI: 0
STLB PREFETCH  REQUESTED:          0  ISSUED:          0  USEFUL:          0  USELESS:          0
STLB USEFUL LOAD PREFETCHES:          0 PREFETCH ISSUED TO LOWER LEVEL:          0  ACCURACY: -nan
STLB TIMELY PREFETCHES:          0 LATE PREFETCHES: 0 DROPPED PREFETCHES: 0
STLB PREFETCHES SAME FILL-ORIGIN LEVEL: 0 DIFFERENT FILL-ORIGIN LEVEL: 0
STLB AVERAGE MISS LATENCY: 43.8863 cycles
STLB RQ	ACCESS:    2646657	FORWARD:          0	MERGED:     669220	TO_CACHE:    1977437

STLB Hit, L1D data hit: 0
STLB Hit, L2C data hit: 0
STLB Hit, LLC data hit: 0
STLB Hit, LLC data miss: 0
STLB STLB hints to L2: 0
L1D TOTAL     ACCESS:   14367171  HIT:   12369800  MISS:    1997371  HIT %:    86.0977  MISS %:    13.9023   MPKI: 39.9474
L1D LOAD      ACCESS:    8126837  HIT:    6982249  MISS:    1144588  HIT %:    85.9159  MISS %:    14.0841   MPKI: 22.8918
L1D RFO       ACCESS:    4854201  HIT:    4758017  MISS:      96184  HIT %:    98.0185  MISS %:    1.98146   MPKI: 1.92368
L1D PREFETCH  ACCESS:    1386133  HIT:     629534  MISS:     756599  HIT %:    45.4166  MISS %:    54.5834   MPKI: 15.132
L1D PREFETCH  REQUESTED:    2841587  ISSUED:    2841478  USEFUL:      81858  USELESS:     674491
L1D USEFUL LOAD PREFETCHES:      81858 PREFETCH ISSUED TO LOWER LEVEL:     779433  ACCURACY: 10.5022
L1D TIMELY PREFETCHES:      81858 LATE PREFETCHES: 22711 DROPPED PREFETCHES: 0
L1D PREFETCHES SAME FILL-ORIGIN LEVEL: 779433 DIFFERENT FILL-ORIGIN LEVEL: 0
L1D AVERAGE MISS LATENCY: 1.03448e+06 cycles
L1D RQ	ACCESS:   11462750	FORWARD:          0	MERGED:    3235644	TO_CACHE:    8150937
L1D WQ	ACCESS:    5045877	FORWARD:      76321	MERGED:      83450	TO_CACHE:    4962427
L1D PQ	ACCESS:    1420815	FORWARD:          0	MERGED:          0	TO_CACHE:    1420663

L1D UNIQUE REGIONS ACCESSED: 0
L1D REGIONS CONFLICTS: 0
L1D Cross Page Prefetch Requests: 0
L1D Same Page Prefetch Requests: 1468199
L1D ROI Sum of L1D PQ occupancy: 18626941
L1D PREFETCHES PUSHED FROM L2C: 0
L1I TOTAL     ACCESS:    9635958  HIT:    8421876  MISS:    1214082  HIT %:    87.4005  MISS %:    12.5995   MPKI: 24.2816
L1I LOAD      ACCESS:    9635958  HIT:    8421876  MISS:    1214082  HIT %:    87.4005  MISS %:    12.5995   MPKI: 24.2816
L1I PREFETCH  REQUESTED:          0  ISSUED:          0  USEFUL:          0  USELESS:          0
L1I USEFUL LOAD PREFETCHES:          0 PREFETCH ISSUED TO LOWER LEVEL:          0  ACCURACY: -nan
L1I TIMELY PREFETCHES:          0 LATE PREFETCHES: 0 DROPPED PREFETCHES: 0
L1I PREFETCHES SAME FILL-ORIGIN LEVEL: 0 DIFFERENT FILL-ORIGIN LEVEL: 0
L1I AVERAGE MISS LATENCY: 29.0639 cycles
L1I RQ	ACCESS:   14398704	FORWARD:          0	MERGED:    4371409	TO_CACHE:   10027295

BTB TOTAL     ACCESS:    5173686  HIT:    4398171  MISS:     775515  HIT %:    85.0104  MISS %:    14.9896   MPKI: 15.5103
BTB BRANCH_DIRECT_JUMP	ACCESS:     463492  HIT:     404158  MISS:      59334
BTB BRANCH_INDIRECT	ACCESS:     174870  HIT:     123350  MISS:      51520
BTB BRANCH_CONDITIONAL	ACCESS:    2812699  HIT:    2571063  MISS:     241636
BTB BRANCH_DIRECT_CALL	ACCESS:     679008  HIT:     567416  MISS:     111592
BTB BRANCH_INDIRECT_CALL	ACCESS:     165073  HIT:     152920  MISS:      12153
BTB BRANCH_RETURN	ACCESS:     878544  HIT:     579264  MISS:     299280
BTB BRANCH_OTHER ACCESS:          0  HIT:          0  MISS:          0

L2C TOTAL     ACCESS:    4007157  HIT:    2899360  MISS:    1107797  HIT %:    72.3545  MISS %:    27.6455   MPKI: 22.1559
L2C LOAD      ACCESS:    2335946  HIT:    1584132  MISS:     751814  HIT %:    67.8154  MISS %:    32.1846   MPKI: 15.0363
L2C DATA LOAD MPKI: 4.15026
L2C INSTRUCTION LOAD MPKI: 10.886
L2C RFO       ACCESS:      96060  HIT:      49875  MISS:      46185  HIT %:    51.9207  MISS %:    48.0793   MPKI: 0.9237
L2C PREFETCH  ACCESS:    1180936  HIT:     945004  MISS:     235932  HIT %:    80.0216  MISS %:    19.9784   MPKI: 4.71864
L2C DATA PREFETCH MPKI: 4.71864
L2C INSTRUCTION PREFETCH MPKI: 0
L2C WRITEBACK ACCESS:     253622  HIT:     228995  MISS:      24627  HIT %:    90.2899  MISS %:    9.71012   MPKI: 0.49254
L2C LOAD TRANSLATION ACCESS:     140593  HIT:      91354  MISS:      49239  HIT %:    64.9776  MISS %:    35.0224   MPKI: 0.98478
L2C PREFETCH  REQUESTED:     425037  ISSUED:     425028  USEFUL:      51788  USELESS:     183432
L2C USEFUL LOAD PREFETCHES:      51788 PREFETCH ISSUED TO LOWER LEVEL:     241028  ACCURACY: 21.4863
L2C TIMELY PREFETCHES:      51788 LATE PREFETCHES: 5096 DROPPED PREFETCHES: 0
L2C PREFETCHES SAME FILL-ORIGIN LEVEL: 174978 DIFFERENT FILL-ORIGIN LEVEL: 0
L2C AVERAGE MISS LATENCY: 42.3565 cycles
L2C RQ	ACCESS:    2572613	FORWARD:          0	MERGED:          0	TO_CACHE:    2572599
L2C WQ	ACCESS:     253622	FORWARD:         14	MERGED:          0	TO_CACHE:     253622
L2C PQ	ACCESS:    1204461	FORWARD:          0	MERGED:       4929	TO_CACHE:    1199532

L2C Instructions Evicting Data 248626
L2C Translations Evicting Data 22519
L2C Data Evicting Data 230497
L2C Instructions Evicting Instructions 271454
L2C Translations Evicting Instructions 24578
L2C Data Evicting Instructions 237349
L2C Instructions Evicting Translations 24221
L2C Translations Evicting Translations 2142
L2C Data Evicting Translations 21784
L2C Dense regions hint from L2: 0
PSCL5 TOTAL     ACCESS:     111104  HIT:     111104  MISS:          0  HIT %:        100  MISS %:          0   MPKI: 0
PSCL5 LOAD TRANSLATION ACCESS:     111104  HIT:     111104  MISS:          0  HIT %:        100  MISS %:          0   MPKI: 0
PSCL5 PREFETCH  REQUESTED:          0  ISSUED:          0  USEFUL:          0  USELESS:          0
PSCL5 USEFUL LOAD PREFETCHES:          0 PREFETCH ISSUED TO LOWER LEVEL:          0  ACCURACY: -nan
PSCL5 TIMELY PREFETCHES:          0 LATE PREFETCHES: 0 DROPPED PREFETCHES: 0
PSCL5 PREFETCHES SAME FILL-ORIGIN LEVEL: 0 DIFFERENT FILL-ORIGIN LEVEL: 0

PSCL4 TOTAL     ACCESS:     103006  HIT:     102689  MISS:        317  HIT %:    99.6923  MISS %:   0.307749   MPKI: 0.00634
PSCL4 LOAD TRANSLATION ACCESS:     103006  HIT:     102689  MISS:        317  HIT %:    99.6923  MISS %:   0.307749   MPKI: 0.00634
PSCL4 PREFETCH  REQUESTED:          0  ISSUED:          0  USEFUL:          0  USELESS:          0
PSCL4 USEFUL LOAD PREFETCHES:          0 PREFETCH ISSUED TO LOWER LEVEL:          0  ACCURACY: -nan
PSCL4 TIMELY PREFETCHES:          0 LATE PREFETCHES: 0 DROPPED PREFETCHES: 0
PSCL4 PREFETCHES SAME FILL-ORIGIN LEVEL: 0 DIFFERENT FILL-ORIGIN LEVEL: 0

PSCL3 TOTAL     ACCESS:     110278  HIT:     109394  MISS:        884  HIT %:    99.1984  MISS %:    0.80161   MPKI: 0.01768
PSCL3 LOAD TRANSLATION ACCESS:     110278  HIT:     109394  MISS:        884  HIT %:    99.1984  MISS %:    0.80161   MPKI: 0.01768
PSCL3 PREFETCH  REQUESTED:          0  ISSUED:          0  USEFUL:          0  USELESS:          0
PSCL3 USEFUL LOAD PREFETCHES:          0 PREFETCH ISSUED TO LOWER LEVEL:          0  ACCURACY: -nan
PSCL3 TIMELY PREFETCHES:          0 LATE PREFETCHES: 0 DROPPED PREFETCHES: 0
PSCL3 PREFETCHES SAME FILL-ORIGIN LEVEL: 0 DIFFERENT FILL-ORIGIN LEVEL: 0

PSCL2 TOTAL     ACCESS:     111104  HIT:      82742  MISS:      28362  HIT %:    74.4726  MISS %:    25.5274   MPKI: 0.56724
PSCL2 LOAD TRANSLATION ACCESS:     111104  HIT:      82742  MISS:      28362  HIT %:    74.4726  MISS %:    25.5274   MPKI: 0.56724
PSCL2 PREFETCH  REQUESTED:          0  ISSUED:          0  USEFUL:          0  USELESS:          0
PSCL2 USEFUL LOAD PREFETCHES:          0 PREFETCH ISSUED TO LOWER LEVEL:          0  ACCURACY: -nan
PSCL2 TIMELY PREFETCHES:          0 LATE PREFETCHES: 0 DROPPED PREFETCHES: 0
PSCL2 PREFETCHES SAME FILL-ORIGIN LEVEL: 0 DIFFERENT FILL-ORIGIN LEVEL: 0

LLC TOTAL     ACCESS:    1226527  HIT:    1132503  MISS:      94024  HIT %:    92.3341  MISS %:    7.66587   MPKI: 1.88048
LLC LOAD      ACCESS:     746895  HIT:     715316  MISS:      31579  HIT %:     95.772  MISS %:    4.22804   MPKI: 0.63158
LLC RFO       ACCESS:      46007  HIT:      36564  MISS:       9443  HIT %:    79.4749  MISS %:    20.5251   MPKI: 0.18886
LLC PREFETCH  ACCESS:     241027  HIT:     190707  MISS:      50320  HIT %:    79.1227  MISS %:    20.8773   MPKI: 1.0064
LLC WRITEBACK ACCESS:     143359  HIT:     143057  MISS:        302  HIT %:    99.7893  MISS %:    0.21066   MPKI: 0.00604
LLC LOAD TRANSLATION ACCESS:      49239  HIT:      46859  MISS:       2380  HIT %:    95.1664  MISS %:    4.83357   MPKI: 0.0476
LLC PREFETCH  REQUESTED:          0  ISSUED:          0  USEFUL:       4023  USELESS:      45886
LLC USEFUL LOAD PREFETCHES:       4023 PREFETCH ISSUED TO LOWER LEVEL:      50320  ACCURACY: 7.99483
LLC TIMELY PREFETCHES:       4023 LATE PREFETCHES: 0 DROPPED PREFETCHES: 0
LLC PREFETCHES SAME FILL-ORIGIN LEVEL: 0 DIFFERENT FILL-ORIGIN LEVEL: 0
LLC AVERAGE MISS LATENCY: 155.875 cycles
LLC RQ	ACCESS:     842142	FORWARD:          0	MERGED:          0	TO_CACHE:     842141
LLC WQ	ACCESS:     143359	FORWARD:          2	MERGED:          0	TO_CACHE:     143359
LLC PQ	ACCESS:     241028	FORWARD:          0	MERGED:          0	TO_CACHE:     241027

LLC Dense regions hint to LLC: 0

RAW hits: 769017
Loads Generated: 12231765
Loads sent to L1D: 11462750
Stores Generated: 5045874
Stores sent to L1D: 5045877
Major fault: 0 Minor fault: 5580
Allocated PAGES: 5580

stream: 
stream:times selected: 1223366
stream:pref_filled: 487755
stream:pref_useful: 28112
stream:pref_late: 3096
stream:misses: 300505
stream:misses_by_poll: 0

CS: 
CS:times selected: 237510
CS:pref_filled: 113472
CS:pref_useful: 27522
CS:pref_late: 2842
CS:misses: 25339
CS:misses_by_poll: 10

CPLX: 
CPLX:times selected: 1101125
CPLX:pref_filled: 170080
CPLX:pref_useful: 30735
CPLX:pref_late: 360
CPLX:misses: 312437
CPLX:misses_by_poll: 183

NL_L1: 
NL:times selected: 7626
NL:pref_filled: 1134
NL:pref_useful: 180
NL:pref_late: 19
NL:misses: 368
NL:misses_by_poll: 0

total selections: 2569627
total_filled: 756599
total_useful: 81858
total_late: 23466
total_polluted: 193
total_misses_after_warmup: 1168690
conflicts: 2383695
Degree Incremented Times: 53
Degree Decremented Times: 162084

L1 IP Table Write Accesses: 5232533
L1 IP Table Read Accesses: 2848838
L1 RST Write Accesses: 1156184
L1 RST Read Accesses: 2312368
L1 CSPT Write Accesses: 1156184
L1 CSPT Read Accesses: 2195901
L1 RR Filter Tag Write Accesses: 1420924
L1 RR Filter Tag Read Accesses: 59923242
L1 IP Table Tag Write Accesses: 8150939
L1 IP Table Tag Read Accesses: 8150939
L1 RST Tag Write Accesses: 0
L1 RST Tag Read Accesses: 10206617
L1 RR Filter Write Accesses: 0
L1 RR Filter Read Accesses: 1955985
test: 566108
L2 IP Table Read Accesses: 3359837
L2 IP Table Write Accesses: 3032825
L2 IP Table Tag Read Accesses: 1896173
L2 IP Table Tag Write Accesses: 1896173

DRAM Statistics
 CHANNEL 0
 RQ ROW_BUFFER_HIT:      18014  ROW_BUFFER_MISS:      75707
 DBUS_CONGESTED:         61
 WQ ROW_BUFFER_HIT:       7167  ROW_BUFFER_MISS:      44511  FULL:          0

 AVG_CONGESTED_CYCLE: 4
 All warmup complete: 2
Channel 0 Bank busy for read cycles: 0
Channel 0 Bank busy for write cycles: 0
Channel 0
Rank 0
0banks busy for read cycles: 93532952
0banks busy for write cycles: 26991
1banks busy for read cycles: 6564599
1banks busy for write cycles: 3634903
2banks busy for read cycles: 1679541
2banks busy for write cycles: 934000
3banks busy for read cycles: 410573
3banks busy for write cycles: 330204
4banks busy for read cycles: 146538
4banks busy for write cycles: 184145
5banks busy for read cycles: 44186
5banks busy for write cycles: 120416
6banks busy for read cycles: 19757
6banks busy for write cycles: 91132
7banks busy for read cycles: 10575
7banks busy for write cycles: 71516
8banks busy for read cycles: 13540
8banks busy for write cycles: 84039

CPU 0 Branch Prediction Accuracy: 93.4981% MPKI: 12.6299 Average ROB Occupancy at Mispredict: 24.5139
Branch types
NOT_BRANCH: 40287182 80.5744%
BRANCH_DIRECT_JUMP: 463492 0.926984%
BRANCH_INDIRECT: 174870 0.34974%
BRANCH_CONDITIONAL: 7351543 14.7031%
BRANCH_DIRECT_CALL: 679008 1.35802%
BRANCH_INDIRECT_CALL: 165073 0.330146%
BRANCH_RETURN: 878544 1.75709%
BRANCH_OTHER: 0 0%

@sumon_overall_L1D     81858     22711    674491    756599   2841478   2841587
@Sumon_Early_by_class_L1D     24454     25333     30115        17
@Sumon_Late_by_class_L1D      2888      2393       311        17

@Sumon_Early_by_cycle_L1D     51107      3048     13743      1909      1709      3396      1307      1389      1943      1542       604       161
@Sumon_Late_by_cycle_L1D     22254       437        18         0         2         0         0         0         0         0         0         0
@Sumon_Early_stream_L1D     11571      1562      1679      1315      1178      2149       973      1108      1335      1098       363       123
@Sumon_Early_CS_L1D     21357       564      2222        92       201       606       105        65        39        15        59         8
@Sumon_Early_CPLX_L1D     17768       629      9585       288       116       447       183       193       405       351       126        24
@Sumon_Late_stream_L1D      2660       222         5         0         1         0         0         0         0         0         0         0
@Sumon_Late_CS_L1D      2214       166        12         0         1         0         0         0         0         0         0         0
@Sumon_Late_CPLX_L1D       284        26         1         0         0         0         0         0         0         0         0         0
@sumon_overall_L2C     51788      5096    183432    235932    425028    425037
@Sumon_Early_by_class_L2C       732       355       378         0
@Sumon_Late_by_class_L2C         0         2         0         0

@Sumon_Early_by_cycle_L2C      8002      6629      7132      4333      3129      7949      3994      2599      1432      1710       893      3986
@Sumon_Late_by_cycle_L2C      3732      1361         3         0         0         0         0         0         0         0         0         0
@Sumon_Early_stream_L2C         0         0         0         0         0         0         0         0         0        17        45       670
@Sumon_Early_CS_L2C         1         0         4         0         0         0         3         2         4         2        57       282
@Sumon_Early_CPLX_L2C         0         0         0         0         0         0         0         0         0        10        31       337
@Sumon_Late_stream_L2C         0         0         0         0         0         0         0         0         0         0         0         0
@Sumon_Late_CS_L2C         1         1         0         0         0         0         0         0         0         0         0         0
@Sumon_Late_CPLX_L2C         0         0         0         0         0         0         0         0         0         0         0         0
DRAM PAGES: 1048576
Allocated PAGES: 5580
