
*** ChampSim Multicore Out-of-Order Simulator ***

Warmup Instructions: 10000000
Simulation Instructions: 50000000
Number of CPUs: 1
LLC sets: 2048
LLC ways: 16
Off-chip DRAM Size: 4096 MB Channels: 1 Width: 64-bit Data Rate: 6400 MT/s
CPU 0 runs traces/clientserver/server_019.champsimtrace.xz
.xz
CPU 0 Bimodal branch predictor
BTB has LRU replacement policy
ITLB has LRU replacement policy
DTLB has LRU replacement policy
STLB has LRU replacement policy
L1I has LRU replacement policy
IP Table Entries: 256
L1D has LRU replacement policy
IP_Table L2 entries: 256
Initialize DRRIP state for L2C
LLC has LRU replacement policy
Heartbeat CPU 0 instructions: 10000002 cycles: 3154968 heartbeat IPC: 3.1696 cumulative IPC: 3.1696 (Simulation time: 0 hr 18 min 57 sec) 

Warmup complete CPU 0 instructions: 10000002 cycles: 3154968 (Simulation time: 0 hr 18 min 57 sec) 

Heartbeat CPU 0 instructions: 20000000 cycles: 26620433 heartbeat IPC: 0.426158 cumulative IPC: 0.426158 (Simulation time: 0 hr 43 min 58 sec) 
Heartbeat CPU 0 instructions: 30000003 cycles: 49988097 heartbeat IPC: 0.427942 cumulative IPC: 0.427048 (Simulation time: 1 hr 8 min 45 sec) 
Heartbeat CPU 0 instructions: 40000002 cycles: 73361077 heartbeat IPC: 0.427844 cumulative IPC: 0.427313 (Simulation time: 1 hr 33 min 15 sec) 
Heartbeat CPU 0 instructions: 50000001 cycles: 96769191 heartbeat IPC: 0.427202 cumulative IPC: 0.427285 (Simulation time: 1 hr 44 min 21 sec) 
Heartbeat CPU 0 instructions: 60000000 cycles: 123049211 heartbeat IPC: 0.380517 cumulative IPC: 0.417034 (Simulation time: 1 hr 48 min 23 sec) 
Finished CPU 0 instructions: 50000002 cycles: 119894244 cumulative IPC: 0.417034 (Simulation time: 1 hr 48 min 23 sec) 

ChampSim completed all CPUs

Region of Interest Statistics

CPU 0 cumulative IPC: 0.417034 instructions: 50000002 cycles: 119894244
ITLB TOTAL     ACCESS:    8958735  HIT:    8579249  MISS:     379486  HIT %:    95.7641  MISS %:    4.23593   MPKI: 7.58972
ITLB LOAD TRANSLATION ACCESS:    8958735  HIT:    8579249  MISS:     379486  HIT %:    95.7641  MISS %:    4.23593   MPKI: 7.58972
ITLB PREFETCH  REQUESTED:          0  ISSUED:          0  USEFUL:          0  USELESS:          0
ITLB USEFUL LOAD PREFETCHES:          0 PREFETCH ISSUED TO LOWER LEVEL:          0  ACCURACY: -nan
ITLB TIMELY PREFETCHES:          0 LATE PREFETCHES: 0 DROPPED PREFETCHES: 0
ITLB PREFETCHES SAME FILL-ORIGIN LEVEL: 0 DIFFERENT FILL-ORIGIN LEVEL: 0
ITLB AVERAGE MISS LATENCY: 9.36823 cycles
ITLB RQ	ACCESS:   10547361	FORWARD:          0	MERGED:    1465842	TO_CACHE:    9081519

DTLB TOTAL     ACCESS:   11691829  HIT:   11278601  MISS:     413228  HIT %:    96.4657  MISS %:    3.53433   MPKI: 8.26456
DTLB LOAD TRANSLATION ACCESS:   11691829  HIT:   11278601  MISS:     413228  HIT %:    96.4657  MISS %:    3.53433   MPKI: 8.26456
DTLB PREFETCH  REQUESTED:          0  ISSUED:          0  USEFUL:          0  USELESS:          0
DTLB USEFUL LOAD PREFETCHES:          0 PREFETCH ISSUED TO LOWER LEVEL:          0  ACCURACY: -nan
DTLB TIMELY PREFETCHES:          0 LATE PREFETCHES: 0 DROPPED PREFETCHES: 0
DTLB PREFETCHES SAME FILL-ORIGIN LEVEL: 0 DIFFERENT FILL-ORIGIN LEVEL: 0
DTLB AVERAGE MISS LATENCY: 20.393 cycles
DTLB RQ	ACCESS:   16750423	FORWARD:          0	MERGED:    4979889	TO_CACHE:   11770534

STLB TOTAL     ACCESS:    1463627  HIT:    1437973  MISS:      25654  HIT %:    98.2472  MISS %:    1.75277   MPKI: 0.51308
STLB LOAD TRANSLATION ACCESS:     792714  HIT:     767060  MISS:      25654  HIT %:    96.7638  MISS %:    3.23622   MPKI: 0.51308
STLB TRANSLATION FROM L1D PREFETCHER ACCESS:     670913  HIT:     670913  MISS:          0  HIT %:        100  MISS %:          0   MPKI: 0
STLB PREFETCH  REQUESTED:          0  ISSUED:          0  USEFUL:          0  USELESS:          0
STLB USEFUL LOAD PREFETCHES:          0 PREFETCH ISSUED TO LOWER LEVEL:          0  ACCURACY: -nan
STLB TIMELY PREFETCHES:          0 LATE PREFETCHES: 0 DROPPED PREFETCHES: 0
STLB PREFETCHES SAME FILL-ORIGIN LEVEL: 0 DIFFERENT FILL-ORIGIN LEVEL: 0
STLB AVERAGE MISS LATENCY: 188.506 cycles
STLB RQ	ACCESS:    1560267	FORWARD:          0	MERGED:      96640	TO_CACHE:    1463627

STLB Hit, L1D data hit: 0
STLB Hit, L2C data hit: 0
STLB Hit, LLC data hit: 0
STLB Hit, LLC data miss: 0
STLB STLB hints to L2: 0
L1D TOTAL     ACCESS:   14780254  HIT:   12796947  MISS:    1983307  HIT %:    86.5814  MISS %:    13.4186   MPKI: 39.6661
L1D LOAD      ACCESS:    7945912  HIT:    7373936  MISS:     571976  HIT %:    92.8016  MISS %:    7.19837   MPKI: 11.4395
L1D RFO       ACCESS:    6135761  HIT:    5096359  MISS:    1039402  HIT %:    83.0599  MISS %:    16.9401   MPKI: 20.788
L1D PREFETCH  ACCESS:     698581  HIT:     326652  MISS:     371929  HIT %:    46.7594  MISS %:    53.2406   MPKI: 7.43858
L1D PREFETCH  REQUESTED:    1537243  ISSUED:    1535151  USEFUL:     271658  USELESS:     100240
L1D USEFUL LOAD PREFETCHES:     271658 PREFETCH ISSUED TO LOWER LEVEL:     427421  ACCURACY: 63.5575
L1D TIMELY PREFETCHES:     271658 LATE PREFETCHES: 55482 DROPPED PREFETCHES: 0
L1D PREFETCHES SAME FILL-ORIGIN LEVEL: 427421 DIFFERENT FILL-ORIGIN LEVEL: 0
L1D AVERAGE MISS LATENCY: 1.72433e+06 cycles
L1D RQ	ACCESS:   11469110	FORWARD:          0	MERGED:    3351683	TO_CACHE:    7989039
L1D WQ	ACCESS:    8825080	FORWARD:     128433	MERGED:      63696	TO_CACHE:    8761384
L1D PQ	ACCESS:     767598	FORWARD:          0	MERGED:          0	TO_CACHE:     767553

L1D UNIQUE REGIONS ACCESSED: 0
L1D REGIONS CONFLICTS: 0
L1D Cross Page Prefetch Requests: 0
L1D Same Page Prefetch Requests: 923095
L1D ROI Sum of L1D PQ occupancy: 11779042
L1D PREFETCHES PUSHED FROM L2C: 0
L1I TOTAL     ACCESS:    9818843  HIT:    7397872  MISS:    2420971  HIT %:    75.3436  MISS %:    24.6564   MPKI: 48.4194
L1I LOAD      ACCESS:    9818843  HIT:    7397872  MISS:    2420971  HIT %:    75.3436  MISS %:    24.6564   MPKI: 48.4194
L1I PREFETCH  REQUESTED:          0  ISSUED:          0  USEFUL:          0  USELESS:          0
L1I USEFUL LOAD PREFETCHES:          0 PREFETCH ISSUED TO LOWER LEVEL:          0  ACCURACY: -nan
L1I TIMELY PREFETCHES:          0 LATE PREFETCHES: 0 DROPPED PREFETCHES: 0
L1I PREFETCHES SAME FILL-ORIGIN LEVEL: 0 DIFFERENT FILL-ORIGIN LEVEL: 0
L1I AVERAGE MISS LATENCY: 16.7498 cycles
L1I RQ	ACCESS:   14524962	FORWARD:          0	MERGED:    3977601	TO_CACHE:   10547361

BTB TOTAL     ACCESS:    5371901  HIT:    5113484  MISS:     258417  HIT %:    95.1895  MISS %:    4.81053   MPKI: 5.16834
BTB BRANCH_DIRECT_JUMP	ACCESS:     443646  HIT:     441750  MISS:       1896
BTB BRANCH_INDIRECT	ACCESS:      50440  HIT:      50330  MISS:        110
BTB BRANCH_CONDITIONAL	ACCESS:    3053730  HIT:    3047747  MISS:       5983
BTB BRANCH_DIRECT_CALL	ACCESS:     751314  HIT:     747394  MISS:       3920
BTB BRANCH_INDIRECT_CALL	ACCESS:     160721  HIT:     131521  MISS:      29200
BTB BRANCH_RETURN	ACCESS:     912050  HIT:     694742  MISS:     217308
BTB BRANCH_OTHER ACCESS:          0  HIT:          0  MISS:          0

L2C TOTAL     ACCESS:    6085624  HIT:    4209427  MISS:    1876197  HIT %:      69.17  MISS %:      30.83   MPKI: 37.5239
L2C LOAD      ACCESS:    2937451  HIT:    2560675  MISS:     376776  HIT %:    87.1734  MISS %:    12.8266   MPKI: 7.53552
L2C DATA LOAD MPKI: 5.36196
L2C INSTRUCTION LOAD MPKI: 2.17356
L2C RFO       ACCESS:    1039386  HIT:      42675  MISS:     996711  HIT %:    4.10579  MISS %:    95.8942   MPKI: 19.9342
L2C PREFETCH  ACCESS:     853444  HIT:     384720  MISS:     468724  HIT %:    45.0785  MISS %:    54.9215   MPKI: 9.37448
L2C DATA PREFETCH MPKI: 9.37448
L2C INSTRUCTION PREFETCH MPKI: 0
L2C WRITEBACK ACCESS:    1224167  HIT:    1205868  MISS:      18299  HIT %:    98.5052  MISS %:    1.49481   MPKI: 0.36598
L2C LOAD TRANSLATION ACCESS:      31176  HIT:      15489  MISS:      15687  HIT %:    49.6824  MISS %:    50.3176   MPKI: 0.31374
L2C PREFETCH  REQUESTED:     700442  ISSUED:     700442  USEFUL:      51709  USELESS:     417749
L2C USEFUL LOAD PREFETCHES:      51709 PREFETCH ISSUED TO LOWER LEVEL:     471692  ACCURACY: 10.9625
L2C TIMELY PREFETCHES:      51709 LATE PREFETCHES: 2968 DROPPED PREFETCHES: 0
L2C PREFETCHES SAME FILL-ORIGIN LEVEL: 355741 DIFFERENT FILL-ORIGIN LEVEL: 0
L2C AVERAGE MISS LATENCY: 208.312 cycles
L2C RQ	ACCESS:    4008034	FORWARD:          0	MERGED:          0	TO_CACHE:    4008013
L2C WQ	ACCESS:    1224167	FORWARD:         21	MERGED:          0	TO_CACHE:    1224167
L2C PQ	ACCESS:    1127863	FORWARD:          0	MERGED:      51624	TO_CACHE:    1076239

L2C Instructions Evicting Data 97837
L2C Translations Evicting Data 14800
L2C Data Evicting Data 1622405
L2C Instructions Evicting Instructions 10057
L2C Translations Evicting Instructions 767
L2C Data Evicting Instructions 96590
L2C Instructions Evicting Translations 784
L2C Translations Evicting Translations 120
L2C Data Evicting Translations 14538
L2C Dense regions hint from L2: 0
PSCL5 TOTAL     ACCESS:      25654  HIT:      25654  MISS:          0  HIT %:        100  MISS %:          0   MPKI: 0
PSCL5 LOAD TRANSLATION ACCESS:      25654  HIT:      25654  MISS:          0  HIT %:        100  MISS %:          0   MPKI: 0
PSCL5 PREFETCH  REQUESTED:          0  ISSUED:          0  USEFUL:          0  USELESS:          0
PSCL5 USEFUL LOAD PREFETCHES:          0 PREFETCH ISSUED TO LOWER LEVEL:          0  ACCURACY: -nan
PSCL5 TIMELY PREFETCHES:          0 LATE PREFETCHES: 0 DROPPED PREFETCHES: 0
PSCL5 PREFETCHES SAME FILL-ORIGIN LEVEL: 0 DIFFERENT FILL-ORIGIN LEVEL: 0

PSCL4 TOTAL     ACCESS:      25361  HIT:      25293  MISS:         68  HIT %:    99.7319  MISS %:   0.268128   MPKI: 0.00136
PSCL4 LOAD TRANSLATION ACCESS:      25361  HIT:      25293  MISS:         68  HIT %:    99.7319  MISS %:   0.268128   MPKI: 0.00136
PSCL4 PREFETCH  REQUESTED:          0  ISSUED:          0  USEFUL:          0  USELESS:          0
PSCL4 USEFUL LOAD PREFETCHES:          0 PREFETCH ISSUED TO LOWER LEVEL:          0  ACCURACY: -nan
PSCL4 TIMELY PREFETCHES:          0 LATE PREFETCHES: 0 DROPPED PREFETCHES: 0
PSCL4 PREFETCHES SAME FILL-ORIGIN LEVEL: 0 DIFFERENT FILL-ORIGIN LEVEL: 0

PSCL3 TOTAL     ACCESS:      24393  HIT:      24003  MISS:        390  HIT %:    98.4012  MISS %:    1.59882   MPKI: 0.0078
PSCL3 LOAD TRANSLATION ACCESS:      24393  HIT:      24003  MISS:        390  HIT %:    98.4012  MISS %:    1.59882   MPKI: 0.0078
PSCL3 PREFETCH  REQUESTED:          0  ISSUED:          0  USEFUL:          0  USELESS:          0
PSCL3 USEFUL LOAD PREFETCHES:          0 PREFETCH ISSUED TO LOWER LEVEL:          0  ACCURACY: -nan
PSCL3 TIMELY PREFETCHES:          0 LATE PREFETCHES: 0 DROPPED PREFETCHES: 0
PSCL3 PREFETCHES SAME FILL-ORIGIN LEVEL: 0 DIFFERENT FILL-ORIGIN LEVEL: 0

PSCL2 TOTAL     ACCESS:      25654  HIT:      20561  MISS:       5093  HIT %:    80.1473  MISS %:    19.8527   MPKI: 0.10186
PSCL2 LOAD TRANSLATION ACCESS:      25654  HIT:      20561  MISS:       5093  HIT %:    80.1473  MISS %:    19.8527   MPKI: 0.10186
PSCL2 PREFETCH  REQUESTED:          0  ISSUED:          0  USEFUL:          0  USELESS:          0
PSCL2 USEFUL LOAD PREFETCHES:          0 PREFETCH ISSUED TO LOWER LEVEL:          0  ACCURACY: -nan
PSCL2 TIMELY PREFETCHES:          0 LATE PREFETCHES: 0 DROPPED PREFETCHES: 0
PSCL2 PREFETCHES SAME FILL-ORIGIN LEVEL: 0 DIFFERENT FILL-ORIGIN LEVEL: 0

LLC TOTAL     ACCESS:    3005895  HIT:    1656366  MISS:    1349529  HIT %:    55.1039  MISS %:    44.8961   MPKI: 26.9906
LLC LOAD      ACCESS:     374100  HIT:     259111  MISS:     114989  HIT %:    69.2625  MISS %:    30.7375   MPKI: 2.29978
LLC RFO       ACCESS:     996418  HIT:     135924  MISS:     860494  HIT %:    13.6413  MISS %:    86.3587   MPKI: 17.2099
LLC PREFETCH  ACCESS:     471690  HIT:     110034  MISS:     361656  HIT %:    23.3276  MISS %:    76.6724   MPKI: 7.23312
LLC WRITEBACK ACCESS:    1148000  HIT:    1146070  MISS:       1930  HIT %:    99.8319  MISS %:   0.168118   MPKI: 0.0386
LLC LOAD TRANSLATION ACCESS:      15687  HIT:       5227  MISS:      10460  HIT %:    33.3206  MISS %:    66.6794   MPKI: 0.2092
LLC PREFETCH  REQUESTED:          0  ISSUED:          0  USEFUL:       7092  USELESS:     354567
LLC USEFUL LOAD PREFETCHES:       7092 PREFETCH ISSUED TO LOWER LEVEL:     361656  ACCURACY: 1.96098
LLC TIMELY PREFETCHES:       7092 LATE PREFETCHES: 0 DROPPED PREFETCHES: 0
LLC PREFETCHES SAME FILL-ORIGIN LEVEL: 0 DIFFERENT FILL-ORIGIN LEVEL: 0
LLC AVERAGE MISS LATENCY: 246.466 cycles
LLC RQ	ACCESS:    1386206	FORWARD:          0	MERGED:          0	TO_CACHE:    1386205
LLC WQ	ACCESS:    1148000	FORWARD:          3	MERGED:          0	TO_CACHE:    1148000
LLC PQ	ACCESS:     471692	FORWARD:          0	MERGED:          0	TO_CACHE:     471690

LLC Dense regions hint to LLC: 0

RAW hits: 893982
Loads Generated: 12363092
Loads sent to L1D: 11469110
Stores Generated: 8825077
Stores sent to L1D: 8825080
Major fault: 0 Minor fault: 17712
Allocated PAGES: 17712

stream: 
stream:times selected: 2321341
stream:pref_filled: 82721
stream:pref_useful: 12597
stream:pref_late: 2493
stream:misses: 15249
stream:misses_by_poll: 0

CS: 
CS:times selected: 2034052
CS:pref_filled: 334643
CS:pref_useful: 322007
CS:pref_late: 52085
CS:misses: 57147
CS:misses_by_poll: 548

CPLX: 
CPLX:times selected: 283491
CPLX:pref_filled: 36348
CPLX:pref_useful: 2040
CPLX:pref_late: 213
CPLX:misses: 53059
CPLX:misses_by_poll: 49

NL_L1: 
NL:times selected: 967
NL:pref_filled: 361
NL:pref_useful: 6
NL:pref_late: 10
NL:misses: 419
NL:misses_by_poll: 0

total selections: 4639851
total_filled: 371929
total_useful: 271658
total_late: 56138
total_polluted: 597
total_misses_after_warmup: 615103
conflicts: 2668536
Degree Incremented Times: 22632
Degree Decremented Times: 79210

L1 IP Table Write Accesses: 5153178
L1 IP Table Read Accesses: 2484642
L1 RST Write Accesses: 1929217
L1 RST Read Accesses: 3858434
L1 CSPT Write Accesses: 1929217
L1 CSPT Read Accesses: 2164222
L1 RR Filter Tag Write Accesses: 769690
L1 RR Filter Tag Read Accesses: 215716194
L1 IP Table Tag Write Accesses: 7989039
L1 IP Table Tag Read Accesses: 7989039
L1 RST Tag Write Accesses: 0
L1 RST Tag Read Accesses: 17548530
L1 RR Filter Write Accesses: 0
L1 RR Filter Read Accesses: 7022868
test: 145270
L2 IP Table Read Accesses: 1135657
L2 IP Table Write Accesses: 1236278
L2 IP Table Tag Read Accesses: 737806
L2 IP Table Tag Write Accesses: 737806

DRAM Statistics
 CHANNEL 0
 RQ ROW_BUFFER_HIT:     464278  ROW_BUFFER_MISS:     883220
 DBUS_CONGESTED:        526
 WQ ROW_BUFFER_HIT:     314853  ROW_BUFFER_MISS:     614751  FULL:          0

 AVG_CONGESTED_CYCLE: 3
 All warmup complete: 2
Channel 0 Bank busy for read cycles: 0
Channel 0 Bank busy for write cycles: 0
Channel 0
Rank 0
0banks busy for read cycles: 41138963
0banks busy for write cycles: 47583
1banks busy for read cycles: 14448194
1banks busy for write cycles: 6060619
2banks busy for read cycles: 8590266
2banks busy for write cycles: 3360825
3banks busy for read cycles: 5951860
3banks busy for write cycles: 2179923
4banks busy for read cycles: 6859589
4banks busy for write cycles: 1780103
5banks busy for read cycles: 2224433
5banks busy for write cycles: 1473358
6banks busy for read cycles: 2009758
6banks busy for write cycles: 1391470
7banks busy for read cycles: 1747117
7banks busy for write cycles: 2117739
8banks busy for read cycles: 5860226
8banks busy for write cycles: 12652219

CPU 0 Branch Prediction Accuracy: 96.5839% MPKI: 5.63912 Average ROB Occupancy at Mispredict: 49.7023
Branch types
NOT_BRANCH: 41745935 83.4919%
BRANCH_DIRECT_JUMP: 443646 0.887292%
BRANCH_INDIRECT: 50440 0.10088%
BRANCH_CONDITIONAL: 5935547 11.8711%
BRANCH_DIRECT_CALL: 751314 1.50263%
BRANCH_INDIRECT_CALL: 160721 0.321442%
BRANCH_RETURN: 912050 1.8241%
BRANCH_OTHER: 0 0%

@sumon_overall_L1D    271658     55482    100240    371929   1535151   1537243
@Sumon_Early_by_class_L1D      9800    258972      1627        10
@Sumon_Late_by_class_L1D      1994     52025       149        10

@Sumon_Early_by_cycle_L1D    106829    144538     13154      1593       380       492       334       336      2267      1560       102        73
@Sumon_Late_by_cycle_L1D     35843     15532      3924       183         0         0         0         0         0         0         0         0
@Sumon_Early_stream_L1D      7080       302       205       325       124       125        81        76       121      1210        83        68
@Sumon_Early_CS_L1D     98477    144015     12870      1081       139        43        50        65      2022       206         4         0
@Sumon_Early_CPLX_L1D       253        97        64       178       110       306       183       162       117       137        15         5
@Sumon_Late_stream_L1D       718      1264        12         0         0         0         0         0         0         0         0         0
@Sumon_Late_CS_L1D     34146     13785      3911       183         0         0         0         0         0         0         0         0
@Sumon_Late_CPLX_L1D        50        98         1         0         0         0         0         0         0         0         0         0
@sumon_overall_L2C     51709      2968    417749    468724    700442    700442
@Sumon_Early_by_class_L2C      1390      1491       479         0
@Sumon_Late_by_class_L2C         0       571         0         0

@Sumon_Early_by_cycle_L2C      7022      6678      5544      1926      1665     11319      2693       453      3939      1646      1689      7135
@Sumon_Late_by_cycle_L2C      1820      1139         9         0         0         0         0         0         0         0         0         0
@Sumon_Early_stream_L2C         0         0         0         0         0         0         0         4         7       187       442       750
@Sumon_Early_CS_L2C       547       105        38         1         0         0         0         0       105       179       180       336
@Sumon_Early_CPLX_L2C         0         0         0         0         0         0        12       108        21        24        61       253
@Sumon_Late_stream_L2C         0         0         0         0         0         0         0         0         0         0         0         0
@Sumon_Late_CS_L2C       335       230         6         0         0         0         0         0         0         0         0         0
@Sumon_Late_CPLX_L2C         0         0         0         0         0         0         0         0         0         0         0         0
DRAM PAGES: 1048576
Allocated PAGES: 17712
