
*** ChampSim Multicore Out-of-Order Simulator ***

Warmup Instructions: 10000000
Simulation Instructions: 50000000
Number of CPUs: 1
LLC sets: 2048
LLC ways: 16
Off-chip DRAM Size: 4096 MB Channels: 1 Width: 64-bit Data Rate: 400 MT/s
CPU 0 runs traces/clientserver/client_002.champsimtrace.xz
.xz
CPU 0 Bimodal branch predictor
BTB has LRU replacement policy
ITLB has LRU replacement policy
DTLB has LRU replacement policy
STLB has LRU replacement policy
L1I has LRU replacement policy
IP Table Entries: 256
L1D has LRU replacement policy
IP_Table L2 entries: 256
L2C has LRU replacement policy
LLC has LRU replacement policy
Heartbeat CPU 0 instructions: 10000000 cycles: 2814161 heartbeat IPC: 3.55346 cumulative IPC: 3.55346 (Simulation time: 0 hr 8 min 13 sec) 

Warmup complete CPU 0 instructions: 10000004 cycles: 2814162 (Simulation time: 0 hr 8 min 13 sec) 

Heartbeat CPU 0 instructions: 20000002 cycles: 18055313 heartbeat IPC: 0.656119 cumulative IPC: 0.656118 (Simulation time: 0 hr 15 min 59 sec) 
Heartbeat CPU 0 instructions: 30000001 cycles: 33477565 heartbeat IPC: 0.648414 cumulative IPC: 0.652243 (Simulation time: 0 hr 23 min 47 sec) 
Heartbeat CPU 0 instructions: 40000002 cycles: 49118435 heartbeat IPC: 0.639351 cumulative IPC: 0.647888 (Simulation time: 0 hr 31 min 36 sec) 
Heartbeat CPU 0 instructions: 50000000 cycles: 64392052 heartbeat IPC: 0.654724 cumulative IPC: 0.649584 (Simulation time: 0 hr 39 min 24 sec) 
Heartbeat CPU 0 instructions: 60000001 cycles: 79839245 heartbeat IPC: 0.647367 cumulative IPC: 0.649139 (Simulation time: 0 hr 47 min 19 sec) 
Finished CPU 0 instructions: 50000002 cycles: 77025093 cumulative IPC: 0.649139 (Simulation time: 0 hr 47 min 19 sec) 

ChampSim completed all CPUs

Region of Interest Statistics

CPU 0 cumulative IPC: 0.649139 instructions: 50000002 cycles: 77025093
ITLB TOTAL     ACCESS:    8438407  HIT:    8342581  MISS:      95826  HIT %:    98.8644  MISS %:    1.13559   MPKI: 1.91652
ITLB LOAD TRANSLATION ACCESS:    8438407  HIT:    8342581  MISS:      95826  HIT %:    98.8644  MISS %:    1.13559   MPKI: 1.91652
ITLB PREFETCH  REQUESTED:          0  ISSUED:          0  USEFUL:          0  USELESS:          0
ITLB USEFUL LOAD PREFETCHES:          0 PREFETCH ISSUED TO LOWER LEVEL:          0  ACCURACY: -nan
ITLB TIMELY PREFETCHES:          0 LATE PREFETCHES: 0 DROPPED PREFETCHES: 0
ITLB PREFETCHES SAME FILL-ORIGIN LEVEL: 0 DIFFERENT FILL-ORIGIN LEVEL: 0
ITLB AVERAGE MISS LATENCY: 9.60814 cycles
ITLB RQ	ACCESS:   10239237	FORWARD:          0	MERGED:    1770860	TO_CACHE:    8468377

DTLB TOTAL     ACCESS:   10592914  HIT:   10436059  MISS:     156855  HIT %:    98.5192  MISS %:    1.48075   MPKI: 3.1371
DTLB LOAD TRANSLATION ACCESS:   10592914  HIT:   10436059  MISS:     156855  HIT %:    98.5192  MISS %:    1.48075   MPKI: 3.1371
DTLB PREFETCH  REQUESTED:          0  ISSUED:          0  USEFUL:          0  USELESS:          0
DTLB USEFUL LOAD PREFETCHES:          0 PREFETCH ISSUED TO LOWER LEVEL:          0  ACCURACY: -nan
DTLB TIMELY PREFETCHES:          0 LATE PREFETCHES: 0 DROPPED PREFETCHES: 0
DTLB PREFETCHES SAME FILL-ORIGIN LEVEL: 0 DIFFERENT FILL-ORIGIN LEVEL: 0
DTLB AVERAGE MISS LATENCY: 11.2034 cycles
DTLB RQ	ACCESS:   14111973	FORWARD:          0	MERGED:    3502798	TO_CACHE:   10609175

STLB TOTAL     ACCESS:     504764  HIT:     496432  MISS:       8332  HIT %:    98.3493  MISS %:    1.65067   MPKI: 0.16664
STLB LOAD TRANSLATION ACCESS:     252681  HIT:     244350  MISS:       8331  HIT %:     96.703  MISS %:    3.29704   MPKI: 0.16662
STLB TRANSLATION FROM L1D PREFETCHER ACCESS:     252083  HIT:     252082  MISS:          1  HIT %:    99.9996  MISS %: 0.000396695   MPKI: 2e-05
STLB PREFETCH  REQUESTED:          0  ISSUED:          0  USEFUL:          1  USELESS:          0
STLB USEFUL LOAD PREFETCHES:          1 PREFETCH ISSUED TO LOWER LEVEL:          0  ACCURACY: inf
STLB TIMELY PREFETCHES:          1 LATE PREFETCHES: 0 DROPPED PREFETCHES: 0
STLB PREFETCHES SAME FILL-ORIGIN LEVEL: 0 DIFFERENT FILL-ORIGIN LEVEL: 0
STLB AVERAGE MISS LATENCY: 47.4608 cycles
STLB RQ	ACCESS:     564502	FORWARD:          0	MERGED:      59737	TO_CACHE:     504765

STLB Hit, L1D data hit: 0
STLB Hit, L2C data hit: 0
STLB Hit, LLC data hit: 0
STLB Hit, LLC data miss: 0
STLB STLB hints to L2: 0
L1D TOTAL     ACCESS:   14199345  HIT:   13930295  MISS:     269050  HIT %:    98.1052  MISS %:    1.89481   MPKI: 5.381
L1D LOAD      ACCESS:    7415516  HIT:    7303295  MISS:     112221  HIT %:    98.4867  MISS %:    1.51333   MPKI: 2.24442
L1D RFO       ACCESS:    6475386  HIT:    6381139  MISS:      94247  HIT %:    98.5445  MISS %:    1.45547   MPKI: 1.88494
L1D PREFETCH  ACCESS:     308443  HIT:     245861  MISS:      62582  HIT %:    79.7104  MISS %:    20.2896   MPKI: 1.25164
L1D PREFETCH  REQUESTED:     624345  ISSUED:     624345  USEFUL:      31370  USELESS:      31193
L1D USEFUL LOAD PREFETCHES:      31370 PREFETCH ISSUED TO LOWER LEVEL:      62785  ACCURACY: 49.9642
L1D TIMELY PREFETCHES:      31370 LATE PREFETCHES: 1801 DROPPED PREFETCHES: 0
L1D PREFETCHES SAME FILL-ORIGIN LEVEL: 62785 DIFFERENT FILL-ORIGIN LEVEL: 0
L1D AVERAGE MISS LATENCY: 32588.5 cycles
L1D RQ	ACCESS:   11683068	FORWARD:          0	MERGED:    4071972	TO_CACHE:    7423607
L1D WQ	ACCESS:    6853195	FORWARD:     188192	MERGED:     164829	TO_CACHE:    6688366
L1D PQ	ACCESS:     312524	FORWARD:          0	MERGED:          0	TO_CACHE:     311821

L1D UNIQUE REGIONS ACCESSED: 0
L1D REGIONS CONFLICTS: 0
L1D Cross Page Prefetch Requests: 0
L1D Same Page Prefetch Requests: 381575
L1D ROI Sum of L1D PQ occupancy: 5676909
L1D PREFETCHES PUSHED FROM L2C: 0
L1I TOTAL     ACCESS:   10141148  HIT:    9674091  MISS:     467057  HIT %:    95.3944  MISS %:    4.60556   MPKI: 9.34114
L1I LOAD      ACCESS:   10141148  HIT:    9674091  MISS:     467057  HIT %:    95.3944  MISS %:    4.60556   MPKI: 9.34114
L1I PREFETCH  REQUESTED:          0  ISSUED:          0  USEFUL:          0  USELESS:          0
L1I USEFUL LOAD PREFETCHES:          0 PREFETCH ISSUED TO LOWER LEVEL:          0  ACCURACY: -nan
L1I TIMELY PREFETCHES:          0 LATE PREFETCHES: 0 DROPPED PREFETCHES: 0
L1I PREFETCHES SAME FILL-ORIGIN LEVEL: 0 DIFFERENT FILL-ORIGIN LEVEL: 0
L1I AVERAGE MISS LATENCY: 20.6763 cycles
L1I RQ	ACCESS:   15109182	FORWARD:          0	MERGED:    4869945	TO_CACHE:   10239237

BTB TOTAL     ACCESS:    6796237  HIT:    6165045  MISS:     631192  HIT %:    90.7126  MISS %:    9.28737   MPKI: 12.6238
BTB BRANCH_DIRECT_JUMP	ACCESS:     517874  HIT:     500004  MISS:      17870
BTB BRANCH_INDIRECT	ACCESS:     114556  HIT:      57356  MISS:      57200
BTB BRANCH_CONDITIONAL	ACCESS:    3999865  HIT:    3947993  MISS:      51872
BTB BRANCH_DIRECT_CALL	ACCESS:     959047  HIT:     921975  MISS:      37072
BTB BRANCH_INDIRECT_CALL	ACCESS:     122815  HIT:      95300  MISS:      27515
BTB BRANCH_RETURN	ACCESS:    1082080  HIT:     642417  MISS:     439663
BTB BRANCH_OTHER ACCESS:          0  HIT:          0  MISS:          0

L2C TOTAL     ACCESS:     975284  HIT:     739147  MISS:     236137  HIT %:    75.7879  MISS %:    24.2121   MPKI: 4.72274
L2C LOAD      ACCESS:     579278  HIT:     460100  MISS:     119178  HIT %:    79.4265  MISS %:    20.5735   MPKI: 2.38356
L2C DATA LOAD MPKI: 0.57838
L2C INSTRUCTION LOAD MPKI: 1.80518
L2C RFO       ACCESS:      94044  HIT:      24268  MISS:      69776  HIT %:    25.8049  MISS %:    74.1951   MPKI: 1.39552
L2C PREFETCH  ACCESS:     174957  HIT:     129656  MISS:      45301  HIT %:    74.1074  MISS %:    25.8926   MPKI: 0.90602
L2C DATA PREFETCH MPKI: 0.90602
L2C INSTRUCTION PREFETCH MPKI: 0
L2C WRITEBACK ACCESS:     118491  HIT:     118150  MISS:        341  HIT %:    99.7122  MISS %:   0.287786   MPKI: 0.00682
L2C LOAD TRANSLATION ACCESS:       8513  HIT:       6972  MISS:       1541  HIT %:    81.8983  MISS %:    18.1017   MPKI: 0.03082
L2C TRANSLATION FROM L1D PREFETCHER ACCESS:          1  HIT:          1  MISS:          0  HIT %:        100  MISS %:          0   MPKI: 0
L2C PREFETCH  REQUESTED:     122525  ISSUED:     122525  USEFUL:       7528  USELESS:      39216
L2C USEFUL LOAD PREFETCHES:       7528 PREFETCH ISSUED TO LOWER LEVEL:      45532  ACCURACY: 16.5334
L2C TIMELY PREFETCHES:       7528 LATE PREFETCHES: 231 DROPPED PREFETCHES: 0
L2C PREFETCHES SAME FILL-ORIGIN LEVEL: 27334 DIFFERENT FILL-ORIGIN LEVEL: 0
L2C AVERAGE MISS LATENCY: 174.889 cycles
L2C RQ	ACCESS:     681836	FORWARD:          0	MERGED:          0	TO_CACHE:     681836
L2C WQ	ACCESS:     118491	FORWARD:          3	MERGED:          0	TO_CACHE:     118491
L2C PQ	ACCESS:     185310	FORWARD:          0	MERGED:       8729	TO_CACHE:     176578

L2C Instructions Evicting Data 56247
L2C Translations Evicting Data 919
L2C Data Evicting Data 87354
L2C Instructions Evicting Instructions 33392
L2C Translations Evicting Instructions 601
L2C Data Evicting Instructions 55677
L2C Instructions Evicting Translations 620
L2C Translations Evicting Translations 21
L2C Data Evicting Translations 965
L2C Dense regions hint from L2: 0
PSCL5 TOTAL     ACCESS:       8332  HIT:       8332  MISS:          0  HIT %:        100  MISS %:          0   MPKI: 0
PSCL5 LOAD TRANSLATION ACCESS:       8331  HIT:       8331  MISS:          0  HIT %:        100  MISS %:          0   MPKI: 0
PSCL5 TRANSLATION FROM L1D PREFETCHER ACCESS:          1  HIT:          1  MISS:          0  HIT %:        100  MISS %:          0   MPKI: 0
PSCL5 PREFETCH  REQUESTED:          0  ISSUED:          0  USEFUL:          0  USELESS:          0
PSCL5 USEFUL LOAD PREFETCHES:          0 PREFETCH ISSUED TO LOWER LEVEL:          0  ACCURACY: -nan
PSCL5 TIMELY PREFETCHES:          0 LATE PREFETCHES: 0 DROPPED PREFETCHES: 0
PSCL5 PREFETCHES SAME FILL-ORIGIN LEVEL: 0 DIFFERENT FILL-ORIGIN LEVEL: 0

PSCL4 TOTAL     ACCESS:       8332  HIT:       8332  MISS:          0  HIT %:        100  MISS %:          0   MPKI: 0
PSCL4 LOAD TRANSLATION ACCESS:       8331  HIT:       8331  MISS:          0  HIT %:        100  MISS %:          0   MPKI: 0
PSCL4 TRANSLATION FROM L1D PREFETCHER ACCESS:          1  HIT:          1  MISS:          0  HIT %:        100  MISS %:          0   MPKI: 0
PSCL4 PREFETCH  REQUESTED:          0  ISSUED:          0  USEFUL:          0  USELESS:          0
PSCL4 USEFUL LOAD PREFETCHES:          0 PREFETCH ISSUED TO LOWER LEVEL:          0  ACCURACY: -nan
PSCL4 TIMELY PREFETCHES:          0 LATE PREFETCHES: 0 DROPPED PREFETCHES: 0
PSCL4 PREFETCHES SAME FILL-ORIGIN LEVEL: 0 DIFFERENT FILL-ORIGIN LEVEL: 0

PSCL3 TOTAL     ACCESS:       8309  HIT:       8303  MISS:          6  HIT %:    99.9278  MISS %:  0.0722109   MPKI: 0.00012
PSCL3 LOAD TRANSLATION ACCESS:       8308  HIT:       8302  MISS:          6  HIT %:    99.9278  MISS %:  0.0722195   MPKI: 0.00012
PSCL3 TRANSLATION FROM L1D PREFETCHER ACCESS:          1  HIT:          1  MISS:          0  HIT %:        100  MISS %:          0   MPKI: 0
PSCL3 PREFETCH  REQUESTED:          0  ISSUED:          0  USEFUL:          0  USELESS:          0
PSCL3 USEFUL LOAD PREFETCHES:          0 PREFETCH ISSUED TO LOWER LEVEL:          0  ACCURACY: -nan
PSCL3 TIMELY PREFETCHES:          0 LATE PREFETCHES: 0 DROPPED PREFETCHES: 0
PSCL3 PREFETCHES SAME FILL-ORIGIN LEVEL: 0 DIFFERENT FILL-ORIGIN LEVEL: 0

PSCL2 TOTAL     ACCESS:       8332  HIT:       8153  MISS:        179  HIT %:    97.8517  MISS %:    2.14834   MPKI: 0.00358
PSCL2 LOAD TRANSLATION ACCESS:       8331  HIT:       8152  MISS:        179  HIT %:    97.8514  MISS %:     2.1486   MPKI: 0.00358
PSCL2 TRANSLATION FROM L1D PREFETCHER ACCESS:          1  HIT:          1  MISS:          0  HIT %:        100  MISS %:          0   MPKI: 0
PSCL2 PREFETCH  REQUESTED:          0  ISSUED:          0  USEFUL:          0  USELESS:          0
PSCL2 USEFUL LOAD PREFETCHES:          0 PREFETCH ISSUED TO LOWER LEVEL:          0  ACCURACY: -nan
PSCL2 TIMELY PREFETCHES:          0 LATE PREFETCHES: 0 DROPPED PREFETCHES: 0
PSCL2 PREFETCHES SAME FILL-ORIGIN LEVEL: 0 DIFFERENT FILL-ORIGIN LEVEL: 0

LLC TOTAL     ACCESS:     314408  HIT:     265370  MISS:      49038  HIT %:    84.4031  MISS %:    15.5969   MPKI: 0.98076
LLC LOAD      ACCESS:     119007  HIT:     113517  MISS:       5490  HIT %:    95.3868  MISS %:    4.61317   MPKI: 0.1098
LLC RFO       ACCESS:      69716  HIT:      39048  MISS:      30668  HIT %:    56.0101  MISS %:    43.9899   MPKI: 0.61336
LLC PREFETCH  ACCESS:      45532  HIT:      33007  MISS:      12525  HIT %:    72.4919  MISS %:    27.5081   MPKI: 0.2505
LLC WRITEBACK ACCESS:      78612  HIT:      78527  MISS:         85  HIT %:    99.8919  MISS %:   0.108126   MPKI: 0.0017
LLC LOAD TRANSLATION ACCESS:       1541  HIT:       1271  MISS:        270  HIT %:    82.4789  MISS %:    17.5211   MPKI: 0.0054
LLC PREFETCH  REQUESTED:          0  ISSUED:          0  USEFUL:        600  USELESS:      10096
LLC USEFUL LOAD PREFETCHES:        600 PREFETCH ISSUED TO LOWER LEVEL:      12525  ACCURACY: 4.79042
LLC TIMELY PREFETCHES:        600 LATE PREFETCHES: 0 DROPPED PREFETCHES: 0
LLC PREFETCHES SAME FILL-ORIGIN LEVEL: 0 DIFFERENT FILL-ORIGIN LEVEL: 0
LLC AVERAGE MISS LATENCY: 697.653 cycles
LLC RQ	ACCESS:     190264	FORWARD:          0	MERGED:          0	TO_CACHE:     190264
LLC WQ	ACCESS:      78612	FORWARD:          0	MERGED:          0	TO_CACHE:      78612
LLC PQ	ACCESS:      45532	FORWARD:          0	MERGED:          0	TO_CACHE:      45532

LLC Dense regions hint to LLC: 0

RAW hits: 1459885
Loads Generated: 13142955
Loads sent to L1D: 11683068
Stores Generated: 6853201
Stores sent to L1D: 6853195
Major fault: 0 Minor fault: 2277
Allocated PAGES: 2277

stream: 
stream:times selected: 665040
stream:pref_filled: 32680
stream:pref_useful: 13455
stream:pref_late: 776
stream:misses: 3494
stream:misses_by_poll: 0

CS: 
CS:times selected: 97881
CS:pref_filled: 25461
CS:pref_useful: 20728
CS:pref_late: 538
CS:misses: 2763
CS:misses_by_poll: 13

CPLX: 
CPLX:times selected: 562936
CPLX:pref_filled: 18004
CPLX:pref_useful: 4231
CPLX:pref_late: 78
CPLX:misses: 14938
CPLX:misses_by_poll: 27

NL_L1: 
NL:times selected: 8181
NL:pref_filled: 297
NL:pref_useful: 155
NL:pref_late: 7
NL:misses: 242
NL:misses_by_poll: 0

total selections: 1334038
total_filled: 62582
total_useful: 31370
total_late: 1407
total_polluted: 40
total_misses_after_warmup: 120312
conflicts: 2206989
Degree Incremented Times: 18001
Degree Decremented Times: 28403

L1 IP Table Write Accesses: 4770203
L1 IP Table Read Accesses: 2563214
L1 RST Write Accesses: 556099
L1 RST Read Accesses: 1112198
L1 CSPT Write Accesses: 556099
L1 CSPT Read Accesses: 1027865
L1 RR Filter Tag Write Accesses: 312524
L1 RR Filter Tag Read Accesses: 24984320
L1 IP Table Tag Write Accesses: 7423607
L1 IP Table Tag Read Accesses: 7423607
L1 RST Tag Write Accesses: 0
L1 RST Tag Read Accesses: 5753255
L1 RR Filter Write Accesses: 0
L1 RR Filter Read Accesses: 967522
test: 147070
L2 IP Table Read Accesses: 272729
L2 IP Table Write Accesses: 274554
L2 IP Table Tag Read Accesses: 170832
L2 IP Table Tag Write Accesses: 170832

DRAM Statistics
 CHANNEL 0
 RQ ROW_BUFFER_HIT:      24001  ROW_BUFFER_MISS:      24951
 DBUS_CONGESTED:      48408
 WQ ROW_BUFFER_HIT:       5988  ROW_BUFFER_MISS:      18114  FULL:          0

 AVG_CONGESTED_CYCLE: 74
 All warmup complete: 2
Channel 0 Bank busy for read cycles: 0
Channel 0 Bank busy for write cycles: 0
Channel 0
Rank 0
0banks busy for read cycles: 69504503
0banks busy for write cycles: 7478
1banks busy for read cycles: 2247866
1banks busy for write cycles: 1102358
2banks busy for read cycles: 455978
2banks busy for write cycles: 294290
3banks busy for read cycles: 185651
3banks busy for write cycles: 161548
4banks busy for read cycles: 127394
4banks busy for write cycles: 125743
5banks busy for read cycles: 71900
5banks busy for write cycles: 102002
6banks busy for read cycles: 62113
6banks busy for write cycles: 109594
7banks busy for read cycles: 127227
7banks busy for write cycles: 139268
8banks busy for read cycles: 1502768
8banks busy for write cycles: 697413

CPU 0 Branch Prediction Accuracy: 94.7154% MPKI: 10.0037 Average ROB Occupancy at Mispredict: 32.3223
Branch types
NOT_BRANCH: 40534656 81.0693%
BRANCH_DIRECT_JUMP: 517874 1.03575%
BRANCH_INDIRECT: 114556 0.229112%
BRANCH_CONDITIONAL: 6668634 13.3373%
BRANCH_DIRECT_CALL: 959047 1.91809%
BRANCH_INDIRECT_CALL: 122815 0.24563%
BRANCH_RETURN: 1082080 2.16416%
BRANCH_OTHER: 0 0%

@sumon_overall_L1D     31370      1801     31193     62582    624345    624345
@Sumon_Early_by_class_L1D     10737     16638      3535         6
@Sumon_Late_by_class_L1D       721       518        70         6

@Sumon_Early_by_cycle_L1D      7181      3875      1449      1346      1100      3119      4627      1895      2077      2087      1678       936
@Sumon_Late_by_cycle_L1D      1298        15        10         0         0         0         0         0         0         0         0         0
@Sumon_Early_stream_L1D      1888       943       895       479       499      1461       618       902      1176      1172       347       357
@Sumon_Early_CS_L1D      4803      2759       376       610       364      1297      3783       615       533       360       923       215
@Sumon_Early_CPLX_L1D       390       127       149       236       218       317       212       361       359       480       349       337
@Sumon_Late_stream_L1D       703        10         8         0         0         0         0         0         0         0         0         0
@Sumon_Late_CS_L1D       515         2         1         0         0         0         0         0         0         0         0         0
@Sumon_Late_CPLX_L1D        68         1         1         0         0         0         0         0         0         0         0         0
@sumon_overall_L2C      7528       231     39216     45301    122525    122525
@Sumon_Early_by_class_L2C       677      1934       560         0
@Sumon_Late_by_class_L2C         0         6         0         0

@Sumon_Early_by_cycle_L2C       516       984       400       255       120       481       309       364       337       457       251      3054
@Sumon_Late_by_cycle_L2C       202        25         3         1         0         0         0         0         0         0         0         0
@Sumon_Early_stream_L2C         0         0         0         0         0         0         0         0         1         2        14       660
@Sumon_Early_CS_L2C        22       590        45        18        25       179       125        79       101       169        27       554
@Sumon_Early_CPLX_L2C         0         0         0         0         0         0         0         0         0         2        12       546
@Sumon_Late_stream_L2C         0         0         0         0         0         0         0         0         0         0         0         0
@Sumon_Late_CS_L2C         3         2         0         1         0         0         0         0         0         0         0         0
@Sumon_Late_CPLX_L2C         0         0         0         0         0         0         0         0         0         0         0         0
DRAM PAGES: 1048576
Allocated PAGES: 2277
