
*** ChampSim Multicore Out-of-Order Simulator ***

Warmup Instructions: 10000000
Simulation Instructions: 50000000
Number of CPUs: 1
LLC sets: 2048
LLC ways: 16
Off-chip DRAM Size: 4096 MB Channels: 1 Width: 64-bit Data Rate: 400 MT/s
CPU 0 runs traces/clientserver/server_016.champsimtrace.xz
.xz
CPU 0 Bimodal branch predictor
BTB has LRU replacement policy
ITLB has LRU replacement policy
DTLB has LRU replacement policy
STLB has LRU replacement policy
L1I has LRU replacement policy
IP Table Entries: 256
L1D has LRU replacement policy
IP_Table L2 entries: 256
L2C has LRU replacement policy
LLC has LRU replacement policy
Heartbeat CPU 0 instructions: 10000000 cycles: 2875280 heartbeat IPC: 3.47792 cumulative IPC: 3.47792 (Simulation time: 0 hr 8 min 42 sec) 

Warmup complete CPU 0 instructions: 10000004 cycles: 2875281 (Simulation time: 0 hr 8 min 42 sec) 

Heartbeat CPU 0 instructions: 20000000 cycles: 26590012 heartbeat IPC: 0.421679 cumulative IPC: 0.421679 (Simulation time: 0 hr 17 min 10 sec) 
Heartbeat CPU 0 instructions: 30000001 cycles: 50275097 heartbeat IPC: 0.422207 cumulative IPC: 0.421943 (Simulation time: 0 hr 25 min 32 sec) 
Heartbeat CPU 0 instructions: 40000000 cycles: 66919996 heartbeat IPC: 0.600785 cumulative IPC: 0.468423 (Simulation time: 0 hr 32 min 10 sec) 
Heartbeat CPU 0 instructions: 50000002 cycles: 81234673 heartbeat IPC: 0.698584 cumulative IPC: 0.510468 (Simulation time: 0 hr 38 min 10 sec) 
Heartbeat CPU 0 instructions: 60000003 cycles: 96642816 heartbeat IPC: 0.649008 cumulative IPC: 0.533234 (Simulation time: 0 hr 44 min 20 sec) 
Finished CPU 0 instructions: 50000002 cycles: 93767536 cumulative IPC: 0.533234 (Simulation time: 0 hr 44 min 20 sec) 

ChampSim completed all CPUs

Region of Interest Statistics

CPU 0 cumulative IPC: 0.533234 instructions: 50000002 cycles: 93767536
ITLB TOTAL     ACCESS:   10323812  HIT:   10118196  MISS:     205616  HIT %:    98.0083  MISS %:    1.99167   MPKI: 4.11232
ITLB LOAD TRANSLATION ACCESS:   10323812  HIT:   10118196  MISS:     205616  HIT %:    98.0083  MISS %:    1.99167   MPKI: 4.11232
ITLB PREFETCH  REQUESTED:          0  ISSUED:          0  USEFUL:          0  USELESS:          0
ITLB USEFUL LOAD PREFETCHES:          0 PREFETCH ISSUED TO LOWER LEVEL:          0  ACCURACY: -nan
ITLB TIMELY PREFETCHES:          0 LATE PREFETCHES: 0 DROPPED PREFETCHES: 0
ITLB PREFETCHES SAME FILL-ORIGIN LEVEL: 0 DIFFERENT FILL-ORIGIN LEVEL: 0
ITLB AVERAGE MISS LATENCY: 9.14954 cycles
ITLB RQ	ACCESS:   11157098	FORWARD:          0	MERGED:     782232	TO_CACHE:   10374866

DTLB TOTAL     ACCESS:    8439465  HIT:    8222904  MISS:     216561  HIT %:    97.4339  MISS %:    2.56605   MPKI: 4.33122
DTLB LOAD TRANSLATION ACCESS:    8439465  HIT:    8222904  MISS:     216561  HIT %:    97.4339  MISS %:    2.56605   MPKI: 4.33122
DTLB PREFETCH  REQUESTED:          0  ISSUED:          0  USEFUL:          0  USELESS:          0
DTLB USEFUL LOAD PREFETCHES:          0 PREFETCH ISSUED TO LOWER LEVEL:          0  ACCURACY: -nan
DTLB TIMELY PREFETCHES:          0 LATE PREFETCHES: 0 DROPPED PREFETCHES: 0
DTLB PREFETCHES SAME FILL-ORIGIN LEVEL: 0 DIFFERENT FILL-ORIGIN LEVEL: 0
DTLB AVERAGE MISS LATENCY: 9.62057 cycles
DTLB RQ	ACCESS:   10111981	FORWARD:          0	MERGED:    1662928	TO_CACHE:    8449053

STLB TOTAL     ACCESS:    2421375  HIT:    2419988  MISS:       1387  HIT %:    99.9427  MISS %:  0.0572815   MPKI: 0.02774
STLB LOAD TRANSLATION ACCESS:     422177  HIT:     420790  MISS:       1387  HIT %:    99.6715  MISS %:   0.328535   MPKI: 0.02774
STLB TRANSLATION FROM L1D PREFETCHER ACCESS:    1999198  HIT:    1999198  MISS:          0  HIT %:        100  MISS %:          0   MPKI: 0
STLB PREFETCH  REQUESTED:          0  ISSUED:          0  USEFUL:          0  USELESS:          0
STLB USEFUL LOAD PREFETCHES:          0 PREFETCH ISSUED TO LOWER LEVEL:          0  ACCURACY: -nan
STLB TIMELY PREFETCHES:          0 LATE PREFETCHES: 0 DROPPED PREFETCHES: 0
STLB PREFETCHES SAME FILL-ORIGIN LEVEL: 0 DIFFERENT FILL-ORIGIN LEVEL: 0
STLB AVERAGE MISS LATENCY: 115.05 cycles
STLB RQ	ACCESS:    4427169	FORWARD:          0	MERGED:    2005794	TO_CACHE:    2421375

STLB Hit, L1D data hit: 0
STLB Hit, L2C data hit: 0
STLB Hit, LLC data hit: 0
STLB Hit, LLC data miss: 0
STLB STLB hints to L2: 0
L1D TOTAL     ACCESS:   13854835  HIT:   13324756  MISS:     530079  HIT %:    96.1741  MISS %:    3.82595   MPKI: 10.6016
L1D LOAD      ACCESS:    6488921  HIT:    6192817  MISS:     296104  HIT %:    95.4368  MISS %:    4.56322   MPKI: 5.92208
L1D RFO       ACCESS:    3371735  HIT:    3240761  MISS:     130974  HIT %:    96.1155  MISS %:    3.88447   MPKI: 2.61948
L1D PREFETCH  ACCESS:    3994179  HIT:    3891178  MISS:     103001  HIT %:    97.4212  MISS %:    2.57878   MPKI: 2.06002
L1D PREFETCH  REQUESTED:    8011617  ISSUED:    8010093  USEFUL:      28100  USELESS:      74874
L1D USEFUL LOAD PREFETCHES:      28100 PREFETCH ISSUED TO LOWER LEVEL:     103126  ACCURACY: 27.2482
L1D TIMELY PREFETCHES:      28100 LATE PREFETCHES: 31008 DROPPED PREFETCHES: 0
L1D PREFETCHES SAME FILL-ORIGIN LEVEL: 103126 DIFFERENT FILL-ORIGIN LEVEL: 0
L1D AVERAGE MISS LATENCY: 7012.12 cycles
L1D RQ	ACCESS:    8252652	FORWARD:          0	MERGED:    1666244	TO_CACHE:    6537494
L1D WQ	ACCESS:    3595475	FORWARD:      49023	MERGED:      20988	TO_CACHE:    3574487
L1D PQ	ACCESS:    4005101	FORWARD:          0	MERGED:          0	TO_CACHE:    4004992

L1D UNIQUE REGIONS ACCESSED: 0
L1D REGIONS CONFLICTS: 0
L1D Cross Page Prefetch Requests: 0
L1D Same Page Prefetch Requests: 4125933
L1D ROI Sum of L1D PQ occupancy: 53041945
L1D PREFETCHES PUSHED FROM L2C: 0
L1I TOTAL     ACCESS:   10960670  HIT:    9802732  MISS:    1157938  HIT %:    89.4355  MISS %:    10.5645   MPKI: 23.1588
L1I LOAD      ACCESS:   10960670  HIT:    9802732  MISS:    1157938  HIT %:    89.4355  MISS %:    10.5645   MPKI: 23.1588
L1I PREFETCH  REQUESTED:          0  ISSUED:          0  USEFUL:          0  USELESS:          0
L1I USEFUL LOAD PREFETCHES:          0 PREFETCH ISSUED TO LOWER LEVEL:          0  ACCURACY: -nan
L1I TIMELY PREFETCHES:          0 LATE PREFETCHES: 0 DROPPED PREFETCHES: 0
L1I PREFETCHES SAME FILL-ORIGIN LEVEL: 0 DIFFERENT FILL-ORIGIN LEVEL: 0
L1I AVERAGE MISS LATENCY: 18.7497 cycles
L1I RQ	ACCESS:   13270237	FORWARD:          0	MERGED:    2113139	TO_CACHE:   11157098

BTB TOTAL     ACCESS:    7190451  HIT:    6378068  MISS:     812383  HIT %:    88.7019  MISS %:    11.2981   MPKI: 16.2477
BTB BRANCH_DIRECT_JUMP	ACCESS:     339310  HIT:     269835  MISS:      69475
BTB BRANCH_INDIRECT	ACCESS:     121946  HIT:     106677  MISS:      15269
BTB BRANCH_CONDITIONAL	ACCESS:    5612690  HIT:    5396943  MISS:     215747
BTB BRANCH_DIRECT_CALL	ACCESS:     483870  HIT:     323041  MISS:     160829
BTB BRANCH_INDIRECT_CALL	ACCESS:      74389  HIT:      41457  MISS:      32932
BTB BRANCH_RETURN	ACCESS:     558246  HIT:     240115  MISS:     318131
BTB BRANCH_OTHER ACCESS:          0  HIT:          0  MISS:          0

L2C TOTAL     ACCESS:    2158171  HIT:    1817685  MISS:     340486  HIT %:    84.2234  MISS %:    15.7766   MPKI: 6.80972
L2C LOAD      ACCESS:    1454042  HIT:    1228713  MISS:     225329  HIT %:    84.5033  MISS %:    15.4967   MPKI: 4.50658
L2C DATA LOAD MPKI: 1.06482
L2C INSTRUCTION LOAD MPKI: 3.44176
L2C RFO       ACCESS:     130843  HIT:      90860  MISS:      39983  HIT %:     69.442  MISS %:     30.558   MPKI: 0.79966
L2C PREFETCH  ACCESS:     345545  HIT:     274243  MISS:      71302  HIT %:    79.3654  MISS %:    20.6346   MPKI: 1.42604
L2C DATA PREFETCH MPKI: 1.42604
L2C INSTRUCTION PREFETCH MPKI: 0
L2C WRITEBACK ACCESS:     226188  HIT:     223421  MISS:       2767  HIT %:    98.7767  MISS %:    1.22332   MPKI: 0.05534
L2C LOAD TRANSLATION ACCESS:       1553  HIT:        448  MISS:       1105  HIT %:    28.8474  MISS %:    71.1526   MPKI: 0.0221
L2C PREFETCH  REQUESTED:     248973  ISSUED:     248973  USEFUL:      11426  USELESS:      59993
L2C USEFUL LOAD PREFETCHES:      11426 PREFETCH ISSUED TO LOWER LEVEL:      72745  ACCURACY: 15.7069
L2C TIMELY PREFETCHES:      11426 LATE PREFETCHES: 1443 DROPPED PREFETCHES: 0
L2C PREFETCHES SAME FILL-ORIGIN LEVEL: 37097 DIFFERENT FILL-ORIGIN LEVEL: 0
L2C AVERAGE MISS LATENCY: 69.7389 cycles
L2C RQ	ACCESS:    1586444	FORWARD:          0	MERGED:          0	TO_CACHE:    1586438
L2C WQ	ACCESS:     226188	FORWARD:          7	MERGED:          0	TO_CACHE:     226188
L2C PQ	ACCESS:     352099	FORWARD:          0	MERGED:       2590	TO_CACHE:     349508

L2C Instructions Evicting Data 78955
L2C Translations Evicting Data 739
L2C Data Evicting Data 86590
L2C Instructions Evicting Instructions 92747
L2C Translations Evicting Instructions 358
L2C Data Evicting Instructions 77235
L2C Instructions Evicting Translations 386
L2C Translations Evicting Translations 8
L2C Data Evicting Translations 701
L2C Dense regions hint from L2: 0
PSCL5 TOTAL     ACCESS:       1387  HIT:       1387  MISS:          0  HIT %:        100  MISS %:          0   MPKI: 0
PSCL5 LOAD TRANSLATION ACCESS:       1387  HIT:       1387  MISS:          0  HIT %:        100  MISS %:          0   MPKI: 0
PSCL5 PREFETCH  REQUESTED:          0  ISSUED:          0  USEFUL:          0  USELESS:          0
PSCL5 USEFUL LOAD PREFETCHES:          0 PREFETCH ISSUED TO LOWER LEVEL:          0  ACCURACY: -nan
PSCL5 TIMELY PREFETCHES:          0 LATE PREFETCHES: 0 DROPPED PREFETCHES: 0
PSCL5 PREFETCHES SAME FILL-ORIGIN LEVEL: 0 DIFFERENT FILL-ORIGIN LEVEL: 0

PSCL4 TOTAL     ACCESS:       1268  HIT:       1262  MISS:          6  HIT %:    99.5268  MISS %:   0.473186   MPKI: 0.00012
PSCL4 LOAD TRANSLATION ACCESS:       1268  HIT:       1262  MISS:          6  HIT %:    99.5268  MISS %:   0.473186   MPKI: 0.00012
PSCL4 PREFETCH  REQUESTED:          0  ISSUED:          0  USEFUL:          0  USELESS:          0
PSCL4 USEFUL LOAD PREFETCHES:          0 PREFETCH ISSUED TO LOWER LEVEL:          0  ACCURACY: -nan
PSCL4 TIMELY PREFETCHES:          0 LATE PREFETCHES: 0 DROPPED PREFETCHES: 0
PSCL4 PREFETCHES SAME FILL-ORIGIN LEVEL: 0 DIFFERENT FILL-ORIGIN LEVEL: 0

PSCL3 TOTAL     ACCESS:       1375  HIT:       1369  MISS:          6  HIT %:    99.5636  MISS %:   0.436364   MPKI: 0.00012
PSCL3 LOAD TRANSLATION ACCESS:       1375  HIT:       1369  MISS:          6  HIT %:    99.5636  MISS %:   0.436364   MPKI: 0.00012
PSCL3 PREFETCH  REQUESTED:          0  ISSUED:          0  USEFUL:          0  USELESS:          0
PSCL3 USEFUL LOAD PREFETCHES:          0 PREFETCH ISSUED TO LOWER LEVEL:          0  ACCURACY: -nan
PSCL3 TIMELY PREFETCHES:          0 LATE PREFETCHES: 0 DROPPED PREFETCHES: 0
PSCL3 PREFETCHES SAME FILL-ORIGIN LEVEL: 0 DIFFERENT FILL-ORIGIN LEVEL: 0

PSCL2 TOTAL     ACCESS:       1387  HIT:       1229  MISS:        158  HIT %:    88.6085  MISS %:    11.3915   MPKI: 0.00316
PSCL2 LOAD TRANSLATION ACCESS:       1387  HIT:       1229  MISS:        158  HIT %:    88.6085  MISS %:    11.3915   MPKI: 0.00316
PSCL2 PREFETCH  REQUESTED:          0  ISSUED:          0  USEFUL:          0  USELESS:          0
PSCL2 USEFUL LOAD PREFETCHES:          0 PREFETCH ISSUED TO LOWER LEVEL:          0  ACCURACY: -nan
PSCL2 TIMELY PREFETCHES:          0 LATE PREFETCHES: 0 DROPPED PREFETCHES: 0
PSCL2 PREFETCHES SAME FILL-ORIGIN LEVEL: 0 DIFFERENT FILL-ORIGIN LEVEL: 0

LLC TOTAL     ACCESS:     400910  HIT:     378626  MISS:      22284  HIT %:    94.4416  MISS %:    5.55835   MPKI: 0.44568
LLC LOAD      ACCESS:     224030  HIT:     220102  MISS:       3928  HIT %:    98.2467  MISS %:    1.75334   MPKI: 0.07856
LLC RFO       ACCESS:      39839  HIT:      29738  MISS:      10101  HIT %:    74.6454  MISS %:    25.3546   MPKI: 0.20202
LLC PREFETCH  ACCESS:      72745  HIT:      64720  MISS:       8025  HIT %:    88.9683  MISS %:    11.0317   MPKI: 0.1605
LLC WRITEBACK ACCESS:      63191  HIT:      63125  MISS:         66  HIT %:    99.8956  MISS %:   0.104445   MPKI: 0.00132
LLC LOAD TRANSLATION ACCESS:       1105  HIT:        941  MISS:        164  HIT %:    85.1584  MISS %:    14.8416   MPKI: 0.00328
LLC PREFETCH  REQUESTED:          0  ISSUED:          0  USEFUL:        914  USELESS:       6247
LLC USEFUL LOAD PREFETCHES:        914 PREFETCH ISSUED TO LOWER LEVEL:       8025  ACCURACY: 11.3894
LLC TIMELY PREFETCHES:        914 LATE PREFETCHES: 0 DROPPED PREFETCHES: 0
LLC PREFETCHES SAME FILL-ORIGIN LEVEL: 0 DIFFERENT FILL-ORIGIN LEVEL: 0
LLC AVERAGE MISS LATENCY: 613.297 cycles
LLC RQ	ACCESS:     264974	FORWARD:          0	MERGED:          0	TO_CACHE:     264974
LLC WQ	ACCESS:      63191	FORWARD:          0	MERGED:          0	TO_CACHE:      63191
LLC PQ	ACCESS:      72745	FORWARD:          0	MERGED:          0	TO_CACHE:      72745

LLC Dense regions hint to LLC: 0

RAW hits: 340904
Loads Generated: 8593557
Loads sent to L1D: 8252652
Stores Generated: 3595476
Stores sent to L1D: 3595475
Major fault: 0 Minor fault: 2141
Allocated PAGES: 2141

stream: 
stream:times selected: 2654643
stream:pref_filled: 83000
stream:pref_useful: 15279
stream:pref_late: 23567
stream:misses: 6923
stream:misses_by_poll: 0

CS: 
CS:times selected: 2040322
CS:pref_filled: 39311
CS:pref_useful: 25372
CS:pref_late: 3932
CS:misses: 12074
CS:misses_by_poll: 3

CPLX: 
CPLX:times selected: 612628
CPLX:pref_filled: 18428
CPLX:pref_useful: 5400
CPLX:pref_late: 1569
CPLX:misses: 65323
CPLX:misses_by_poll: 4

NL_L1: 
NL:times selected: 4117
NL:pref_filled: 405
NL:pref_useful: 45
NL:pref_late: 19
NL:misses: 351
NL:misses_by_poll: 0

total selections: 5311710
total_filled: 103001
total_useful: 28100
total_late: 29237
total_polluted: 7
total_misses_after_warmup: 344680
conflicts: 1399012
Degree Incremented Times: 1445
Degree Decremented Times: 78921

L1 IP Table Write Accesses: 4911507
L1 IP Table Read Accesses: 3512495
L1 RST Write Accesses: 2455773
L1 RST Read Accesses: 4911546
L1 CSPT Write Accesses: 2455773
L1 CSPT Read Accesses: 2897131
L1 RR Filter Tag Write Accesses: 4006625
L1 RR Filter Tag Read Accesses: 255969639
L1 IP Table Tag Write Accesses: 6537497
L1 IP Table Tag Read Accesses: 6537497
L1 RST Tag Write Accesses: 0
L1 RST Tag Read Accesses: 21240946
L1 RR Filter Write Accesses: 0
L1 RR Filter Read Accesses: 8355538
test: 174337
L2 IP Table Read Accesses: 541852
L2 IP Table Write Accesses: 710820
L2 IP Table Tag Read Accesses: 396658
L2 IP Table Tag Write Accesses: 396658

DRAM Statistics
 CHANNEL 0
 RQ ROW_BUFFER_HIT:      11168  ROW_BUFFER_MISS:      11045
 DBUS_CONGESTED:      20964
 WQ ROW_BUFFER_HIT:        789  ROW_BUFFER_MISS:       4262  FULL:          0

 AVG_CONGESTED_CYCLE: 75
 All warmup complete: 2
Channel 0 Bank busy for read cycles: 0
Channel 0 Bank busy for write cycles: 0
Channel 0
Rank 0
0banks busy for read cycles: 91127290
0banks busy for write cycles: 1350
1banks busy for read cycles: 621167
1banks busy for write cycles: 184429
2banks busy for read cycles: 334811
2banks busy for write cycles: 78372
3banks busy for read cycles: 143318
3banks busy for write cycles: 48596
4banks busy for read cycles: 107649
4banks busy for write cycles: 42544
5banks busy for read cycles: 86122
5banks busy for write cycles: 35379
6banks busy for read cycles: 76057
6banks busy for write cycles: 30899
7banks busy for read cycles: 87480
7banks busy for write cycles: 37440
8banks busy for read cycles: 603358
8banks busy for write cycles: 121276

CPU 0 Branch Prediction Accuracy: 95.959% MPKI: 7.171 Average ROB Occupancy at Mispredict: 18.1946
Branch types
NOT_BRANCH: 41127058 82.2541%
BRANCH_DIRECT_JUMP: 339310 0.67862%
BRANCH_INDIRECT: 121946 0.243892%
BRANCH_CONDITIONAL: 7295137 14.5903%
BRANCH_DIRECT_CALL: 483870 0.96774%
BRANCH_INDIRECT_CALL: 74389 0.148778%
BRANCH_RETURN: 558246 1.11649%
BRANCH_OTHER: 0 0%

@sumon_overall_L1D     28100     31008     74874    103001   8010093   8011617
@Sumon_Early_by_class_L1D      8613     17108      1906         7
@Sumon_Late_by_class_L1D     22542      3670      1164         7

@Sumon_Early_by_cycle_L1D     19497      1099      1138      2133       191       452       339      1050       500      1166       388       147
@Sumon_Late_by_cycle_L1D     25500       612       768       532        74        23         1         1         0         1         0         0
@Sumon_Early_stream_L1D      2541       744       713      1710       100       237       260       651       299       867       350       141
@Sumon_Early_CS_L1D     16093       292       305        85        19        58        21       170        11        49         2         3
@Sumon_Early_CPLX_L1D       785        41        89       287        23       138        56       216       104       131        35         1
@Sumon_Late_stream_L1D     22470        49        17         2         4         0         0         0         0         0         0         0
@Sumon_Late_CS_L1D      1797       500       747       530        70        23         1         1         0         1         0         0
@Sumon_Late_CPLX_L1D      1150        10         4         0         0         0         0         0         0         0         0         0
@sumon_overall_L2C     11426      1443     59993     71302    248973    248973
@Sumon_Early_by_class_L2C      1393        87       283         0
@Sumon_Late_by_class_L2C         0         0         0         0

@Sumon_Early_by_cycle_L2C      1828      1041       556       651       323      1280       983       798       263       363       553      2787
@Sumon_Late_by_cycle_L2C      1146       283        13         1         0         0         0         0         0         0         0         0
@Sumon_Early_stream_L2C         0         0         0         0         0         0         0         0         0         8       176      1209
@Sumon_Early_CS_L2C         0         0         0         0         0         0         0         0         0         0         0        87
@Sumon_Early_CPLX_L2C         0         0         0         0         0         0         0         0         0         0        30       253
@Sumon_Late_stream_L2C         0         0         0         0         0         0         0         0         0         0         0         0
@Sumon_Late_CS_L2C         0         0         0         0         0         0         0         0         0         0         0         0
@Sumon_Late_CPLX_L2C         0         0         0         0         0         0         0         0         0         0         0         0
DRAM PAGES: 1048576
Allocated PAGES: 2141
