
*** ChampSim Multicore Out-of-Order Simulator ***

Warmup Instructions: 10000000
Simulation Instructions: 50000000
Number of CPUs: 1
LLC sets: 2048
LLC ways: 16
Off-chip DRAM Size: 4096 MB Channels: 1 Width: 64-bit Data Rate: 400 MT/s
CPU 0 runs traces/clientserver/server_028.champsimtrace.xz
.xz
CPU 0 Bimodal branch predictor
BTB has LRU replacement policy
ITLB has LRU replacement policy
DTLB has LRU replacement policy
STLB has LRU replacement policy
L1I has LRU replacement policy
IP Table Entries: 256
L1D has LRU replacement policy
IP_Table L2 entries: 256
L2C has LRU replacement policy
LLC has LRU replacement policy
Heartbeat CPU 0 instructions: 10000001 cycles: 2888079 heartbeat IPC: 3.46251 cumulative IPC: 3.46251 (Simulation time: 0 hr 8 min 44 sec) 

Warmup complete CPU 0 instructions: 10000001 cycles: 2888079 (Simulation time: 0 hr 8 min 44 sec) 

Heartbeat CPU 0 instructions: 20000002 cycles: 28335491 heartbeat IPC: 0.392967 cumulative IPC: 0.392967 (Simulation time: 0 hr 17 min 27 sec) 
Heartbeat CPU 0 instructions: 30000002 cycles: 53813288 heartbeat IPC: 0.392499 cumulative IPC: 0.392733 (Simulation time: 0 hr 25 min 58 sec) 
Heartbeat CPU 0 instructions: 40000000 cycles: 79388393 heartbeat IPC: 0.391005 cumulative IPC: 0.392155 (Simulation time: 0 hr 34 min 42 sec) 
Heartbeat CPU 0 instructions: 50000001 cycles: 104800174 heartbeat IPC: 0.393518 cumulative IPC: 0.392495 (Simulation time: 0 hr 43 min 15 sec) 
Heartbeat CPU 0 instructions: 60000000 cycles: 130227257 heartbeat IPC: 0.393281 cumulative IPC: 0.392652 (Simulation time: 0 hr 50 min 50 sec) 
Finished CPU 0 instructions: 50000001 cycles: 127339179 cumulative IPC: 0.392652 (Simulation time: 0 hr 50 min 50 sec) 

ChampSim completed all CPUs

Region of Interest Statistics

CPU 0 cumulative IPC: 0.392652 instructions: 50000001 cycles: 127339179
ITLB TOTAL     ACCESS:    8712391  HIT:    8180438  MISS:     531953  HIT %:    93.8943  MISS %:    6.10571   MPKI: 10.6391
ITLB LOAD TRANSLATION ACCESS:    8712391  HIT:    8180438  MISS:     531953  HIT %:    93.8943  MISS %:    6.10571   MPKI: 10.6391
ITLB PREFETCH  REQUESTED:          0  ISSUED:          0  USEFUL:          0  USELESS:          0
ITLB USEFUL LOAD PREFETCHES:          0 PREFETCH ISSUED TO LOWER LEVEL:          0  ACCURACY: -nan
ITLB TIMELY PREFETCHES:          0 LATE PREFETCHES: 0 DROPPED PREFETCHES: 0
ITLB PREFETCHES SAME FILL-ORIGIN LEVEL: 0 DIFFERENT FILL-ORIGIN LEVEL: 0
ITLB AVERAGE MISS LATENCY: 9.35928 cycles
ITLB RQ	ACCESS:   10376548	FORWARD:          0	MERGED:    1527293	TO_CACHE:    8849255

DTLB TOTAL     ACCESS:   12232728  HIT:   11690206  MISS:     542522  HIT %:     95.565  MISS %:      4.435   MPKI: 10.8504
DTLB LOAD TRANSLATION ACCESS:   12232728  HIT:   11690206  MISS:     542522  HIT %:     95.565  MISS %:      4.435   MPKI: 10.8504
DTLB PREFETCH  REQUESTED:          0  ISSUED:          0  USEFUL:          0  USELESS:          0
DTLB USEFUL LOAD PREFETCHES:          0 PREFETCH ISSUED TO LOWER LEVEL:          0  ACCURACY: -nan
DTLB TIMELY PREFETCHES:          0 LATE PREFETCHES: 0 DROPPED PREFETCHES: 0
DTLB PREFETCHES SAME FILL-ORIGIN LEVEL: 0 DIFFERENT FILL-ORIGIN LEVEL: 0
DTLB AVERAGE MISS LATENCY: 12.9199 cycles
DTLB RQ	ACCESS:   15353106	FORWARD:          0	MERGED:    3101393	TO_CACHE:   12251713

STLB TOTAL     ACCESS:    1601909  HIT:    1581709  MISS:      20200  HIT %:     98.739  MISS %:      1.261   MPKI: 0.404
STLB LOAD TRANSLATION ACCESS:    1074475  HIT:    1054275  MISS:      20200  HIT %:      98.12  MISS %:    1.87999   MPKI: 0.404
STLB TRANSLATION FROM L1D PREFETCHER ACCESS:     527434  HIT:     527434  MISS:          0  HIT %:        100  MISS %:          0   MPKI: 0
STLB PREFETCH  REQUESTED:          0  ISSUED:          0  USEFUL:          0  USELESS:          0
STLB USEFUL LOAD PREFETCHES:          0 PREFETCH ISSUED TO LOWER LEVEL:          0  ACCURACY: -nan
STLB TIMELY PREFETCHES:          0 LATE PREFETCHES: 0 DROPPED PREFETCHES: 0
STLB PREFETCHES SAME FILL-ORIGIN LEVEL: 0 DIFFERENT FILL-ORIGIN LEVEL: 0
STLB AVERAGE MISS LATENCY: 114.031 cycles
STLB RQ	ACCESS:    1980849	FORWARD:          0	MERGED:     378940	TO_CACHE:    1601909

STLB Hit, L1D data hit: 0
STLB Hit, L2C data hit: 0
STLB Hit, LLC data hit: 0
STLB Hit, LLC data miss: 0
STLB STLB hints to L2: 0
L1D TOTAL     ACCESS:   15674477  HIT:   13926346  MISS:    1748131  HIT %:    88.8473  MISS %:    11.1527   MPKI: 34.9626
L1D LOAD      ACCESS:    8529281  HIT:    7655252  MISS:     874029  HIT %:    89.7526  MISS %:    10.2474   MPKI: 17.4806
L1D RFO       ACCESS:    6263632  HIT:    5960414  MISS:     303218  HIT %:    95.1591  MISS %:    4.84093   MPKI: 6.06436
L1D PREFETCH  ACCESS:     881564  HIT:     310680  MISS:     570884  HIT %:    35.2419  MISS %:    64.7581   MPKI: 11.4177
L1D PREFETCH  REQUESTED:    1812983  ISSUED:    1812970  USEFUL:     262930  USELESS:     307974
L1D USEFUL LOAD PREFETCHES:     262930 PREFETCH ISSUED TO LOWER LEVEL:     570990  ACCURACY: 46.0481
L1D TIMELY PREFETCHES:     262930 LATE PREFETCHES: 59032 DROPPED PREFETCHES: 0
L1D PREFETCHES SAME FILL-ORIGIN LEVEL: 570990 DIFFERENT FILL-ORIGIN LEVEL: 0
L1D AVERAGE MISS LATENCY: 3760.91 cycles
L1D RQ	ACCESS:   11730934	FORWARD:          0	MERGED:    2981176	TO_CACHE:    8634063
L1D WQ	ACCESS:    6762627	FORWARD:     115917	MERGED:      43584	TO_CACHE:    6719043
L1D PQ	ACCESS:     906596	FORWARD:          0	MERGED:          0	TO_CACHE:     906374

L1D UNIQUE REGIONS ACCESSED: 0
L1D REGIONS CONFLICTS: 0
L1D Cross Page Prefetch Requests: 0
L1D Same Page Prefetch Requests: 1076558
L1D ROI Sum of L1D PQ occupancy: 11698828
L1D PREFETCHES PUSHED FROM L2C: 0
L1I TOTAL     ACCESS:    9849753  HIT:    6963386  MISS:    2886367  HIT %:     70.696  MISS %:     29.304   MPKI: 57.7273
L1I LOAD      ACCESS:    9849753  HIT:    6963386  MISS:    2886367  HIT %:     70.696  MISS %:     29.304   MPKI: 57.7273
L1I PREFETCH  REQUESTED:          0  ISSUED:          0  USEFUL:          0  USELESS:          0
L1I USEFUL LOAD PREFETCHES:          0 PREFETCH ISSUED TO LOWER LEVEL:          0  ACCURACY: -nan
L1I TIMELY PREFETCHES:          0 LATE PREFETCHES: 0 DROPPED PREFETCHES: 0
L1I PREFETCHES SAME FILL-ORIGIN LEVEL: 0 DIFFERENT FILL-ORIGIN LEVEL: 0
L1I AVERAGE MISS LATENCY: 18.0848 cycles
L1I RQ	ACCESS:   13995314	FORWARD:          0	MERGED:    3618766	TO_CACHE:   10376548

BTB TOTAL     ACCESS:    6128313  HIT:    4315808  MISS:    1812505  HIT %:    70.4241  MISS %:    29.5759   MPKI: 36.2501
BTB BRANCH_DIRECT_JUMP	ACCESS:     522169  HIT:     376870  MISS:     145299
BTB BRANCH_INDIRECT	ACCESS:     166479  HIT:     131760  MISS:      34719
BTB BRANCH_CONDITIONAL	ACCESS:    3081708  HIT:    2589088  MISS:     492620
BTB BRANCH_DIRECT_CALL	ACCESS:     991455  HIT:     639816  MISS:     351639
BTB BRANCH_INDIRECT_CALL	ACCESS:     187516  HIT:     119653  MISS:      67863
BTB BRANCH_RETURN	ACCESS:    1178986  HIT:     458621  MISS:     720365
BTB BRANCH_OTHER ACCESS:          0  HIT:          0  MISS:          0

L2C TOTAL     ACCESS:    6215722  HIT:    5339974  MISS:     875748  HIT %:    85.9108  MISS %:    14.0892   MPKI: 17.515
L2C LOAD      ACCESS:    3760395  HIT:    3240589  MISS:     519806  HIT %:    86.1768  MISS %:    13.8232   MPKI: 10.3961
L2C DATA LOAD MPKI: 2.90158
L2C INSTRUCTION LOAD MPKI: 7.49454
L2C RFO       ACCESS:     303112  HIT:     237353  MISS:      65759  HIT %:    78.3054  MISS %:    21.6946   MPKI: 1.31518
L2C PREFETCH  ACCESS:    1523468  HIT:    1250894  MISS:     272574  HIT %:    82.1083  MISS %:    17.8917   MPKI: 5.45148
L2C DATA PREFETCH MPKI: 5.45148
L2C INSTRUCTION PREFETCH MPKI: 0
L2C WRITEBACK ACCESS:     599871  HIT:     595494  MISS:       4377  HIT %:    99.2703  MISS %:   0.729657   MPKI: 0.08754
L2C LOAD TRANSLATION ACCESS:      28876  HIT:      15644  MISS:      13232  HIT %:    54.1765  MISS %:    45.8235   MPKI: 0.26464
L2C PREFETCH  REQUESTED:    1018243  ISSUED:    1018243  USEFUL:      27859  USELESS:     244647
L2C USEFUL LOAD PREFETCHES:      27859 PREFETCH ISSUED TO LOWER LEVEL:     278454  ACCURACY: 10.0049
L2C TIMELY PREFETCHES:      27859 LATE PREFETCHES: 5880 DROPPED PREFETCHES: 0
L2C PREFETCHES SAME FILL-ORIGIN LEVEL: 121899 DIFFERENT FILL-ORIGIN LEVEL: 0
L2C AVERAGE MISS LATENCY: 62.1251 cycles
L2C RQ	ACCESS:    4092385	FORWARD:          0	MERGED:          0	TO_CACHE:    4092384
L2C WQ	ACCESS:     599871	FORWARD:         12	MERGED:          0	TO_CACHE:     599871
L2C PQ	ACCESS:    1589233	FORWARD:          0	MERGED:      45953	TO_CACHE:    1543269

L2C Instructions Evicting Data 177026
L2C Translations Evicting Data 9463
L2C Data Evicting Data 298764
L2C Instructions Evicting Instructions 194249
L2C Translations Evicting Instructions 3260
L2C Data Evicting Instructions 175412
L2C Instructions Evicting Translations 3452
L2C Translations Evicting Translations 509
L2C Data Evicting Translations 9236
L2C Dense regions hint from L2: 0
PSCL5 TOTAL     ACCESS:      20200  HIT:      20200  MISS:          0  HIT %:        100  MISS %:          0   MPKI: 0
PSCL5 LOAD TRANSLATION ACCESS:      20200  HIT:      20200  MISS:          0  HIT %:        100  MISS %:          0   MPKI: 0
PSCL5 PREFETCH  REQUESTED:          0  ISSUED:          0  USEFUL:          0  USELESS:          0
PSCL5 USEFUL LOAD PREFETCHES:          0 PREFETCH ISSUED TO LOWER LEVEL:          0  ACCURACY: -nan
PSCL5 TIMELY PREFETCHES:          0 LATE PREFETCHES: 0 DROPPED PREFETCHES: 0
PSCL5 PREFETCHES SAME FILL-ORIGIN LEVEL: 0 DIFFERENT FILL-ORIGIN LEVEL: 0

PSCL4 TOTAL     ACCESS:      19724  HIT:      19544  MISS:        180  HIT %:    99.0874  MISS %:   0.912594   MPKI: 0.0036
PSCL4 LOAD TRANSLATION ACCESS:      19724  HIT:      19544  MISS:        180  HIT %:    99.0874  MISS %:   0.912594   MPKI: 0.0036
PSCL4 PREFETCH  REQUESTED:          0  ISSUED:          0  USEFUL:          0  USELESS:          0
PSCL4 USEFUL LOAD PREFETCHES:          0 PREFETCH ISSUED TO LOWER LEVEL:          0  ACCURACY: -nan
PSCL4 TIMELY PREFETCHES:          0 LATE PREFETCHES: 0 DROPPED PREFETCHES: 0
PSCL4 PREFETCHES SAME FILL-ORIGIN LEVEL: 0 DIFFERENT FILL-ORIGIN LEVEL: 0

PSCL3 TOTAL     ACCESS:      20136  HIT:      19955  MISS:        181  HIT %:    99.1011  MISS %:   0.898888   MPKI: 0.00362
PSCL3 LOAD TRANSLATION ACCESS:      20136  HIT:      19955  MISS:        181  HIT %:    99.1011  MISS %:   0.898888   MPKI: 0.00362
PSCL3 PREFETCH  REQUESTED:          0  ISSUED:          0  USEFUL:          0  USELESS:          0
PSCL3 USEFUL LOAD PREFETCHES:          0 PREFETCH ISSUED TO LOWER LEVEL:          0  ACCURACY: -nan
PSCL3 TIMELY PREFETCHES:          0 LATE PREFETCHES: 0 DROPPED PREFETCHES: 0
PSCL3 PREFETCHES SAME FILL-ORIGIN LEVEL: 0 DIFFERENT FILL-ORIGIN LEVEL: 0

PSCL2 TOTAL     ACCESS:      20200  HIT:      11878  MISS:       8322  HIT %:     58.802  MISS %:     41.198   MPKI: 0.16644
PSCL2 LOAD TRANSLATION ACCESS:      20200  HIT:      11878  MISS:       8322  HIT %:     58.802  MISS %:     41.198   MPKI: 0.16644
PSCL2 PREFETCH  REQUESTED:          0  ISSUED:          0  USEFUL:          0  USELESS:          0
PSCL2 USEFUL LOAD PREFETCHES:          0 PREFETCH ISSUED TO LOWER LEVEL:          0  ACCURACY: -nan
PSCL2 TIMELY PREFETCHES:          0 LATE PREFETCHES: 0 DROPPED PREFETCHES: 0
PSCL2 PREFETCHES SAME FILL-ORIGIN LEVEL: 0 DIFFERENT FILL-ORIGIN LEVEL: 0

LLC TOTAL     ACCESS:     994663  HIT:     917437  MISS:      77226  HIT %:     92.236  MISS %:    7.76404   MPKI: 1.54452
LLC LOAD      ACCESS:     514107  HIT:     495864  MISS:      18243  HIT %:    96.4515  MISS %:    3.54848   MPKI: 0.36486
LLC RFO       ACCESS:      65570  HIT:      62926  MISS:       2644  HIT %:    95.9677  MISS %:    4.03233   MPKI: 0.05288
LLC PREFETCH  ACCESS:     278454  HIT:     225572  MISS:      52882  HIT %:    81.0087  MISS %:    18.9913   MPKI: 1.05764
LLC WRITEBACK ACCESS:     123300  HIT:     122959  MISS:        341  HIT %:    99.7234  MISS %:   0.276561   MPKI: 0.00682
LLC LOAD TRANSLATION ACCESS:      13232  HIT:      10116  MISS:       3116  HIT %:     76.451  MISS %:     23.549   MPKI: 0.06232
LLC PREFETCH  REQUESTED:          0  ISSUED:          0  USEFUL:       2170  USELESS:      48080
LLC USEFUL LOAD PREFETCHES:       2170 PREFETCH ISSUED TO LOWER LEVEL:      52882  ACCURACY: 4.10348
LLC TIMELY PREFETCHES:       2170 LATE PREFETCHES: 0 DROPPED PREFETCHES: 0
LLC PREFETCHES SAME FILL-ORIGIN LEVEL: 0 DIFFERENT FILL-ORIGIN LEVEL: 0
LLC AVERAGE MISS LATENCY: 367.505 cycles
LLC RQ	ACCESS:     592917	FORWARD:          0	MERGED:          0	TO_CACHE:     592909
LLC WQ	ACCESS:     123300	FORWARD:          8	MERGED:          0	TO_CACHE:     123300
LLC PQ	ACCESS:     278454	FORWARD:          0	MERGED:          0	TO_CACHE:     278454

LLC Dense regions hint to LLC: 0

RAW hits: 559615
Loads Generated: 12290549
Loads sent to L1D: 11730934
Stores Generated: 6762620
Stores sent to L1D: 6762627
Major fault: 0 Minor fault: 5563
Allocated PAGES: 5563

stream: 
stream:times selected: 1052609
stream:pref_filled: 143426
stream:pref_useful: 27216
stream:pref_late: 21967
stream:misses: 14114
stream:misses_by_poll: 0

CS: 
CS:times selected: 164896
CS:pref_filled: 120603
CS:pref_useful: 98210
CS:pref_late: 6860
CS:misses: 18734
CS:misses_by_poll: 82

CPLX: 
CPLX:times selected: 885118
CPLX:pref_filled: 405451
CPLX:pref_useful: 186189
CPLX:pref_late: 26690
CPLX:misses: 131180
CPLX:misses_by_poll: 483

NL_L1: 
NL:times selected: 2132
NL:pref_filled: 340
NL:pref_useful: 17
NL:pref_late: 7
NL:misses: 98
NL:misses_by_poll: 0

total selections: 2104755
total_filled: 570884
total_useful: 262930
total_late: 55813
total_polluted: 565
total_misses_after_warmup: 978812
conflicts: 3262874
Degree Incremented Times: 24678
Degree Decremented Times: 160589

L1 IP Table Write Accesses: 5095053
L1 IP Table Read Accesses: 1832179
L1 RST Write Accesses: 876580
L1 RST Read Accesses: 1753160
L1 CSPT Write Accesses: 876580
L1 CSPT Read Accesses: 2928583
L1 RR Filter Tag Write Accesses: 906609
L1 RR Filter Tag Read Accesses: 69583131
L1 IP Table Tag Write Accesses: 8634064
L1 IP Table Tag Read Accesses: 8634064
L1 RST Tag Write Accesses: 0
L1 RST Tag Read Accesses: 6781334
L1 RR Filter Write Accesses: 0
L1 RR Filter Read Accesses: 2458972
test: 169386
L2 IP Table Read Accesses: 2073582
L2 IP Table Write Accesses: 2602826
L2 IP Table Tag Read Accesses: 1419810
L2 IP Table Tag Write Accesses: 1419810

DRAM Statistics
 CHANNEL 0
 RQ ROW_BUFFER_HIT:      23198  ROW_BUFFER_MISS:      53687
 DBUS_CONGESTED:      59910
 WQ ROW_BUFFER_HIT:        504  ROW_BUFFER_MISS:       2462  FULL:          0

 AVG_CONGESTED_CYCLE: 72
 All warmup complete: 2
Channel 0 Bank busy for read cycles: 0
Channel 0 Bank busy for write cycles: 0
Channel 0
Rank 0
0banks busy for read cycles: 119659598
0banks busy for write cycles: 1653
1banks busy for read cycles: 2175825
1banks busy for write cycles: 292583
2banks busy for read cycles: 1477857
2banks busy for write cycles: 116953
3banks busy for read cycles: 1033901
3banks busy for write cycles: 58142
4banks busy for read cycles: 820883
4banks busy for write cycles: 21673
5banks busy for read cycles: 632151
5banks busy for write cycles: 6522
6banks busy for read cycles: 417763
6banks busy for write cycles: 3163
7banks busy for read cycles: 262352
7banks busy for write cycles: 2232
8banks busy for read cycles: 351522
8banks busy for write cycles: 4407

CPU 0 Branch Prediction Accuracy: 92.2315% MPKI: 14.6258 Average ROB Occupancy at Mispredict: 19.3944
Branch types
NOT_BRANCH: 40586087 81.1722%
BRANCH_DIRECT_JUMP: 522169 1.04434%
BRANCH_INDIRECT: 166479 0.332958%
BRANCH_CONDITIONAL: 6366960 12.7339%
BRANCH_DIRECT_CALL: 991455 1.98291%
BRANCH_INDIRECT_CALL: 187516 0.375032%
BRANCH_RETURN: 1178986 2.35797%
BRANCH_OTHER: 0 0%

@sumon_overall_L1D    262930     59032    307974    570884   1812970   1812983
@Sumon_Early_by_class_L1D     21856     89950    149229         3
@Sumon_Late_by_class_L1D     20858      6490     23329         3

@Sumon_Early_by_cycle_L1D    228243      6863      3935      5460       480      3469      1533      1965      6566      3879       531         6
@Sumon_Late_by_cycle_L1D     45102      2081      2246      1130       277       111         0         0         0         0         0         0
@Sumon_Early_stream_L1D      7312      3116      1480      3463       317      1460       775       975      1716      1207        33         2
@Sumon_Early_CS_L1D     87511      1304       894       137        13         0         0         0        29        62         0         0
@Sumon_Early_CPLX_L1D    132718      2380      1510      1825       125      1989       591       988      4058      2544       497         4
@Sumon_Late_stream_L1D     19860       534       350        89        18         7         0         0         0         0         0         0
@Sumon_Late_CS_L1D      2347      1098      1722       979       244       100         0         0         0         0         0         0
@Sumon_Late_CPLX_L1D     22674       407       170        61        14         3         0         0         0         0         0         0
@sumon_overall_L2C     27859      5880    244647    272574   1018243   1018243
@Sumon_Early_by_class_L2C      2406       192      1832         0
@Sumon_Late_by_class_L2C         0       103         0         0

@Sumon_Early_by_cycle_L2C      5645      2366      2596      1779      1622      2666      1372      2563       325      1147      2873      2905
@Sumon_Late_by_cycle_L2C      5136       620        88        23         8         5         0         0         0         0         0         0
@Sumon_Early_stream_L2C         0         0         0         0         0         0         0         0         0       258      1488       660
@Sumon_Early_CS_L2C        23         5        10         1         0         0         0         5         1         0        20       127
@Sumon_Early_CPLX_L2C         0         0         0         0         0         0         0         0         0        70       638      1124
@Sumon_Late_stream_L2C         0         0         0         0         0         0         0         0         0         0         0         0
@Sumon_Late_CS_L2C        54         3        22        13         6         5         0         0         0         0         0         0
@Sumon_Late_CPLX_L2C         0         0         0         0         0         0         0         0         0         0         0         0
DRAM PAGES: 1048576
Allocated PAGES: 5563
