
*** ChampSim Multicore Out-of-Order Simulator ***

Warmup Instructions: 10000000
Simulation Instructions: 50000000
Number of CPUs: 1
LLC sets: 2048
LLC ways: 16
Off-chip DRAM Size: 4096 MB Channels: 1 Width: 64-bit Data Rate: 400 MT/s
CPU 0 runs traces/clientserver/server_018.champsimtrace.xz
.xz
CPU 0 Bimodal branch predictor
BTB has LRU replacement policy
ITLB has LRU replacement policy
DTLB has LRU replacement policy
STLB has LRU replacement policy
L1I has LRU replacement policy
IP Table Entries: 256
L1D has LRU replacement policy
IP_Table L2 entries: 256
L2C has LRU replacement policy
LLC has LRU replacement policy
Heartbeat CPU 0 instructions: 10000003 cycles: 3149777 heartbeat IPC: 3.17483 cumulative IPC: 3.17483 (Simulation time: 0 hr 9 min 25 sec) 

Warmup complete CPU 0 instructions: 10000003 cycles: 3149777 (Simulation time: 0 hr 9 min 25 sec) 

Heartbeat CPU 0 instructions: 20000000 cycles: 48944723 heartbeat IPC: 0.218365 cumulative IPC: 0.218365 (Simulation time: 0 hr 34 min 50 sec) 
Heartbeat CPU 0 instructions: 30000000 cycles: 94305328 heartbeat IPC: 0.220456 cumulative IPC: 0.219405 (Simulation time: 0 hr 52 min 3 sec) 
Heartbeat CPU 0 instructions: 40000000 cycles: 139653931 heartbeat IPC: 0.220514 cumulative IPC: 0.219774 (Simulation time: 0 hr 55 min 39 sec) 
Heartbeat CPU 0 instructions: 50000000 cycles: 184562704 heartbeat IPC: 0.222674 cumulative IPC: 0.220491 (Simulation time: 0 hr 59 min 35 sec) 
Heartbeat CPU 0 instructions: 60000000 cycles: 229657230 heartbeat IPC: 0.221756 cumulative IPC: 0.220743 (Simulation time: 1 hr 3 min 35 sec) 
Finished CPU 0 instructions: 50000003 cycles: 226507467 cumulative IPC: 0.220743 (Simulation time: 1 hr 3 min 35 sec) 

ChampSim completed all CPUs

Region of Interest Statistics

CPU 0 cumulative IPC: 0.220743 instructions: 50000003 cycles: 226507467
ITLB TOTAL     ACCESS:    8987029  HIT:    8651719  MISS:     335310  HIT %:     96.269  MISS %:    3.73104   MPKI: 6.7062
ITLB LOAD TRANSLATION ACCESS:    8987029  HIT:    8651719  MISS:     335310  HIT %:     96.269  MISS %:    3.73104   MPKI: 6.7062
ITLB PREFETCH  REQUESTED:          0  ISSUED:          0  USEFUL:          0  USELESS:          0
ITLB USEFUL LOAD PREFETCHES:          0 PREFETCH ISSUED TO LOWER LEVEL:          0  ACCURACY: -nan
ITLB TIMELY PREFETCHES:          0 LATE PREFETCHES: 0 DROPPED PREFETCHES: 0
ITLB PREFETCHES SAME FILL-ORIGIN LEVEL: 0 DIFFERENT FILL-ORIGIN LEVEL: 0
ITLB AVERAGE MISS LATENCY: 9.75508 cycles
ITLB RQ	ACCESS:   10482569	FORWARD:          0	MERGED:    1388332	TO_CACHE:    9094237

DTLB TOTAL     ACCESS:   11589975  HIT:   11153272  MISS:     436703  HIT %:    96.2321  MISS %:    3.76794   MPKI: 8.73406
DTLB LOAD TRANSLATION ACCESS:   11589975  HIT:   11153272  MISS:     436703  HIT %:    96.2321  MISS %:    3.76794   MPKI: 8.73406
DTLB PREFETCH  REQUESTED:          0  ISSUED:          0  USEFUL:          0  USELESS:          0
DTLB USEFUL LOAD PREFETCHES:          0 PREFETCH ISSUED TO LOWER LEVEL:          0  ACCURACY: -nan
DTLB TIMELY PREFETCHES:          0 LATE PREFETCHES: 0 DROPPED PREFETCHES: 0
DTLB PREFETCHES SAME FILL-ORIGIN LEVEL: 0 DIFFERENT FILL-ORIGIN LEVEL: 0
DTLB AVERAGE MISS LATENCY: 24.9662 cycles
DTLB RQ	ACCESS:   15951259	FORWARD:          0	MERGED:    4306863	TO_CACHE:   11644396

STLB TOTAL     ACCESS:    1482859  HIT:    1440468  MISS:      42391  HIT %:    97.1413  MISS %:    2.85873   MPKI: 0.84782
STLB LOAD TRANSLATION ACCESS:     772013  HIT:     729622  MISS:      42391  HIT %:     94.509  MISS %:    5.49097   MPKI: 0.84782
STLB TRANSLATION FROM L1D PREFETCHER ACCESS:     710846  HIT:     710846  MISS:          0  HIT %:        100  MISS %:          0   MPKI: 0
STLB PREFETCH  REQUESTED:          0  ISSUED:          0  USEFUL:          0  USELESS:          0
STLB USEFUL LOAD PREFETCHES:          0 PREFETCH ISSUED TO LOWER LEVEL:          0  ACCURACY: -nan
STLB TIMELY PREFETCHES:          0 LATE PREFETCHES: 0 DROPPED PREFETCHES: 0
STLB PREFETCHES SAME FILL-ORIGIN LEVEL: 0 DIFFERENT FILL-ORIGIN LEVEL: 0
STLB AVERAGE MISS LATENCY: 170.253 cycles
STLB RQ	ACCESS:    1599716	FORWARD:          0	MERGED:     116856	TO_CACHE:    1482860

STLB Hit, L1D data hit: 0
STLB Hit, L2C data hit: 0
STLB Hit, LLC data hit: 0
STLB Hit, LLC data miss: 0
STLB STLB hints to L2: 0
L1D TOTAL     ACCESS:   13364796  HIT:   11445964  MISS:    1918832  HIT %:    85.6426  MISS %:    14.3574   MPKI: 38.3766
L1D LOAD      ACCESS:    6940058  HIT:    6336204  MISS:     603854  HIT %:     91.299  MISS %:    8.70099   MPKI: 12.0771
L1D RFO       ACCESS:    5652242  HIT:    4789365  MISS:     862877  HIT %:    84.7339  MISS %:    15.2661   MPKI: 17.2575
L1D PREFETCH  ACCESS:     772496  HIT:     320395  MISS:     452101  HIT %:    41.4753  MISS %:    58.5247   MPKI: 9.04202
L1D PREFETCH  REQUESTED:    1661377  ISSUED:    1655433  USEFUL:      63349  USELESS:     388765
L1D USEFUL LOAD PREFETCHES:      63349 PREFETCH ISSUED TO LOWER LEVEL:     452159  ACCURACY: 14.0103
L1D TIMELY PREFETCHES:      63349 LATE PREFETCHES: 917444 DROPPED PREFETCHES: 0
L1D PREFETCHES SAME FILL-ORIGIN LEVEL: 452159 DIFFERENT FILL-ORIGIN LEVEL: 0
L1D AVERAGE MISS LATENCY: 4531.24 cycles
L1D RQ	ACCESS:   11174762	FORWARD:          0	MERGED:    3164974	TO_CACHE:    7898099
L1D WQ	ACCESS:    8124999	FORWARD:     111716	MERGED:      71839	TO_CACHE:    8053160
L1D PQ	ACCESS:     827731	FORWARD:          0	MERGED:          2	TO_CACHE:     827702

L1D UNIQUE REGIONS ACCESSED: 0
L1D REGIONS CONFLICTS: 0
L1D Cross Page Prefetch Requests: 0
L1D Same Page Prefetch Requests: 1087760
L1D ROI Sum of L1D PQ occupancy: 41424740
L1D PREFETCHES PUSHED FROM L2C: 0
L1I TOTAL     ACCESS:    9836414  HIT:    7676260  MISS:    2160154  HIT %:    78.0392  MISS %:    21.9608   MPKI: 43.2031
L1I LOAD      ACCESS:    9836414  HIT:    7676260  MISS:    2160154  HIT %:    78.0392  MISS %:    21.9608   MPKI: 43.2031
L1I PREFETCH  REQUESTED:          0  ISSUED:          0  USEFUL:          0  USELESS:          0
L1I USEFUL LOAD PREFETCHES:          0 PREFETCH ISSUED TO LOWER LEVEL:          0  ACCURACY: -nan
L1I TIMELY PREFETCHES:          0 LATE PREFETCHES: 0 DROPPED PREFETCHES: 0
L1I PREFETCHES SAME FILL-ORIGIN LEVEL: 0 DIFFERENT FILL-ORIGIN LEVEL: 0
L1I AVERAGE MISS LATENCY: 17.8691 cycles
L1I RQ	ACCESS:   14506193	FORWARD:          0	MERGED:    4023624	TO_CACHE:   10482569

BTB TOTAL     ACCESS:    5422120  HIT:    5181249  MISS:     240871  HIT %:    95.5576  MISS %:    4.44238   MPKI: 4.81742
BTB BRANCH_DIRECT_JUMP	ACCESS:     465584  HIT:     463773  MISS:       1811
BTB BRANCH_INDIRECT	ACCESS:      44299  HIT:      44128  MISS:        171
BTB BRANCH_CONDITIONAL	ACCESS:    3164088  HIT:    3158244  MISS:       5844
BTB BRANCH_DIRECT_CALL	ACCESS:     670381  HIT:     666525  MISS:       3856
BTB BRANCH_INDIRECT_CALL	ACCESS:     203693  HIT:     177595  MISS:      26098
BTB BRANCH_RETURN	ACCESS:     874075  HIT:     670984  MISS:     203091
BTB BRANCH_OTHER ACCESS:          0  HIT:          0  MISS:          0

L2C TOTAL     ACCESS:    5513879  HIT:    3645791  MISS:    1868088  HIT %:    66.1203  MISS %:    33.8797   MPKI: 37.3618
L2C LOAD      ACCESS:    2763988  HIT:    2258860  MISS:     505128  HIT %:    81.7247  MISS %:    18.2753   MPKI: 10.1026
L2C DATA LOAD MPKI: 7.62304
L2C INSTRUCTION LOAD MPKI: 2.47952
L2C RFO       ACCESS:     862807  HIT:      26282  MISS:     836525  HIT %:     3.0461  MISS %:    96.9539   MPKI: 16.7305
L2C PREFETCH  ACCESS:     728653  HIT:     228353  MISS:     500300  HIT %:    31.3391  MISS %:    68.6609   MPKI: 10.006
L2C DATA PREFETCH MPKI: 10.006
L2C INSTRUCTION PREFETCH MPKI: 0
L2C WRITEBACK ACCESS:    1108746  HIT:    1106079  MISS:       2667  HIT %:    99.7595  MISS %:   0.240542   MPKI: 0.05334
L2C LOAD TRANSLATION ACCESS:      49685  HIT:      26217  MISS:      23468  HIT %:    52.7664  MISS %:    47.2336   MPKI: 0.46936
L2C PREFETCH  REQUESTED:     305040  ISSUED:     305040  USEFUL:      49894  USELESS:     451127
L2C USEFUL LOAD PREFETCHES:      49894 PREFETCH ISSUED TO LOWER LEVEL:     506033  ACCURACY: 9.85983
L2C TIMELY PREFETCHES:      49894 LATE PREFETCHES: 5733 DROPPED PREFETCHES: 0
L2C PREFETCHES SAME FILL-ORIGIN LEVEL: 132047 DIFFERENT FILL-ORIGIN LEVEL: 0
L2C AVERAGE MISS LATENCY: 962.199 cycles
L2C RQ	ACCESS:    3676512	FORWARD:          0	MERGED:          0	TO_CACHE:    3676480
L2C WQ	ACCESS:    1108746	FORWARD:         33	MERGED:          0	TO_CACHE:    1108746
L2C PQ	ACCESS:     757199	FORWARD:          0	MERGED:       3717	TO_CACHE:     753481

L2C Instructions Evicting Data 114858
L2C Translations Evicting Data 21783
L2C Data Evicting Data 1582503
L2C Instructions Evicting Instructions 7441
L2C Translations Evicting Instructions 1454
L2C Data Evicting Instructions 113975
L2C Instructions Evicting Translations 1677
L2C Translations Evicting Translations 231
L2C Data Evicting Translations 21499
L2C Dense regions hint from L2: 0
PSCL5 TOTAL     ACCESS:      42391  HIT:      42391  MISS:          0  HIT %:        100  MISS %:          0   MPKI: 0
PSCL5 LOAD TRANSLATION ACCESS:      42391  HIT:      42391  MISS:          0  HIT %:        100  MISS %:          0   MPKI: 0
PSCL5 PREFETCH  REQUESTED:          0  ISSUED:          0  USEFUL:          0  USELESS:          0
PSCL5 USEFUL LOAD PREFETCHES:          0 PREFETCH ISSUED TO LOWER LEVEL:          0  ACCURACY: -nan
PSCL5 TIMELY PREFETCHES:          0 LATE PREFETCHES: 0 DROPPED PREFETCHES: 0
PSCL5 PREFETCHES SAME FILL-ORIGIN LEVEL: 0 DIFFERENT FILL-ORIGIN LEVEL: 0

PSCL4 TOTAL     ACCESS:      40309  HIT:      40211  MISS:         98  HIT %:    99.7569  MISS %:   0.243122   MPKI: 0.00196
PSCL4 LOAD TRANSLATION ACCESS:      40309  HIT:      40211  MISS:         98  HIT %:    99.7569  MISS %:   0.243122   MPKI: 0.00196
PSCL4 PREFETCH  REQUESTED:          0  ISSUED:          0  USEFUL:          0  USELESS:          0
PSCL4 USEFUL LOAD PREFETCHES:          0 PREFETCH ISSUED TO LOWER LEVEL:          0  ACCURACY: -nan
PSCL4 TIMELY PREFETCHES:          0 LATE PREFETCHES: 0 DROPPED PREFETCHES: 0
PSCL4 PREFETCHES SAME FILL-ORIGIN LEVEL: 0 DIFFERENT FILL-ORIGIN LEVEL: 0

PSCL3 TOTAL     ACCESS:      42368  HIT:      42266  MISS:        102  HIT %:    99.7593  MISS %:   0.240748   MPKI: 0.00204
PSCL3 LOAD TRANSLATION ACCESS:      42368  HIT:      42266  MISS:        102  HIT %:    99.7593  MISS %:   0.240748   MPKI: 0.00204
PSCL3 PREFETCH  REQUESTED:          0  ISSUED:          0  USEFUL:          0  USELESS:          0
PSCL3 USEFUL LOAD PREFETCHES:          0 PREFETCH ISSUED TO LOWER LEVEL:          0  ACCURACY: -nan
PSCL3 TIMELY PREFETCHES:          0 LATE PREFETCHES: 0 DROPPED PREFETCHES: 0
PSCL3 PREFETCHES SAME FILL-ORIGIN LEVEL: 0 DIFFERENT FILL-ORIGIN LEVEL: 0

PSCL2 TOTAL     ACCESS:      42391  HIT:      35264  MISS:       7127  HIT %:    83.1875  MISS %:    16.8125   MPKI: 0.14254
PSCL2 LOAD TRANSLATION ACCESS:      42391  HIT:      35264  MISS:       7127  HIT %:    83.1875  MISS %:    16.8125   MPKI: 0.14254
PSCL2 PREFETCH  REQUESTED:          0  ISSUED:          0  USEFUL:          0  USELESS:          0
PSCL2 USEFUL LOAD PREFETCHES:          0 PREFETCH ISSUED TO LOWER LEVEL:          0  ACCURACY: -nan
PSCL2 TIMELY PREFETCHES:          0 LATE PREFETCHES: 0 DROPPED PREFETCHES: 0
PSCL2 PREFETCHES SAME FILL-ORIGIN LEVEL: 0 DIFFERENT FILL-ORIGIN LEVEL: 0

LLC TOTAL     ACCESS:    2926680  HIT:    1588568  MISS:    1338112  HIT %:    54.2788  MISS %:    45.7212   MPKI: 26.7622
LLC LOAD      ACCESS:     499693  HIT:     277947  MISS:     221746  HIT %:    55.6236  MISS %:    44.3764   MPKI: 4.43492
LLC RFO       ACCESS:     836220  HIT:     121271  MISS:     714949  HIT %:    14.5023  MISS %:    85.4977   MPKI: 14.299
LLC PREFETCH  ACCESS:     506032  HIT:     117947  MISS:     388085  HIT %:    23.3082  MISS %:    76.6918   MPKI: 7.7617
LLC WRITEBACK ACCESS:    1061267  HIT:    1059694  MISS:       1573  HIT %:    99.8518  MISS %:   0.148219   MPKI: 0.03146
LLC LOAD TRANSLATION ACCESS:      23468  HIT:      11709  MISS:      11759  HIT %:    49.8935  MISS %:    50.1065   MPKI: 0.23518
LLC PREFETCH  REQUESTED:          0  ISSUED:          0  USEFUL:      13685  USELESS:     376575
LLC USEFUL LOAD PREFETCHES:      13685 PREFETCH ISSUED TO LOWER LEVEL:     388085  ACCURACY: 3.52629
LLC TIMELY PREFETCHES:      13685 LATE PREFETCHES: 0 DROPPED PREFETCHES: 0
LLC PREFETCHES SAME FILL-ORIGIN LEVEL: 0 DIFFERENT FILL-ORIGIN LEVEL: 0
LLC AVERAGE MISS LATENCY: 1302.07 cycles
LLC RQ	ACCESS:    1359388	FORWARD:          0	MERGED:          0	TO_CACHE:    1359381
LLC WQ	ACCESS:    1061267	FORWARD:          8	MERGED:          0	TO_CACHE:    1061267
LLC PQ	ACCESS:     506033	FORWARD:          0	MERGED:          0	TO_CACHE:     506032

LLC Dense regions hint to LLC: 0

RAW hits: 866073
Loads Generated: 12040837
Loads sent to L1D: 11174762
Stores Generated: 8124995
Stores sent to L1D: 8124999
Major fault: 0 Minor fault: 14638
Allocated PAGES: 14638

stream: 
stream:times selected: 2324861
stream:pref_filled: 540457
stream:pref_useful: 120947
stream:pref_late: 238028
stream:misses: 47356
stream:misses_by_poll: 0

CS: 
CS:times selected: 1841198
CS:pref_filled: 11464
CS:pref_useful: 5697
CS:pref_late: 6473
CS:misses: 83333
CS:misses_by_poll: 6

CPLX: 
CPLX:times selected: 1839565
CPLX:pref_filled: 36526
CPLX:pref_useful: 2008
CPLX:pref_late: 519
CPLX:misses: 953520
CPLX:misses_by_poll: 80

NL_L1: 
NL:times selected: 2821
NL:pref_filled: 1175
NL:pref_useful: 39
NL:pref_late: 32
NL:misses: 1654
NL:misses_by_poll: 0

total selections: 6008445
total_filled: 452101
total_useful: 63349
total_late: 248330
total_polluted: 86
total_misses_after_warmup: 1561896
conflicts: 2430812
Degree Incremented Times: 18212
Degree Decremented Times: 102207

L1 IP Table Write Accesses: 5264510
L1 IP Table Read Accesses: 2833698
L1 RST Write Accesses: 1928219
L1 RST Read Accesses: 3856438
L1 CSPT Write Accesses: 1928219
L1 CSPT Read Accesses: 3710522
L1 RR Filter Tag Write Accesses: 833675
L1 RR Filter Tag Read Accesses: 178717928
L1 IP Table Tag Write Accesses: 7898100
L1 IP Table Tag Read Accesses: 7898100
L1 RST Tag Write Accesses: 0
L1 RST Tag Read Accesses: 17562960
L1 RR Filter Write Accesses: 0
L1 RR Filter Read Accesses: 5753219
test: 284082
L2 IP Table Read Accesses: 1790734
L2 IP Table Write Accesses: 1741641
L2 IP Table Tag Read Accesses: 1049479
L2 IP Table Tag Write Accesses: 1049479

DRAM Statistics
 CHANNEL 0
 RQ ROW_BUFFER_HIT:     361958  ROW_BUFFER_MISS:     974320
 DBUS_CONGESTED:    2006522
 WQ ROW_BUFFER_HIT:     235711  ROW_BUFFER_MISS:     625679  FULL:          0

 AVG_CONGESTED_CYCLE: 76
 All warmup complete: 2
Channel 0 Bank busy for read cycles: 0
Channel 0 Bank busy for write cycles: 0
Channel 0
Rank 0
0banks busy for read cycles: 21855455
0banks busy for write cycles: 17276
1banks busy for read cycles: 20393404
1banks busy for write cycles: 2703658
2banks busy for read cycles: 14613010
2banks busy for write cycles: 1666625
3banks busy for read cycles: 8560954
3banks busy for write cycles: 1424019
4banks busy for read cycles: 4952908
4banks busy for write cycles: 1395750
5banks busy for read cycles: 3710412
5banks busy for write cycles: 1520059
6banks busy for read cycles: 3726853
6banks busy for write cycles: 2191691
7banks busy for read cycles: 5199587
7banks busy for write cycles: 6402086
8banks busy for read cycles: 62315302
8banks busy for write cycles: 63858419

CPU 0 Branch Prediction Accuracy: 95.5125% MPKI: 7.55984 Average ROB Occupancy at Mispredict: 65.5409
Branch types
NOT_BRANCH: 41576625 83.1532%
BRANCH_DIRECT_JUMP: 465584 0.931168%
BRANCH_INDIRECT: 44299 0.088598%
BRANCH_CONDITIONAL: 6165096 12.3302%
BRANCH_DIRECT_CALL: 670381 1.34076%
BRANCH_INDIRECT_CALL: 203693 0.407386%
BRANCH_RETURN: 874075 1.74815%
BRANCH_OTHER: 0 0%

@sumon_overall_L1D     63349    917444    388765    452101   1655433   1661377
@Sumon_Early_by_class_L1D     56103      4532      1749        28
@Sumon_Late_by_class_L1D    237259      6459       479        28

@Sumon_Early_by_cycle_L1D     39163      4444      3491      1969       399      4021      4821       839       374      2358      1257       213
@Sumon_Late_by_cycle_L1D     34553     30259     43997     19829     15650     86298     16656       257         4         0         0         0
@Sumon_Early_stream_L1D     36886      4111      3192      1809       283      2816      2753       447       352      2128      1127       199
@Sumon_Early_CS_L1D      1266       168       136        49        27       855      1782       197         2        50         0         0
@Sumon_Early_CPLX_L1D       234       118       129       101        87       336       279       186        18       136       111        14
@Sumon_Late_stream_L1D     32326     27153     42588     19167     14952     84541     16281       247         4         0         0         0
@Sumon_Late_CS_L1D      1177      1281      1138       522       574      1462       297         8         0         0         0         0
@Sumon_Late_CPLX_L1D       145       216        61        16        14        22         5         0         0         0         0         0
@sumon_overall_L2C     49894      5733    451127    500300    305040    305040
@Sumon_Early_by_class_L2C      4719        17       653         0
@Sumon_Late_by_class_L2C         0        20         0         0

@Sumon_Early_by_cycle_L2C      2803      5467      4998      1630      1961     10299      2945       637      2650      2519      1704     12281
@Sumon_Late_by_cycle_L2C      4576       854       226        13         8        52         4         0         0         0         0         0
@Sumon_Early_stream_L2C         0         0         0         0         0         1         5        21        38       170       217      4267
@Sumon_Early_CS_L2C         0         0         0         0         0         0         0         0         0         7         0        10
@Sumon_Early_CPLX_L2C         0         0         0         0         0         0         3        85        29        14        37       485
@Sumon_Late_stream_L2C         0         0         0         0         0         0         0         0         0         0         0         0
@Sumon_Late_CS_L2C         0         4         1         2         0        11         2         0         0         0         0         0
@Sumon_Late_CPLX_L2C         0         0         0         0         0         0         0         0         0         0         0         0
DRAM PAGES: 1048576
Allocated PAGES: 14638
