Initialize SIGNATURE TABLE
ST_SET: 1
ST_WAY: 256
ST_TAG_BIT: 16
ST_TAG_MASK: ffff

Initialize PATTERN TABLE
PT_SET: 512
PT_WAY: 4
SIG_DELTA_BIT: 7
C_SIG_BIT: 4
C_DELTA_BIT: 4

Initialize PREFETCH FILTER
FILTER_SET: 1024

*** ChampSim Multicore Out-of-Order Simulator ***

Warmup Instructions: 50000000
Simulation Instructions: 50000000
Number of CPUs: 1
LLC sets: 2048
LLC ways: 16
Off-chip DRAM Size: 4096 MB Channels: 1 Width: 64-bit Data Rate: 6400 MT/s
CPU 0 runs ../../biswa/SPEC2017Traces/600.perlbench_s-570B.champsimtrace.xz
.xz
CPU 0 Bimodal branch predictor
BTB has LRU replacement policy
ITLB has LRU replacement policy
DTLB has LRU replacement policy
STLB has LRU replacement policy
L1I has LRU replacement policy
L1D has LRU replacement policy
ST_WAYS: 256
PT_SETS: 512
Initialize DRRIP state for L2C
Initialize SRRIP state
Heartbeat CPU 0 instructions: 10000003 cycles: 2893951 heartbeat IPC: 3.45548 cumulative IPC: 3.45548 (Simulation time: 0 hr 2 min 40 sec) 
Heartbeat CPU 0 instructions: 20000003 cycles: 5752663 heartbeat IPC: 3.49808 cumulative IPC: 3.47665 (Simulation time: 0 hr 5 min 12 sec) 
Heartbeat CPU 0 instructions: 30000003 cycles: 8648045 heartbeat IPC: 3.45378 cumulative IPC: 3.46899 (Simulation time: 0 hr 7 min 30 sec) 
Heartbeat CPU 0 instructions: 40000002 cycles: 11519268 heartbeat IPC: 3.48284 cumulative IPC: 3.47244 (Simulation time: 0 hr 10 min 9 sec) 
Heartbeat CPU 0 instructions: 50000002 cycles: 14388800 heartbeat IPC: 3.48489 cumulative IPC: 3.47493 (Simulation time: 0 hr 12 min 42 sec) 

Warmup complete CPU 0 instructions: 50000002 cycles: 14388800 (Simulation time: 0 hr 12 min 42 sec) 

Heartbeat CPU 0 instructions: 60000000 cycles: 29596390 heartbeat IPC: 0.657566 cumulative IPC: 0.657566 (Simulation time: 0 hr 15 min 26 sec) 
epoch: 1000
next table: 3329
cur table: 4331
epoch: 1000
next table: 5365
cur table: 3329
epoch: 1000
next table: 8817
cur table: 5365
epoch: 1000
next table: 9209
cur table: 8817
epoch: 1000
next table: 7605
cur table: 9209
epoch: 1000
next table: 3499
cur table: 7605
epoch: 1000
next table: 5937
cur table: 3499
epoch: 1000
next table: 3205
cur table: 5937
epoch: 1000
next table: 3067
cur table: 3205
epoch: 1000
next table: 4401
cur table: 3067
epoch: 1000
next table: 3294
cur table: 4401
epoch: 1000
next table: 3714
cur table: 3294
epoch: 1000
next table: 10751
cur table: 7334
epoch: 1000
next table: 7601
cur table: 3714
epoch: 1000
next table: 6201
cur table: 7601
epoch: 1000
next table: 9257
cur table: 6201
epoch: 1000
next table: 4461
cur table: 9257
Heartbeat CPU 0 instructions: 70000000 cycles: 53545781 heartbeat IPC: 0.417547 cumulative IPC: 0.510765 (Simulation time: 0 hr 18 min 12 sec) 
epoch: 1000
next table: 7577
cur table: 4461
epoch: 1000
next table: 5239
cur table: 7577
epoch: 1000
next table: 6502
cur table: 10751
epoch: 1000
next table: 9343
cur table: 5239
epoch: 1000
next table: 12488
cur table: 9343
epoch: 1000
next table: 3810
cur table: 12488
epoch: 1000
next table: 4053
cur table: 6502
epoch: 1000
next table: 6979
cur table: 3810
epoch: 1000
next table: 8741
cur table: 6979
epoch: 1000
next table: 3426
cur table: 4053
epoch: 1000
next table: 2381
cur table: 8741
epoch: 1000
next table: 2196
cur table: 2381
epoch: 1000
next table: 2509
cur table: 3426
epoch: 1000
next table: 2317
cur table: 2196
epoch: 1000
next table: 2253
cur table: 2509
epoch: 1000
next table: 2407
cur table: 2317
epoch: 1000
next table: 2571
cur table: 2407
epoch: 1000
next table: 2415
cur table: 2253
epoch: 1000
next table: 2723
cur table: 2571
epoch: 1000
next table: 2955
cur table: 2723
epoch: 1000
next table: 3174
cur table: 2415
epoch: 1000
next table: 2851
cur table: 2955
epoch: 1000
next table: 3292
cur table: 2851
epoch: 1000
next table: 2745
cur table: 3174
epoch: 1000
next table: 3458
cur table: 3292
epoch: 1000
next table: 3446
cur table: 3458
epoch: 1000
next table: 3106
cur table: 2745
epoch: 1000
next table: 69305
cur table: 3446
epoch: 1000
next table: 2028
cur table: 3106
epoch: 1000
next table: 6024
cur table: 69305
Heartbeat CPU 0 instructions: 80000002 cycles: 79018256 heartbeat IPC: 0.392581 cumulative IPC: 0.464185 (Simulation time: 0 hr 20 min 52 sec) 
epoch: 1000
next table: 8540
cur table: 6024
epoch: 1000
next table: 2693
cur table: 2028
epoch: 1000
next table: 11164
cur table: 8540
epoch: 1000
next table: 12630
cur table: 11164
epoch: 1000
next table: 3227
cur table: 2693
epoch: 1000
next table: 23739
cur table: 12630
epoch: 1000
next table: 2822
cur table: 23739
epoch: 1000
next table: 2677
cur table: 3227
epoch: 1000
next table: 2535
cur table: 2822
epoch: 1000
next table: 2638
cur table: 2677
epoch: 1000
next table: 5252
cur table: 2535
epoch: 1000
next table: 18701
cur table: 5252
epoch: 1000
next table: 2572
cur table: 2638
epoch: 1000
next table: 8568
cur table: 18701
epoch: 1000
next table: 2395
cur table: 2572
epoch: 1000
next table: 4247
cur table: 8568
epoch: 1000
next table: 2239
cur table: 2395
epoch: 1000
next table: 3044
cur table: 4247
epoch: 1000
next table: 1982
cur table: 2239
epoch: 1000
next table: 2421
cur table: 3044
epoch: 1000
next table: 2001
cur table: 1982
epoch: 1000
next table: 2891
cur table: 2421
epoch: 1000
next table: 11544
cur table: 2891
epoch: 1000
next table: 2254
cur table: 2001
epoch: 1000
next table: 11611
cur table: 11544
epoch: 1000
next table: 2411
cur table: 2254
epoch: 1000
next table: 5210
cur table: 11611
epoch: 1000
next table: 3849
cur table: 5210
epoch: 1000
next table: 2910
cur table: 2411
epoch: 1000
next table: 9755
cur table: 3849
epoch: 1000
next table: 2104
cur table: 2910
epoch: 1000
next table: 6815
cur table: 9755
epoch: 1000
next table: 9571
cur table: 6815
epoch: 1000
next table: 2509
cur table: 2104
epoch: 1000
next table: 4626
cur table: 9571
epoch: 1000
next table: 2145
cur table: 2509
epoch: 1000
next table: 7401
cur table: 4626
epoch: 1000
next table: 2275
cur table: 2145
epoch: 1000
next table: 4849
cur table: 7401
epoch: 1000
next table: 1972
cur table: 2275
epoch: 1000
next table: 4798
cur table: 4849
epoch: 1000
next table: 1938
cur table: 1972
epoch: 1000
next table: 6776
cur table: 4798
epoch: 1000
next table: 1991
cur table: 1938
epoch: 1000
next table: 3982
cur table: 6776
epoch: 1000
next table: 1904
cur table: 1991
epoch: 1000
next table: 3519
cur table: 3982
epoch: 1000
next table: 1966
cur table: 1904
epoch: 1000
next table: 7223
cur table: 3519
epoch: 1000
next table: 1992
cur table: 1966
epoch: 1000
next table: 4815
cur table: 7223
epoch: 1000
next table: 1897
cur table: 1992
epoch: 1000
next table: 3958
cur table: 4815
epoch: 1000
next table: 1945
cur table: 1897
epoch: 1000
next table: 4936
cur table: 3958
epoch: 1000
next table: 1895
cur table: 1945
epoch: 1000
next table: 1900
cur table: 1895
epoch: 1000
next table: 3511
cur table: 4936
epoch: 1000
next table: 2011
cur table: 1900
epoch: 1000
next table: 6557
cur table: 3511
epoch: 1000
next table: 3398
cur table: 6557
epoch: 1000
next table: 2651
cur table: 2011
Heartbeat CPU 0 instructions: 90000003 cycles: 109710263 heartbeat IPC: 0.325818 cumulative IPC: 0.419633 (Simulation time: 0 hr 23 min 32 sec) 
epoch: 1000
next table: 3233
cur table: 3398
epoch: 1000
next table: 1990
cur table: 2651
epoch: 1000
next table: 2499
cur table: 3233
epoch: 1000
next table: 1928
cur table: 1990
epoch: 1000
next table: 2450
cur table: 2499
epoch: 1000
next table: 1889
cur table: 1928
epoch: 1000
next table: 2565
cur table: 2450
epoch: 1000
next table: 1896
cur table: 1889
epoch: 1000
next table: 2400
cur table: 2565
epoch: 1000
next table: 1852
cur table: 1896
epoch: 1000
next table: 2359
cur table: 2400
epoch: 1000
next table: 1837
cur table: 1852
Heartbeat CPU 0 instructions: 100000002 cycles: 125933528 heartbeat IPC: 0.616399 cumulative IPC: 0.448251 (Simulation time: 0 hr 25 min 36 sec) 
Finished CPU 0 instructions: 50000000 cycles: 111544728 cumulative IPC: 0.448251 (Simulation time: 0 hr 25 min 36 sec) 

ChampSim completed all CPUs

Region of Interest Statistics

CPU 0 cumulative IPC: 0.448251 instructions: 50000000 cycles: 111544728
ITLB TOTAL     ACCESS:    7833429  HIT:    7815758  MISS:      17671  HIT %:    99.7744  MISS %:   0.225584   MPKI: 0.35342
ITLB LOAD TRANSLATION ACCESS:    7833429  HIT:    7815758  MISS:      17671  HIT %:    99.7744  MISS %:   0.225584   MPKI: 0.35342
ITLB PREFETCH  REQUESTED:          0  ISSUED:          0  USEFUL:          0  USELESS:          0
ITLB USEFUL LOAD PREFETCHES:          0 PREFETCH ISSUED TO LOWER LEVEL:          0  ACCURACY: -nan
ITLB TIMELY PREFETCHES:          0 LATE PREFETCHES: 0 DROPPED PREFETCHES: 0
ITLB PREFETCHES SAME FILL-ORIGIN LEVEL: 0 DIFFERENT FILL-ORIGIN LEVEL: 0
ITLB AVERAGE MISS LATENCY: 10.4712 cycles
ITLB RQ	ACCESS:    8822994	FORWARD:          0	MERGED:     983573	TO_CACHE:    7839421

Revised Interactions: positive negative neutral
ITLB_interactions 0 0 0 -nan -nan -nan
DTLB TOTAL     ACCESS:   14060191  HIT:   13915682  MISS:     144509  HIT %:    98.9722  MISS %:    1.02779   MPKI: 2.89018
DTLB LOAD TRANSLATION ACCESS:   14060191  HIT:   13915682  MISS:     144509  HIT %:    98.9722  MISS %:    1.02779   MPKI: 2.89018
DTLB PREFETCH  REQUESTED:          0  ISSUED:          0  USEFUL:          0  USELESS:          0
DTLB USEFUL LOAD PREFETCHES:          0 PREFETCH ISSUED TO LOWER LEVEL:          0  ACCURACY: -nan
DTLB TIMELY PREFETCHES:          0 LATE PREFETCHES: 0 DROPPED PREFETCHES: 0
DTLB PREFETCHES SAME FILL-ORIGIN LEVEL: 0 DIFFERENT FILL-ORIGIN LEVEL: 0
DTLB AVERAGE MISS LATENCY: 15.1617 cycles
DTLB RQ	ACCESS:   19073458	FORWARD:          0	MERGED:    5009149	TO_CACHE:   14064309

Revised Interactions: positive negative neutral
DTLB_interactions 0 0 0 -nan -nan -nan
STLB TOTAL     ACCESS:     162180  HIT:     155248  MISS:       6932  HIT %:    95.7257  MISS %:    4.27426   MPKI: 0.13864
STLB LOAD TRANSLATION ACCESS:     162180  HIT:     155248  MISS:       6932  HIT %:    95.7257  MISS %:    4.27426   MPKI: 0.13864
STLB PREFETCH  REQUESTED:          0  ISSUED:          0  USEFUL:          0  USELESS:          0
STLB USEFUL LOAD PREFETCHES:          0 PREFETCH ISSUED TO LOWER LEVEL:          0  ACCURACY: -nan
STLB TIMELY PREFETCHES:          0 LATE PREFETCHES: 0 DROPPED PREFETCHES: 0
STLB PREFETCHES SAME FILL-ORIGIN LEVEL: 0 DIFFERENT FILL-ORIGIN LEVEL: 0
STLB AVERAGE MISS LATENCY: 131.208 cycles
STLB RQ	ACCESS:     162180	FORWARD:          0	MERGED:          0	TO_CACHE:     162180

Revised Interactions: positive negative neutral
STLB_interactions 0 0 0 -nan -nan -nan
STLB Hit, L1D data hit: 0
STLB Hit, L2C data hit: 0
STLB Hit, LLC data hit: 0
STLB Hit, LLC data miss: 0
STLB STLB hints to L2: 0
L1D TOTAL     ACCESS:   19029948  HIT:   18868971  MISS:     160977  HIT %:    99.1541  MISS %:   0.845914   MPKI: 3.21954
L1D LOAD      ACCESS:    9315164  HIT:    9171790  MISS:     143374  HIT %:    98.4609  MISS %:    1.53915   MPKI: 2.86748
L1D RFO       ACCESS:    9714784  HIT:    9697181  MISS:      17603  HIT %:    99.8188  MISS %:   0.181198   MPKI: 0.35206
L1D PREFETCH  REQUESTED:          0  ISSUED:          0  USEFUL:          0  USELESS:          0
L1D USEFUL LOAD PREFETCHES:          0 PREFETCH ISSUED TO LOWER LEVEL:          0  ACCURACY: -nan
L1D TIMELY PREFETCHES:          0 LATE PREFETCHES: 0 DROPPED PREFETCHES: 0
L1D PREFETCHES SAME FILL-ORIGIN LEVEL: 0 DIFFERENT FILL-ORIGIN LEVEL: 0
L1D AVERAGE MISS LATENCY: 67.7748 cycles
L1D RQ	ACCESS:   11811845	FORWARD:          0	MERGED:    2226096	TO_CACHE:    9325700
L1D WQ	ACCESS:    9859024	FORWARD:     260049	MERGED:     111266	TO_CACHE:    9747758

Revised Interactions: positive negative neutral
L1D_interactions 0 0 0 -nan -nan -nan
L1D UNIQUE REGIONS ACCESSED: 0
L1D REGIONS CONFLICTS: 0
L1D Cross Page Prefetch Requests: 0
L1D Same Page Prefetch Requests: 0
L1D ROI Sum of L1D PQ occupancy: 0
L1D PREFETCHES PUSHED FROM L2C: 0
L1I TOTAL     ACCESS:    8763562  HIT:    8505446  MISS:     258116  HIT %:    97.0547  MISS %:    2.94533   MPKI: 5.16232
L1I LOAD      ACCESS:    8763562  HIT:    8505446  MISS:     258116  HIT %:    97.0547  MISS %:    2.94533   MPKI: 5.16232
L1I PREFETCH  REQUESTED:          0  ISSUED:          0  USEFUL:          0  USELESS:          0
L1I USEFUL LOAD PREFETCHES:          0 PREFETCH ISSUED TO LOWER LEVEL:          0  ACCURACY: -nan
L1I TIMELY PREFETCHES:          0 LATE PREFETCHES: 0 DROPPED PREFETCHES: 0
L1I PREFETCHES SAME FILL-ORIGIN LEVEL: 0 DIFFERENT FILL-ORIGIN LEVEL: 0
L1I AVERAGE MISS LATENCY: 17.1607 cycles
L1I RQ	ACCESS:   14031151	FORWARD:          0	MERGED:    5208157	TO_CACHE:    8822994

Revised Interactions: positive negative neutral
L1I_interactions 0 0 0 -nan -nan -nan
BTB TOTAL     ACCESS:    6455176  HIT:    6061139  MISS:     394037  HIT %:    93.8958  MISS %:     6.1042   MPKI: 7.88074
BTB BRANCH_DIRECT_JUMP	ACCESS:    1045243  HIT:    1041753  MISS:       3490
BTB BRANCH_INDIRECT	ACCESS:     321894  HIT:     103579  MISS:     218315
BTB BRANCH_CONDITIONAL	ACCESS:    4118131  HIT:    4108360  MISS:       9771
BTB BRANCH_DIRECT_CALL	ACCESS:     381768  HIT:     379264  MISS:       2504
BTB BRANCH_INDIRECT_CALL	ACCESS:     103186  HIT:      11246  MISS:      91940
BTB BRANCH_RETURN	ACCESS:     484954  HIT:     416937  MISS:      68017
BTB BRANCH_OTHER ACCESS:          0  HIT:          0  MISS:          0

L2C TOTAL     ACCESS:     513309  HIT:     433020  MISS:      80289  HIT %:    84.3585  MISS %:    15.6415   MPKI: 1.60578
L2C LOAD      ACCESS:     401490  HIT:     330805  MISS:      70685  HIT %:    82.3943  MISS %:    17.6057   MPKI: 1.4137
L2C DATA LOAD MPKI: 1.23984
L2C INSTRUCTION LOAD MPKI: 0.17386
L2C RFO       ACCESS:      17603  HIT:      12424  MISS:       5179  HIT %:    70.5789  MISS %:    29.4211   MPKI: 0.10358
L2C PREFETCH  ACCESS:      37762  HIT:      37084  MISS:        678  HIT %:    98.2045  MISS %:    1.79546   MPKI: 0.01356
L2C DATA PREFETCH MPKI: 0.01356
L2C INSTRUCTION PREFETCH MPKI: 0
L2C WRITEBACK ACCESS:      48151  HIT:      47491  MISS:        660  HIT %:    98.6293  MISS %:    1.37069   MPKI: 0.0132
L2C LOAD TRANSLATION ACCESS:       8303  HIT:       5216  MISS:       3087  HIT %:    62.8207  MISS %:    37.1793   MPKI: 0.06174
L2C PREFETCH  REQUESTED:      82930  ISSUED:      82930  USEFUL:        620  USELESS:         59
L2C USEFUL LOAD PREFETCHES:        620 PREFETCH ISSUED TO LOWER LEVEL:      42704  ACCURACY: 1.45185
L2C TIMELY PREFETCHES:        620 LATE PREFETCHES: 4 DROPPED PREFETCHES: 0
L2C PREFETCHES SAME FILL-ORIGIN LEVEL: 682 DIFFERENT FILL-ORIGIN LEVEL: 42022
L2C AVERAGE MISS LATENCY: 120.196 cycles
L2C RQ	ACCESS:     427396	FORWARD:          0	MERGED:          0	TO_CACHE:     427396
L2C WQ	ACCESS:      48151	FORWARD:          0	MERGED:          0	TO_CACHE:      48151
L2C PQ	ACCESS:      82930	FORWARD:          0	MERGED:       2110	TO_CACHE:      80820

Revised Interactions: positive negative neutral
L2C_interactions 592 60 67 82.3366 8.34492 9.3185
L2C Instructions Evicting Data 6901
L2C Translations Evicting Data 2575
L2C Data Evicting Data 57086
L2C Instructions Evicting Instructions 1072
L2C Translations Evicting Instructions 310
L2C Data Evicting Instructions 6336
L2C Instructions Evicting Translations 337
L2C Translations Evicting Translations 69
L2C Data Evicting Translations 2480
L2C Dense regions hint from L2: 0
PSCL5 TOTAL     ACCESS:       6932  HIT:       6932  MISS:          0  HIT %:        100  MISS %:          0   MPKI: 0
PSCL5 LOAD TRANSLATION ACCESS:       6932  HIT:       6932  MISS:          0  HIT %:        100  MISS %:          0   MPKI: 0
PSCL5 PREFETCH  REQUESTED:          0  ISSUED:          0  USEFUL:          0  USELESS:          0
PSCL5 USEFUL LOAD PREFETCHES:          0 PREFETCH ISSUED TO LOWER LEVEL:          0  ACCURACY: -nan
PSCL5 TIMELY PREFETCHES:          0 LATE PREFETCHES: 0 DROPPED PREFETCHES: 0
PSCL5 PREFETCHES SAME FILL-ORIGIN LEVEL: 0 DIFFERENT FILL-ORIGIN LEVEL: 0

Revised Interactions: positive negative neutral
PSCL5_interactions 0 0 0 -nan -nan -nan
PSCL4 TOTAL     ACCESS:       6932  HIT:       6932  MISS:          0  HIT %:        100  MISS %:          0   MPKI: 0
PSCL4 LOAD TRANSLATION ACCESS:       6932  HIT:       6932  MISS:          0  HIT %:        100  MISS %:          0   MPKI: 0
PSCL4 PREFETCH  REQUESTED:          0  ISSUED:          0  USEFUL:          0  USELESS:          0
PSCL4 USEFUL LOAD PREFETCHES:          0 PREFETCH ISSUED TO LOWER LEVEL:          0  ACCURACY: -nan
PSCL4 TIMELY PREFETCHES:          0 LATE PREFETCHES: 0 DROPPED PREFETCHES: 0
PSCL4 PREFETCHES SAME FILL-ORIGIN LEVEL: 0 DIFFERENT FILL-ORIGIN LEVEL: 0

Revised Interactions: positive negative neutral
PSCL4_interactions 0 0 0 -nan -nan -nan
PSCL3 TOTAL     ACCESS:       6932  HIT:       6932  MISS:          0  HIT %:        100  MISS %:          0   MPKI: 0
PSCL3 LOAD TRANSLATION ACCESS:       6932  HIT:       6932  MISS:          0  HIT %:        100  MISS %:          0   MPKI: 0
PSCL3 PREFETCH  REQUESTED:          0  ISSUED:          0  USEFUL:          0  USELESS:          0
PSCL3 USEFUL LOAD PREFETCHES:          0 PREFETCH ISSUED TO LOWER LEVEL:          0  ACCURACY: -nan
PSCL3 TIMELY PREFETCHES:          0 LATE PREFETCHES: 0 DROPPED PREFETCHES: 0
PSCL3 PREFETCHES SAME FILL-ORIGIN LEVEL: 0 DIFFERENT FILL-ORIGIN LEVEL: 0

Revised Interactions: positive negative neutral
PSCL3_interactions 0 0 0 -nan -nan -nan
PSCL2 TOTAL     ACCESS:       6932  HIT:       5508  MISS:       1424  HIT %:    79.4576  MISS %:    20.5424   MPKI: 0.02848
PSCL2 LOAD TRANSLATION ACCESS:       6932  HIT:       5508  MISS:       1424  HIT %:    79.4576  MISS %:    20.5424   MPKI: 0.02848
PSCL2 PREFETCH  REQUESTED:          0  ISSUED:          0  USEFUL:          0  USELESS:          0
PSCL2 USEFUL LOAD PREFETCHES:          0 PREFETCH ISSUED TO LOWER LEVEL:          0  ACCURACY: -nan
PSCL2 TIMELY PREFETCHES:          0 LATE PREFETCHES: 0 DROPPED PREFETCHES: 0
PSCL2 PREFETCHES SAME FILL-ORIGIN LEVEL: 0 DIFFERENT FILL-ORIGIN LEVEL: 0

Revised Interactions: positive negative neutral
PSCL2_interactions 0 0 0 -nan -nan -nan
LLC TOTAL     ACCESS:     137467  HIT:      62389  MISS:      75078  HIT %:    45.3847  MISS %:    54.6153   MPKI: 1.50156
LLC LOAD      ACCESS:      70681  HIT:      25393  MISS:      45288  HIT %:    35.9262  MISS %:    64.0738   MPKI: 0.90576
LLC RFO       ACCESS:       5179  HIT:       1711  MISS:       3468  HIT %:    33.0373  MISS %:    66.9627   MPKI: 0.06936
LLC PREFETCH  ACCESS:      41160  HIT:      18809  MISS:      22351  HIT %:    45.6973  MISS %:    54.3027   MPKI: 0.44702
LLC WRITEBACK ACCESS:      17360  HIT:      14874  MISS:       2486  HIT %:    85.6797  MISS %:    14.3203   MPKI: 0.04972
LLC LOAD TRANSLATION ACCESS:       3087  HIT:       1602  MISS:       1485  HIT %:     51.895  MISS %:     48.105   MPKI: 0.0297
LLC PREFETCH  REQUESTED:          0  ISSUED:          0  USEFUL:      10475  USELESS:       3593
LLC USEFUL LOAD PREFETCHES:      10475 PREFETCH ISSUED TO LOWER LEVEL:      23318  ACCURACY: 44.9224
LLC TIMELY PREFETCHES:      10475 LATE PREFETCHES: 967 DROPPED PREFETCHES: 0
LLC PREFETCHES SAME FILL-ORIGIN LEVEL: 23276 DIFFERENT FILL-ORIGIN LEVEL: 0
LLC AVERAGE MISS LATENCY: 140.167 cycles
LLC RQ	ACCESS:      78947	FORWARD:          0	MERGED:          0	TO_CACHE:      78947
LLC WQ	ACCESS:      17360	FORWARD:          0	MERGED:          0	TO_CACHE:      17360
LLC PQ	ACCESS:      42704	FORWARD:          0	MERGED:         52	TO_CACHE:      42652

Revised Interactions: positive negative neutral
LLC_interactions 6998 8635 2144 39.3655 48.574 12.0605
LLC Dense regions hint to LLC: 0

RAW hits: 720997
Loads Generated: 12532841
Loads sent to L1D: 11811845
Stores Generated: 9859017
Stores sent to L1D: 9859024
Major fault: 0 Minor fault: 5057
Allocated PAGES: 5057
 All Calls: 148446
 Critical Calls: 148446
------------------
Depth Distribution
------------------
depth 0: 0
depth 1: 69899
depth 2: 9818
depth 3: 4333
depth 4: 1997
depth 5: 444
depth 6: 59
depth 7: 12
depth 8: 2
depth 9: 2
depth 10: 2
depth 11: 1
depth 12: 1
depth 13: 0
depth 14: 0
depth 15: 0
depth 16: 0
depth 17: 0
depth 18: 0
depth 19: 0
depth 20: 0
depth 21: 0
depth 22: 0
depth 23: 0
depth 24: 0
depth 25: 0
depth 26: 0
depth 27: 0
depth 28: 0
depth 29: 0
Total: 86570
-----------------------------
-----------------------------
	Captured at Filter
-----------------------------
depth 0: 0
depth 1: 1450
depth 2: 1076
depth 3: 1059
depth 4: 820
depth 5: 266
depth 6: 0
depth 7: 0
depth 8: 0
depth 9: 0
depth 10: 0
depth 11: 0
depth 12: 0
depth 13: 0
depth 14: 0
depth 15: 0
depth 16: 0
depth 17: 0
depth 18: 0
depth 19: 0
depth 20: 0
depth 21: 0
depth 22: 0
depth 23: 0
depth 24: 0
depth 25: 0
depth 26: 0
depth 27: 0
depth 28: 0
depth 29: 0
-----------------------------
-----------------------------
		Lost at Page
-----------------------------
depth 0: 0
depth 1: 2409
depth 2: 315
depth 3: 161
depth 4: 97
depth 5: 39
depth 6: 12
depth 7: 10
depth 8: 3
depth 9: 0
depth 10: 0
depth 11: 0
depth 12: 0
depth 13: 0
depth 14: 0
depth 15: 0
depth 16: 0
depth 17: 0
depth 18: 0
depth 19: 0
depth 20: 0
depth 21: 0
depth 22: 0
depth 23: 0
depth 24: 0
depth 25: 0
depth 26: 0
depth 27: 0
depth 28: 0
depth 29: 0
-----------------------------
-----------------------------
	Lost due to PQ Size
-----------------------------
0
-----------------------------
ST read accesses: 123402
ST write accesses: 19972
PT read accesses: 1521895
PT write accesses: 158123
FILTER read accesses: 311256
FILTER write accesses: 83726
GHR read accesses: 180351
GHR write accesses: 2865
GHR counter read accesses: 1200760
GHR counter write accesses: 145442
ST tag read accesses: 65150395
ST tag write accesses: 9125125

DRAM Statistics
 CHANNEL 0
 RQ ROW_BUFFER_HIT:      18928  ROW_BUFFER_MISS:      53664
 DBUS_CONGESTED:          4
 WQ ROW_BUFFER_HIT:        929  ROW_BUFFER_MISS:       4369  FULL:          0

 AVG_CONGESTED_CYCLE: 4
 All warmup complete: 2
Channel 0 Bank busy for read cycles: 0
Channel 0 Bank busy for write cycles: 0
Channel 0
Rank 0
0banks busy for read cycles: 103791679
0banks busy for write cycles: 4579
1banks busy for read cycles: 5210086
1banks busy for write cycles: 767857
2banks busy for read cycles: 1374940
2banks busy for write cycles: 75187
3banks busy for read cycles: 231450
3banks busy for write cycles: 11015
4banks busy for read cycles: 49810
4banks busy for write cycles: 2905
5banks busy for read cycles: 13546
5banks busy for write cycles: 510
6banks busy for read cycles: 5214
6banks busy for write cycles: 145
7banks busy for read cycles: 2974
7banks busy for write cycles: 0
8banks busy for read cycles: 2832
8banks busy for write cycles: 0

CPU 0 Branch Prediction Accuracy: 96.2601% MPKI: 6.26918 Average ROB Occupancy at Mispredict: 28.664
Branch types
NOT_BRANCH: 41618174 83.2363%
BRANCH_DIRECT_JUMP: 1045243 2.09049%
BRANCH_INDIRECT: 321894 0.643788%
BRANCH_CONDITIONAL: 6044455 12.0889%
BRANCH_DIRECT_CALL: 381768 0.763536%
BRANCH_INDIRECT_CALL: 103186 0.206372%
BRANCH_RETURN: 484954 0.969908%
BRANCH_OTHER: 0 0%

@sumon_overall_L1D         0         0         0         0         0         0         0
@Sumon_Early_by_class_L1D         0         0         0         0
@Sumon_Late_by_class_L1D         0         0         0         0

@Sumon_Early_by_cycle_L1D         0         0         0         0         0         0         0         0         0         0         0         0
@Sumon_Late_by_cycle_L1D         0         0         0         0         0         0
@Sumon_Early_stream_L1D         0         0         0         0         0         0         0         0         0         0         0         0
@Sumon_Early_CS_L1D         0         0         0         0         0         0         0         0         0         0         0         0
@Sumon_Early_CPLX_L1D         0         0         0         0         0         0         0         0         0         0         0         0
@Sumon_Late_stream_L1D         0         0         0         0         0         0
@Sumon_Late_CS_L1D         0         0         0         0         0         0
@Sumon_Late_CPLX_L1D         0         0         0         0         0         0
@sumon_overall_L2C       620         4         0        59       678     82930     82930
@Sumon_Early_by_class_L2C         0         0         0         0
@Sumon_Late_by_class_L2C         0         0         0         0

@Sumon_Early_by_cycle_L2C        76        18        18        16         1       193       211        29        13        27         5        13
@Sumon_Late_by_cycle_L2C         1         0         3         0         0         0
@Sumon_Early_stream_L2C         0         0         0         0         0         0         0         0         0         0         0         0
@Sumon_Early_CS_L2C         0         0         0         0         0         0         0         0         0         0         0         0
@Sumon_Early_CPLX_L2C         0         0         0         0         0         0         0         0         0         0         0         0
@Sumon_Late_stream_L2C         0         0         0         0         0         0
@Sumon_Late_CS_L2C         0         0         0         0         0         0
@Sumon_Late_CPLX_L2C         0         0         0         0         0         0
DRAM PAGES: 1048576
Allocated PAGES: 5057
