Initialize SIGNATURE TABLE
ST_SET: 1
ST_WAY: 256
ST_TAG_BIT: 16
ST_TAG_MASK: ffff

Initialize PATTERN TABLE
PT_SET: 512
PT_WAY: 4
SIG_DELTA_BIT: 7
C_SIG_BIT: 4
C_DELTA_BIT: 4

Initialize PREFETCH FILTER
FILTER_SET: 1024

*** ChampSim Multicore Out-of-Order Simulator ***

Warmup Instructions: 50000000
Simulation Instructions: 50000000
Number of CPUs: 1
LLC sets: 2048
LLC ways: 16
Off-chip DRAM Size: 4096 MB Channels: 1 Width: 64-bit Data Rate: 6400 MT/s
CPU 0 runs ../../biswa/SPEC2017Traces/602.gcc_s-734B.champsimtrace.xz
.xz
CPU 0 Bimodal branch predictor
BTB has LRU replacement policy
ITLB has LRU replacement policy
DTLB has LRU replacement policy
STLB has LRU replacement policy
L1I has LRU replacement policy
L1D has LRU replacement policy
ST_WAYS: 256
PT_SETS: 512
Initialize DRRIP state for L2C
Initialize SRRIP state
epoch: 1000
next table: 2240
cur table: 2992
epoch: 1000
next table: 3197
cur table: 17502
epoch: 1000
next table: 2992
cur table: 3197
epoch: 1000
next table: 3272
cur table: 2992
epoch: 1000
next table: 2222
cur table: 2240
epoch: 1000
next table: 3041
cur table: 3272
epoch: 1000
next table: 2996
cur table: 3041
epoch: 1000
next table: 3016
cur table: 2996
epoch: 1000
next table: 2186
cur table: 2222
epoch: 1000
next table: 2978
cur table: 3016
epoch: 1000
next table: 2953
cur table: 2978
epoch: 1000
next table: 3003
cur table: 2953
epoch: 1000
next table: 3011
cur table: 3003
epoch: 1000
next table: 2235
cur table: 2186
epoch: 1000
next table: 3007
cur table: 3011
epoch: 1000
next table: 3015
cur table: 3007
epoch: 1000
next table: 3006
cur table: 3015
epoch: 1000
next table: 2213
cur table: 2235
epoch: 1000
next table: 3009
cur table: 3006
epoch: 1000
next table: 3000
cur table: 3009
epoch: 1000
next table: 3015
cur table: 3000
epoch: 1000
next table: 3011
cur table: 3015
epoch: 1000
next table: 2177
cur table: 2213
epoch: 1000
next table: 3001
cur table: 3011
epoch: 1000
next table: 3004
cur table: 3001
epoch: 1000
next table: 3020
cur table: 3004
epoch: 1000
next table: 2094
cur table: 2177
epoch: 1000
next table: 2980
cur table: 3020
epoch: 1000
next table: 3011
cur table: 2980
epoch: 1000
next table: 3023
cur table: 3011
epoch: 1000
next table: 1999
cur table: 2094
epoch: 1000
next table: 2997
cur table: 3023
epoch: 1000
next table: 2960
cur table: 2997
epoch: 1000
next table: 1846
cur table: 1999
epoch: 1000
next table: 2987
cur table: 2960
epoch: 1000
next table: 2981
cur table: 2987
epoch: 1000
next table: 1664
cur table: 1846
epoch: 1000
next table: 3014
cur table: 2981
epoch: 1000
next table: 2993
cur table: 3014
epoch: 1000
next table: 1694
cur table: 1664
epoch: 1000
next table: 2997
cur table: 2993
epoch: 1000
next table: 3019
cur table: 2997
epoch: 1000
next table: 1602
cur table: 1694
epoch: 1000
next table: 3034
cur table: 3019
epoch: 1000
next table: 1471
cur table: 1602
epoch: 1000
next table: 3005
cur table: 3034
epoch: 1000
next table: 2988
cur table: 3005
epoch: 1000
next table: 1439
cur table: 1471
epoch: 1000
next table: 2984
cur table: 2988
epoch: 1000
next table: 1447
cur table: 1439
epoch: 1000
next table: 3008
cur table: 2984
epoch: 1000
next table: 1445
cur table: 1447
epoch: 1000
next table: 3023
cur table: 3008
epoch: 1000
next table: 3009
cur table: 3023
epoch: 1000
next table: 1452
cur table: 1445
epoch: 1000
next table: 3018
cur table: 3009
epoch: 1000
next table: 1360
cur table: 1452
epoch: 1000
next table: 3020
cur table: 3018
epoch: 1000
next table: 1385
cur table: 1360
epoch: 1000
next table: 3015
cur table: 3020
epoch: 1000
next table: 1403
cur table: 1385
epoch: 1000
next table: 3004
cur table: 3015
epoch: 1000
next table: 1343
cur table: 1403
epoch: 1000
next table: 3017
cur table: 3004
epoch: 1000
next table: 1340
cur table: 1343
epoch: 1000
next table: 3012
cur table: 3017
epoch: 1000
next table: 1328
cur table: 1340
epoch: 1000
next table: 3014
cur table: 3012
epoch: 1000
next table: 1345
cur table: 1328
epoch: 1000
next table: 2965
cur table: 3014
epoch: 1000
next table: 1385
cur table: 1345
epoch: 1000
next table: 2979
cur table: 2965
epoch: 1000
next table: 1330
cur table: 1385
epoch: 1000
next table: 2973
cur table: 2979
epoch: 1000
next table: 1378
cur table: 1330
epoch: 1000
next table: 2972
cur table: 2973
epoch: 1000
next table: 1333
cur table: 1378
epoch: 1000
next table: 2930
cur table: 2972
epoch: 1000
next table: 1333
cur table: 1333
epoch: 1000
next table: 3014
cur table: 2930
epoch: 1000
next table: 1411
cur table: 1333
epoch: 1000
next table: 2917
cur table: 3014
epoch: 1000
next table: 1314
cur table: 1411
epoch: 1000
next table: 2998
cur table: 2917
epoch: 1000
next table: 1336
cur table: 1314
epoch: 1000
next table: 3015
cur table: 2998
epoch: 1000
next table: 1313
cur table: 1336
epoch: 1000
next table: 2963
cur table: 3015
epoch: 1000
next table: 1325
cur table: 1313
epoch: 1000
next table: 2932
cur table: 2963
epoch: 1000
next table: 1389
cur table: 1325
epoch: 1000
next table: 2966
cur table: 2932
epoch: 1000
next table: 1347
cur table: 1389
epoch: 1000
next table: 2891
cur table: 2966
epoch: 1000
next table: 1398
cur table: 1347
epoch: 1000
next table: 1315
cur table: 1398
epoch: 1000
next table: 3012
cur table: 2891
epoch: 1000
next table: 1304
cur table: 1315
epoch: 1000
next table: 3014
cur table: 3012
epoch: 1000
next table: 1445
cur table: 1304
epoch: 1000
next table: 2805
cur table: 3014
epoch: 1000
next table: 1323
cur table: 1445
epoch: 1000
next table: 3002
cur table: 2805
epoch: 1000
next table: 1325
cur table: 1323
epoch: 1000
next table: 3015
cur table: 3002
epoch: 1000
next table: 1398
cur table: 1325
epoch: 1000
next table: 2849
cur table: 3015
epoch: 1000
next table: 1322
cur table: 1398
epoch: 1000
next table: 3006
cur table: 2849
epoch: 1000
next table: 1333
cur table: 1322
epoch: 1000
next table: 3009
cur table: 3006
epoch: 1000
next table: 1330
cur table: 1333
epoch: 1000
next table: 2994
cur table: 3009
epoch: 1000
next table: 1345
cur table: 1330
epoch: 1000
next table: 2981
cur table: 2994
epoch: 1000
next table: 1308
cur table: 1345
epoch: 1000
next table: 3013
cur table: 2981
epoch: 1000
next table: 1330
cur table: 1308
epoch: 1000
next table: 2987
cur table: 3013
epoch: 1000
next table: 1358
cur table: 1330
epoch: 1000
next table: 2905
cur table: 2987
epoch: 1000
next table: 1342
cur table: 1358
epoch: 1000
next table: 2967
cur table: 2905
epoch: 1000
next table: 1361
cur table: 1342
epoch: 1000
next table: 2995
cur table: 2967
epoch: 1000
next table: 1324
cur table: 1361
Heartbeat CPU 0 instructions: 10000000 cycles: 3227758 heartbeat IPC: 3.09813 cumulative IPC: 3.09813 (Simulation time: 0 hr 3 min 2 sec) 
epoch: 1000
next table: 1321
cur table: 1324
epoch: 1000
next table: 3002
cur table: 2995
epoch: 1000
next table: 1340
cur table: 1321
epoch: 1000
next table: 3000
cur table: 3002
epoch: 1000
next table: 1306
cur table: 1340
epoch: 1000
next table: 3017
cur table: 3000
epoch: 1000
next table: 1331
cur table: 1306
epoch: 1000
next table: 3017
cur table: 3017
epoch: 1000
next table: 1323
cur table: 1331
epoch: 1000
next table: 3002
cur table: 3017
epoch: 1000
next table: 1329
cur table: 1323
epoch: 1000
next table: 2981
cur table: 3002
epoch: 1000
next table: 1343
cur table: 1329
epoch: 1000
next table: 3020
cur table: 2981
epoch: 1000
next table: 1339
cur table: 1343
epoch: 1000
next table: 3010
cur table: 3020
epoch: 1000
next table: 1317
cur table: 1339
epoch: 1000
next table: 2987
cur table: 3010
epoch: 1000
next table: 1335
cur table: 1317
epoch: 1000
next table: 3005
cur table: 2987
epoch: 1000
next table: 1312
cur table: 1335
epoch: 1000
next table: 2982
cur table: 3005
epoch: 1000
next table: 1314
cur table: 1312
epoch: 1000
next table: 2987
cur table: 2982
epoch: 1000
next table: 1349
cur table: 1314
epoch: 1000
next table: 3038
cur table: 2987
epoch: 1000
next table: 1332
cur table: 1349
epoch: 1000
next table: 3011
cur table: 3038
epoch: 1000
next table: 1311
cur table: 1332
epoch: 1000
next table: 3000
cur table: 3011
epoch: 1000
next table: 1323
cur table: 1311
epoch: 1000
next table: 3015
cur table: 3000
epoch: 1000
next table: 1329
cur table: 1323
epoch: 1000
next table: 2744
cur table: 3015
epoch: 1000
next table: 1496
cur table: 1329
epoch: 1000
next table: 1297
cur table: 1496
epoch: 1000
next table: 2995
cur table: 2744
epoch: 1000
next table: 1357
cur table: 1297
epoch: 1000
next table: 2949
cur table: 2995
epoch: 1000
next table: 1318
cur table: 1357
epoch: 1000
next table: 3022
cur table: 2949
epoch: 1000
next table: 1325
cur table: 1318
epoch: 1000
next table: 3011
cur table: 3022
epoch: 1000
next table: 1332
cur table: 1325
epoch: 1000
next table: 3006
cur table: 3011
epoch: 1000
next table: 1325
cur table: 1332
epoch: 1000
next table: 2990
cur table: 3006
epoch: 1000
next table: 1314
cur table: 1325
epoch: 1000
next table: 3011
cur table: 2990
epoch: 1000
next table: 1326
cur table: 1314
epoch: 1000
next table: 2974
cur table: 3011
epoch: 1000
next table: 1318
cur table: 1326
epoch: 1000
next table: 3004
cur table: 2974
epoch: 1000
next table: 1319
cur table: 1318
epoch: 1000
next table: 2917
cur table: 3004
epoch: 1000
next table: 1374
cur table: 1319
epoch: 1000
next table: 2954
cur table: 2917
epoch: 1000
next table: 1385
cur table: 1374
epoch: 1000
next table: 2935
cur table: 2954
epoch: 1000
next table: 1330
cur table: 1385
epoch: 1000
next table: 1418
cur table: 1330
epoch: 1000
next table: 2805
cur table: 2935
epoch: 1000
next table: 1316
cur table: 1418
epoch: 1000
next table: 2997
cur table: 2805
epoch: 1000
next table: 1337
cur table: 1316
epoch: 1000
next table: 3003
cur table: 2997
epoch: 1000
next table: 1436
cur table: 1337
epoch: 1000
next table: 2801
cur table: 3003
epoch: 1000
next table: 1404
cur table: 1436
epoch: 1000
next table: 2858
cur table: 2801
epoch: 1000
next table: 1316
cur table: 1404
epoch: 1000
next table: 2977
cur table: 2858
epoch: 1000
next table: 1445
cur table: 1316
epoch: 1000
next table: 2017
cur table: 2977
epoch: 1000
next table: 1399
cur table: 1445
epoch: 1000
next table: 3111
cur table: 2017
epoch: 1000
next table: 1540
cur table: 1399
epoch: 1000
next table: 3993
cur table: 3111
epoch: 1000
next table: 1504
cur table: 1540
epoch: 1000
next table: 3892
cur table: 3993
epoch: 1000
next table: 1445
cur table: 1504
epoch: 1000
next table: 1362
cur table: 1445
epoch: 1000
next table: 2028
cur table: 3892
epoch: 1000
next table: 1395
cur table: 1362
epoch: 1000
next table: 2834
cur table: 2028
epoch: 1000
next table: 1342
cur table: 1395
epoch: 1000
next table: 2943
cur table: 2834
epoch: 1000
next table: 1365
cur table: 1342
epoch: 1000
next table: 2991
cur table: 2943
epoch: 1000
next table: 1317
cur table: 1365
epoch: 1000
next table: 3009
cur table: 2991
epoch: 1000
next table: 1345
cur table: 1317
epoch: 1000
next table: 3000
cur table: 3009
epoch: 1000
next table: 1348
cur table: 1345
epoch: 1000
next table: 2936
cur table: 3000
epoch: 1000
next table: 1346
cur table: 1348
epoch: 1000
next table: 3016
cur table: 2936
epoch: 1000
next table: 1337
cur table: 1346
epoch: 1000
next table: 3027
cur table: 3016
epoch: 1000
next table: 1305
cur table: 1337
epoch: 1000
next table: 3026
cur table: 3027
epoch: 1000
next table: 1320
cur table: 1305
epoch: 1000
next table: 3015
cur table: 3026
epoch: 1000
next table: 1331
cur table: 1320
epoch: 1000
next table: 3006
cur table: 3015
epoch: 1000
next table: 1328
cur table: 1331
epoch: 1000
next table: 3005
cur table: 3006
epoch: 1000
next table: 1325
cur table: 1328
epoch: 1000
next table: 3006
cur table: 3005
epoch: 1000
next table: 1313
cur table: 1325
epoch: 1000
next table: 1321
cur table: 1313
epoch: 1000
next table: 3000
cur table: 3006
epoch: 1000
next table: 1344
cur table: 1321
epoch: 1000
next table: 2973
cur table: 3000
epoch: 1000
next table: 1325
cur table: 1344
epoch: 1000
next table: 3040
cur table: 2973
epoch: 1000
next table: 1314
cur table: 1325
epoch: 1000
next table: 3025
cur table: 3040
epoch: 1000
next table: 1312
cur table: 1314
epoch: 1000
next table: 3029
cur table: 3025
epoch: 1000
next table: 1313
cur table: 1312
epoch: 1000
next table: 3013
cur table: 3029
epoch: 1000
next table: 1322
cur table: 1313
epoch: 1000
next table: 3017
cur table: 3013
epoch: 1000
next table: 1306
cur table: 1322
epoch: 1000
next table: 3021
cur table: 3017
epoch: 1000
next table: 1330
cur table: 1306
epoch: 1000
next table: 3000
cur table: 3021
epoch: 1000
next table: 1334
cur table: 1330
epoch: 1000
next table: 3025
cur table: 3000
epoch: 1000
next table: 1304
cur table: 1334
epoch: 1000
next table: 3034
cur table: 3025
epoch: 1000
next table: 1339
cur table: 1304
epoch: 1000
next table: 2977
cur table: 3034
epoch: 1000
next table: 1324
cur table: 1339
epoch: 1000
next table: 3010
cur table: 2977
epoch: 1000
next table: 1322
cur table: 1324
epoch: 1000
next table: 3018
cur table: 3010
epoch: 1000
next table: 1323
cur table: 1322
epoch: 1000
next table: 3007
cur table: 3018
epoch: 1000
next table: 1340
cur table: 1323
epoch: 1000
next table: 3006
cur table: 3007
epoch: 1000
next table: 1341
cur table: 1340
epoch: 1000
next table: 2979
cur table: 3006
epoch: 1000
next table: 1338
cur table: 1341
epoch: 1000
next table: 3025
cur table: 2979
epoch: 1000
next table: 1333
cur table: 1338
epoch: 1000
next table: 3001
cur table: 3025
epoch: 1000
next table: 1313
cur table: 1333
epoch: 1000
next table: 1335
cur table: 1313
epoch: 1000
next table: 3018
cur table: 3001
epoch: 1000
next table: 1319
cur table: 1335
epoch: 1000
next table: 2992
cur table: 3018
epoch: 1000
next table: 1335
cur table: 1319
epoch: 1000
next table: 3004
cur table: 2992
epoch: 1000
next table: 1336
cur table: 1335
epoch: 1000
next table: 3022
cur table: 3004
epoch: 1000
next table: 1326
cur table: 1336
epoch: 1000
next table: 3015
cur table: 3022
epoch: 1000
next table: 1324
cur table: 1326
epoch: 1000
next table: 3030
cur table: 3015
epoch: 1000
next table: 1320
cur table: 1324
epoch: 1000
next table: 3022
cur table: 3030
epoch: 1000
next table: 1338
cur table: 1320
epoch: 1000
next table: 3039
cur table: 3022
epoch: 1000
next table: 1320
cur table: 1338
epoch: 1000
next table: 3005
cur table: 3039
epoch: 1000
next table: 1326
cur table: 1320
epoch: 1000
next table: 2992
cur table: 3005
epoch: 1000
next table: 1329
cur table: 1326
epoch: 1000
next table: 3023
cur table: 2992
epoch: 1000
next table: 1327
cur table: 1329
epoch: 1000
next table: 3027
cur table: 3023
Heartbeat CPU 0 instructions: 20000002 cycles: 6469502 heartbeat IPC: 3.08476 cumulative IPC: 3.09143 (Simulation time: 0 hr 6 min 9 sec) 
epoch: 1000
next table: 1332
cur table: 1327
epoch: 1000
next table: 3027
cur table: 3027
epoch: 1000
next table: 1338
cur table: 1332
epoch: 1000
next table: 3038
cur table: 3027
epoch: 1000
next table: 1314
cur table: 1338
epoch: 1000
next table: 3019
cur table: 3038
epoch: 1000
next table: 1320
cur table: 1314
epoch: 1000
next table: 3020
cur table: 3019
epoch: 1000
next table: 1330
cur table: 1320
epoch: 1000
next table: 3023
cur table: 3020
epoch: 1000
next table: 1306
cur table: 1330
epoch: 1000
next table: 3001
cur table: 3023
epoch: 1000
next table: 1343
cur table: 1306
epoch: 1000
next table: 3011
cur table: 3001
epoch: 1000
next table: 1333
cur table: 1343
epoch: 1000
next table: 3011
cur table: 3011
epoch: 1000
next table: 1326
cur table: 1333
epoch: 1000
next table: 3002
cur table: 3011
epoch: 1000
next table: 1316
cur table: 1326
epoch: 1000
next table: 3029
cur table: 3002
epoch: 1000
next table: 1320
cur table: 1316
epoch: 1000
next table: 3005
cur table: 3029
epoch: 1000
next table: 1325
cur table: 1320
epoch: 1000
next table: 1319
cur table: 1325
epoch: 1000
next table: 3008
cur table: 3005
epoch: 1000
next table: 1317
cur table: 1319
epoch: 1000
next table: 3014
cur table: 3008
epoch: 1000
next table: 1325
cur table: 1317
epoch: 1000
next table: 2999
cur table: 3014
epoch: 1000
next table: 1318
cur table: 1325
epoch: 1000
next table: 3042
cur table: 2999
epoch: 1000
next table: 1323
cur table: 1318
epoch: 1000
next table: 2995
cur table: 3042
epoch: 1000
next table: 1323
cur table: 1323
epoch: 1000
next table: 3023
cur table: 2995
epoch: 1000
next table: 1325
cur table: 1323
epoch: 1000
next table: 2993
cur table: 3023
epoch: 1000
next table: 1319
cur table: 1325
epoch: 1000
next table: 3021
cur table: 2993
epoch: 1000
next table: 1312
cur table: 1319
epoch: 1000
next table: 3013
cur table: 3021
epoch: 1000
next table: 1349
cur table: 1312
epoch: 1000
next table: 2987
cur table: 3013
epoch: 1000
next table: 1308
cur table: 1349
epoch: 1000
next table: 3007
cur table: 2987
epoch: 1000
next table: 1329
cur table: 1308
epoch: 1000
next table: 3008
cur table: 3007
epoch: 1000
next table: 1329
cur table: 1329
epoch: 1000
next table: 3004
cur table: 3008
epoch: 1000
next table: 1311
cur table: 1329
epoch: 1000
next table: 3006
cur table: 3004
epoch: 1000
next table: 1330
cur table: 1311
epoch: 1000
next table: 3025
cur table: 3006
epoch: 1000
next table: 1317
cur table: 1330
epoch: 1000
next table: 3024
cur table: 3025
epoch: 1000
next table: 1311
cur table: 1317
epoch: 1000
next table: 3033
cur table: 3024
epoch: 1000
next table: 1337
cur table: 1311
epoch: 1000
next table: 2999
cur table: 3033
epoch: 1000
next table: 1332
cur table: 1337
epoch: 1000
next table: 2990
cur table: 2999
epoch: 1000
next table: 1328
cur table: 1332
epoch: 1000
next table: 1333
cur table: 1328
epoch: 1000
next table: 3002
cur table: 2990
epoch: 1000
next table: 1319
cur table: 1333
epoch: 1000
next table: 2987
cur table: 3002
epoch: 1000
next table: 1333
cur table: 1319
epoch: 1000
next table: 3019
cur table: 2987
epoch: 1000
next table: 1339
cur table: 1333
epoch: 1000
next table: 3004
cur table: 3019
epoch: 1000
next table: 1314
cur table: 1339
epoch: 1000
next table: 2993
cur table: 3004
epoch: 1000
next table: 1338
cur table: 1314
epoch: 1000
next table: 3006
cur table: 2993
epoch: 1000
next table: 1342
cur table: 1338
epoch: 1000
next table: 2991
cur table: 3006
epoch: 1000
next table: 1326
cur table: 1342
epoch: 1000
next table: 3035
cur table: 2991
epoch: 1000
next table: 1321
cur table: 1326
epoch: 1000
next table: 3019
cur table: 3035
epoch: 1000
next table: 1334
cur table: 1321
epoch: 1000
next table: 3022
cur table: 3019
epoch: 1000
next table: 1322
cur table: 1334
epoch: 1000
next table: 3009
cur table: 3022
epoch: 1000
next table: 1320
cur table: 1322
epoch: 1000
next table: 3038
cur table: 3009
epoch: 1000
next table: 1343
cur table: 1320
epoch: 1000
next table: 3012
cur table: 3038
epoch: 1000
next table: 1312
cur table: 1343
epoch: 1000
next table: 3030
cur table: 3012
epoch: 1000
next table: 1303
cur table: 1312
epoch: 1000
next table: 3040
cur table: 3030
epoch: 1000
next table: 1314
cur table: 1303
epoch: 1000
next table: 3021
cur table: 3040
epoch: 1000
next table: 1318
cur table: 1314
epoch: 1000
next table: 3015
cur table: 3021
epoch: 1000
next table: 1319
cur table: 1318
epoch: 1000
next table: 3021
cur table: 3015
epoch: 1000
next table: 1315
cur table: 1319
epoch: 1000
next table: 3028
cur table: 3021
epoch: 1000
next table: 1325
cur table: 1315
epoch: 1000
next table: 3025
cur table: 3028
epoch: 1000
next table: 1321
cur table: 1325
epoch: 1000
next table: 3021
cur table: 3025
epoch: 1000
next table: 1311
cur table: 1321
epoch: 1000
next table: 3024
cur table: 3021
epoch: 1000
next table: 1323
cur table: 1311
epoch: 1000
next table: 3033
cur table: 3024
epoch: 1000
next table: 1320
cur table: 1323
epoch: 1000
next table: 1327
cur table: 1320
epoch: 1000
next table: 2990
cur table: 3033
epoch: 1000
next table: 1337
cur table: 1327
epoch: 1000
next table: 2989
cur table: 2990
epoch: 1000
next table: 1331
cur table: 1337
epoch: 1000
next table: 3018
cur table: 2989
epoch: 1000
next table: 1324
cur table: 1331
epoch: 1000
next table: 3019
cur table: 3018
epoch: 1000
next table: 1316
cur table: 1324
epoch: 1000
next table: 3034
cur table: 3019
epoch: 1000
next table: 1325
cur table: 1316
epoch: 1000
next table: 3024
cur table: 3034
epoch: 1000
next table: 1308
cur table: 1325
epoch: 1000
next table: 3010
cur table: 3024
epoch: 1000
next table: 1330
cur table: 1308
epoch: 1000
next table: 3023
cur table: 3010
epoch: 1000
next table: 1356
cur table: 1330
epoch: 1000
next table: 2979
cur table: 3023
epoch: 1000
next table: 1340
cur table: 1356
epoch: 1000
next table: 3001
cur table: 2979
epoch: 1000
next table: 1308
cur table: 1340
epoch: 1000
next table: 3028
cur table: 3001
epoch: 1000
next table: 1315
cur table: 1308
epoch: 1000
next table: 3035
cur table: 3028
epoch: 1000
next table: 1343
cur table: 1315
epoch: 1000
next table: 3026
cur table: 3035
epoch: 1000
next table: 1322
cur table: 1343
epoch: 1000
next table: 3046
cur table: 3026
epoch: 1000
next table: 1330
cur table: 1322
epoch: 1000
next table: 3009
cur table: 3046
epoch: 1000
next table: 1342
cur table: 1330
epoch: 1000
next table: 3050
cur table: 3009
epoch: 1000
next table: 1333
cur table: 1342
epoch: 1000
next table: 3018
cur table: 3050
epoch: 1000
next table: 1339
cur table: 1333
epoch: 1000
next table: 2968
cur table: 3018
epoch: 1000
next table: 1313
cur table: 1339
epoch: 1000
next table: 3022
cur table: 2968
epoch: 1000
next table: 1311
cur table: 1313
epoch: 1000
next table: 3013
cur table: 3022
epoch: 1000
next table: 1329
cur table: 1311
epoch: 1000
next table: 2988
cur table: 3013
epoch: 1000
next table: 1342
cur table: 1329
epoch: 1000
next table: 3009
cur table: 2988
epoch: 1000
next table: 1328
cur table: 1342
epoch: 1000
next table: 3009
cur table: 3009
epoch: 1000
next table: 1325
cur table: 1328
epoch: 1000
next table: 3029
cur table: 3009
epoch: 1000
next table: 1308
cur table: 1325
epoch: 1000
next table: 3025
cur table: 3029
epoch: 1000
next table: 1331
cur table: 1308
epoch: 1000
next table: 3012
cur table: 3025
epoch: 1000
next table: 1332
cur table: 1331
epoch: 1000
next table: 1293
cur table: 1332
epoch: 1000
next table: 3022
cur table: 3012
epoch: 1000
next table: 1327
cur table: 1293
epoch: 1000
next table: 3018
cur table: 3022
Heartbeat CPU 0 instructions: 30000000 cycles: 9688901 heartbeat IPC: 3.10617 cumulative IPC: 3.09633 (Simulation time: 0 hr 9 min 13 sec) 
epoch: 1000
next table: 1374
cur table: 1327
epoch: 1000
next table: 2934
cur table: 3018
epoch: 1000
next table: 1316
cur table: 1374
epoch: 1000
next table: 3000
cur table: 2934
epoch: 1000
next table: 1328
cur table: 1316
epoch: 1000
next table: 2999
cur table: 3000
epoch: 1000
next table: 1327
cur table: 1328
epoch: 1000
next table: 2994
cur table: 2999
epoch: 1000
next table: 1349
cur table: 1327
epoch: 1000
next table: 3000
cur table: 2994
epoch: 1000
next table: 1349
cur table: 1349
epoch: 1000
next table: 3023
cur table: 3000
epoch: 1000
next table: 1348
cur table: 1349
epoch: 1000
next table: 2961
cur table: 3023
epoch: 1000
next table: 1359
cur table: 1348
epoch: 1000
next table: 2972
cur table: 2961
epoch: 1000
next table: 1329
cur table: 1359
epoch: 1000
next table: 3025
cur table: 2972
epoch: 1000
next table: 1330
cur table: 1329
epoch: 1000
next table: 3005
cur table: 3025
epoch: 1000
next table: 1337
cur table: 1330
epoch: 1000
next table: 3016
cur table: 3005
epoch: 1000
next table: 1349
cur table: 1337
epoch: 1000
next table: 2986
cur table: 3016
epoch: 1000
next table: 1313
cur table: 1349
epoch: 1000
next table: 2957
cur table: 2986
epoch: 1000
next table: 1364
cur table: 1313
epoch: 1000
next table: 3010
cur table: 2957
epoch: 1000
next table: 1338
cur table: 1364
epoch: 1000
next table: 3012
cur table: 3010
epoch: 1000
next table: 1326
cur table: 1338
epoch: 1000
next table: 3007
cur table: 3012
epoch: 1000
next table: 1338
cur table: 1326
epoch: 1000
next table: 3014
cur table: 3007
epoch: 1000
next table: 1320
cur table: 1338
epoch: 1000
next table: 3025
cur table: 3014
epoch: 1000
next table: 1333
cur table: 1320
epoch: 1000
next table: 1335
cur table: 1333
epoch: 1000
next table: 2993
cur table: 3025
epoch: 1000
next table: 1329
cur table: 1335
epoch: 1000
next table: 3019
cur table: 2993
epoch: 1000
next table: 1333
cur table: 1329
epoch: 1000
next table: 3019
cur table: 3019
epoch: 1000
next table: 1333
cur table: 1333
epoch: 1000
next table: 3007
cur table: 3019
epoch: 1000
next table: 1332
cur table: 1333
epoch: 1000
next table: 3026
cur table: 3007
epoch: 1000
next table: 1331
cur table: 1332
epoch: 1000
next table: 3007
cur table: 3026
epoch: 1000
next table: 1309
cur table: 1331
epoch: 1000
next table: 3025
cur table: 3007
epoch: 1000
next table: 1341
cur table: 1309
epoch: 1000
next table: 3003
cur table: 3025
epoch: 1000
next table: 1337
cur table: 1341
epoch: 1000
next table: 3003
cur table: 3003
epoch: 1000
next table: 1338
cur table: 1337
epoch: 1000
next table: 3021
cur table: 3003
epoch: 1000
next table: 1326
cur table: 1338
epoch: 1000
next table: 3003
cur table: 3021
epoch: 1000
next table: 1360
cur table: 1326
epoch: 1000
next table: 2961
cur table: 3003
epoch: 1000
next table: 1319
cur table: 1360
epoch: 1000
next table: 2982
cur table: 2961
epoch: 1000
next table: 1331
cur table: 1319
epoch: 1000
next table: 2985
cur table: 2982
epoch: 1000
next table: 1336
cur table: 1331
epoch: 1000
next table: 3024
cur table: 2985
epoch: 1000
next table: 1319
cur table: 1336
epoch: 1000
next table: 3006
cur table: 3024
epoch: 1000
next table: 1341
cur table: 1319
epoch: 1000
next table: 3002
cur table: 3006
epoch: 1000
next table: 1325
cur table: 1341
epoch: 1000
next table: 3020
cur table: 3002
epoch: 1000
next table: 1325
cur table: 1325
epoch: 1000
next table: 3036
cur table: 3020
epoch: 1000
next table: 1318
cur table: 1325
epoch: 1000
next table: 3014
cur table: 3036
epoch: 1000
next table: 1330
cur table: 1318
epoch: 1000
next table: 3006
cur table: 3014
epoch: 1000
next table: 1324
cur table: 1330
epoch: 1000
next table: 2976
cur table: 3006
epoch: 1000
next table: 1328
cur table: 1324
epoch: 1000
next table: 3009
cur table: 2976
epoch: 1000
next table: 1328
cur table: 1328
epoch: 1000
next table: 1311
cur table: 1328
epoch: 1000
next table: 3009
cur table: 3009
epoch: 1000
next table: 1327
cur table: 1311
epoch: 1000
next table: 3029
cur table: 3009
epoch: 1000
next table: 1322
cur table: 1327
epoch: 1000
next table: 3014
cur table: 3029
epoch: 1000
next table: 1301
cur table: 1322
epoch: 1000
next table: 3031
cur table: 3014
epoch: 1000
next table: 1317
cur table: 1301
epoch: 1000
next table: 3016
cur table: 3031
epoch: 1000
next table: 1336
cur table: 1317
epoch: 1000
next table: 3003
cur table: 3016
epoch: 1000
next table: 1319
cur table: 1336
epoch: 1000
next table: 3023
cur table: 3003
epoch: 1000
next table: 1314
cur table: 1319
epoch: 1000
next table: 3025
cur table: 3023
epoch: 1000
next table: 1330
cur table: 1314
epoch: 1000
next table: 3014
cur table: 3025
epoch: 1000
next table: 1325
cur table: 1330
epoch: 1000
next table: 3001
cur table: 3014
epoch: 1000
next table: 1342
cur table: 1325
epoch: 1000
next table: 2961
cur table: 3001
epoch: 1000
next table: 1326
cur table: 1342
epoch: 1000
next table: 2947
cur table: 2961
epoch: 1000
next table: 1333
cur table: 1326
epoch: 1000
next table: 3001
cur table: 2947
epoch: 1000
next table: 1334
cur table: 1333
epoch: 1000
next table: 2804
cur table: 3001
epoch: 1000
next table: 1386
cur table: 1334
epoch: 1000
next table: 3006
cur table: 2804
epoch: 1000
next table: 1316
cur table: 1386
epoch: 1000
next table: 1367
cur table: 1316
epoch: 1000
next table: 2679
cur table: 3006
epoch: 1000
next table: 1398
cur table: 1367
epoch: 1000
next table: 2658
cur table: 2679
epoch: 1000
next table: 1413
cur table: 1398
epoch: 1000
next table: 2906
cur table: 2658
epoch: 1000
next table: 1377
cur table: 1413
epoch: 1000
next table: 2860
cur table: 2906
epoch: 1000
next table: 1347
cur table: 1377
epoch: 1000
next table: 1323
cur table: 1347
epoch: 1000
next table: 3005
cur table: 2860
epoch: 1000
next table: 1361
cur table: 1323
epoch: 1000
next table: 2924
cur table: 3005
epoch: 1000
next table: 1314
cur table: 1361
epoch: 1000
next table: 2998
cur table: 2924
epoch: 1000
next table: 1431
cur table: 1314
epoch: 1000
next table: 2738
cur table: 2998
epoch: 1000
next table: 1398
cur table: 1431
epoch: 1000
next table: 2758
cur table: 2738
epoch: 1000
next table: 1372
cur table: 1398
epoch: 1000
next table: 1387
cur table: 1372
epoch: 1000
next table: 2721
cur table: 2758
epoch: 1000
next table: 1376
cur table: 1387
epoch: 1000
next table: 2971
cur table: 2721
epoch: 1000
next table: 1309
cur table: 1376
epoch: 1000
next table: 3007
cur table: 2971
epoch: 1000
next table: 1316
cur table: 1309
epoch: 1000
next table: 2891
cur table: 3007
epoch: 1000
next table: 1471
cur table: 1316
epoch: 1000
next table: 2801
cur table: 2891
epoch: 1000
next table: 1312
cur table: 1471
epoch: 1000
next table: 2947
cur table: 2801
epoch: 1000
next table: 1351
cur table: 1312
epoch: 1000
next table: 1323
cur table: 1351
epoch: 1000
next table: 2033
cur table: 2947
epoch: 1000
next table: 1340
cur table: 1323
epoch: 1000
next table: 2697
cur table: 2033
epoch: 1000
next table: 1364
cur table: 1340
epoch: 1000
next table: 3005
cur table: 2697
epoch: 1000
next table: 1351
cur table: 1364
epoch: 1000
next table: 2935
cur table: 3005
epoch: 1000
next table: 1336
cur table: 1351
epoch: 1000
next table: 3000
cur table: 2935
epoch: 1000
next table: 1330
cur table: 1336
epoch: 1000
next table: 3000
cur table: 3000
epoch: 1000
next table: 1310
cur table: 1330
epoch: 1000
next table: 2931
cur table: 3000
epoch: 1000
next table: 1357
cur table: 1310
epoch: 1000
next table: 3006
cur table: 2931
epoch: 1000
next table: 1325
cur table: 1357
epoch: 1000
next table: 3032
cur table: 3006
epoch: 1000
next table: 1315
cur table: 1325
epoch: 1000
next table: 3019
cur table: 3032
epoch: 1000
next table: 1313
cur table: 1315
epoch: 1000
next table: 3017
cur table: 3019
epoch: 1000
next table: 1316
cur table: 1313
epoch: 1000
next table: 3006
cur table: 3017
epoch: 1000
next table: 1349
cur table: 1316
epoch: 1000
next table: 2992
cur table: 3006
epoch: 1000
next table: 1347
cur table: 1349
Heartbeat CPU 0 instructions: 40000000 cycles: 12934991 heartbeat IPC: 3.08063 cumulative IPC: 3.09239 (Simulation time: 0 hr 12 min 11 sec) 
epoch: 1000
next table: 1297
cur table: 1347
epoch: 1000
next table: 3002
cur table: 2992
epoch: 1000
next table: 1315
cur table: 1297
epoch: 1000
next table: 3009
cur table: 3002
epoch: 1000
next table: 1360
cur table: 1315
epoch: 1000
next table: 2960
cur table: 3009
epoch: 1000
next table: 1299
cur table: 1360
epoch: 1000
next table: 3028
cur table: 2960
epoch: 1000
next table: 1324
cur table: 1299
epoch: 1000
next table: 3019
cur table: 3028
epoch: 1000
next table: 1330
cur table: 1324
epoch: 1000
next table: 3019
cur table: 3019
epoch: 1000
next table: 1336
cur table: 1330
epoch: 1000
next table: 3018
cur table: 3019
epoch: 1000
next table: 1323
cur table: 1336
epoch: 1000
next table: 3001
cur table: 3018
epoch: 1000
next table: 1315
cur table: 1323
epoch: 1000
next table: 3019
cur table: 3001
epoch: 1000
next table: 1310
cur table: 1315
epoch: 1000
next table: 3016
cur table: 3019
epoch: 1000
next table: 1317
cur table: 1310
epoch: 1000
next table: 3002
cur table: 3016
epoch: 1000
next table: 1317
cur table: 1317
epoch: 1000
next table: 3034
cur table: 3002
epoch: 1000
next table: 1321
cur table: 1317
epoch: 1000
next table: 2981
cur table: 3034
epoch: 1000
next table: 1321
cur table: 1321
epoch: 1000
next table: 3007
cur table: 2981
epoch: 1000
next table: 1328
cur table: 1321
epoch: 1000
next table: 3010
cur table: 3007
epoch: 1000
next table: 1320
cur table: 1328
epoch: 1000
next table: 3004
cur table: 3010
epoch: 1000
next table: 1334
cur table: 1320
epoch: 1000
next table: 3005
cur table: 3004
epoch: 1000
next table: 1334
cur table: 1334
epoch: 1000
next table: 3017
cur table: 3005
epoch: 1000
next table: 1334
cur table: 1334
epoch: 1000
next table: 2988
cur table: 3017
epoch: 1000
next table: 1337
cur table: 1334
epoch: 1000
next table: 1351
cur table: 1337
epoch: 1000
next table: 3000
cur table: 2988
epoch: 1000
next table: 1330
cur table: 1351
epoch: 1000
next table: 3018
cur table: 3000
epoch: 1000
next table: 1308
cur table: 1330
epoch: 1000
next table: 3014
cur table: 3018
epoch: 1000
next table: 1326
cur table: 1308
epoch: 1000
next table: 2982
cur table: 3014
epoch: 1000
next table: 1313
cur table: 1326
epoch: 1000
next table: 3016
cur table: 2982
epoch: 1000
next table: 1331
cur table: 1313
epoch: 1000
next table: 3009
cur table: 3016
epoch: 1000
next table: 1335
cur table: 1331
epoch: 1000
next table: 3013
cur table: 3009
epoch: 1000
next table: 1337
cur table: 1335
epoch: 1000
next table: 3038
cur table: 3013
epoch: 1000
next table: 1334
cur table: 1337
epoch: 1000
next table: 3032
cur table: 3038
epoch: 1000
next table: 1317
cur table: 1334
epoch: 1000
next table: 2999
cur table: 3032
epoch: 1000
next table: 1354
cur table: 1317
epoch: 1000
next table: 2987
cur table: 2999
epoch: 1000
next table: 1308
cur table: 1354
epoch: 1000
next table: 3009
cur table: 2987
epoch: 1000
next table: 1334
cur table: 1308
epoch: 1000
next table: 3034
cur table: 3009
epoch: 1000
next table: 1336
cur table: 1334
epoch: 1000
next table: 3029
cur table: 3034
epoch: 1000
next table: 1333
cur table: 1336
epoch: 1000
next table: 3037
cur table: 3029
epoch: 1000
next table: 1328
cur table: 1333
epoch: 1000
next table: 3012
cur table: 3037
epoch: 1000
next table: 1326
cur table: 1328
epoch: 1000
next table: 3024
cur table: 3012
epoch: 1000
next table: 1334
cur table: 1326
epoch: 1000
next table: 3014
cur table: 3024
epoch: 1000
next table: 1324
cur table: 1334
epoch: 1000
next table: 3001
cur table: 3014
epoch: 1000
next table: 1336
cur table: 1324
epoch: 1000
next table: 3019
cur table: 3001
epoch: 1000
next table: 1332
cur table: 1336
epoch: 1000
next table: 3011
cur table: 3019
epoch: 1000
next table: 1309
cur table: 1332
epoch: 1000
next table: 3005
cur table: 3011
epoch: 1000
next table: 1330
cur table: 1309
epoch: 1000
next table: 3023
cur table: 3005
epoch: 1000
next table: 1325
cur table: 1330
epoch: 1000
next table: 1314
cur table: 1325
epoch: 1000
next table: 3005
cur table: 3023
epoch: 1000
next table: 1326
cur table: 1314
epoch: 1000
next table: 3010
cur table: 3005
epoch: 1000
next table: 1322
cur table: 1326
epoch: 1000
next table: 3009
cur table: 3010
epoch: 1000
next table: 1317
cur table: 1322
epoch: 1000
next table: 2990
cur table: 3009
epoch: 1000
next table: 1324
cur table: 1317
epoch: 1000
next table: 3040
cur table: 2990
epoch: 1000
next table: 1312
cur table: 1324
epoch: 1000
next table: 3008
cur table: 3040
epoch: 1000
next table: 1323
cur table: 1312
epoch: 1000
next table: 3014
cur table: 3008
epoch: 1000
next table: 1328
cur table: 1323
epoch: 1000
next table: 2988
cur table: 3014
epoch: 1000
next table: 1340
cur table: 1328
epoch: 1000
next table: 3019
cur table: 2988
epoch: 1000
next table: 1330
cur table: 1340
epoch: 1000
next table: 3040
cur table: 3019
epoch: 1000
next table: 1318
cur table: 1330
epoch: 1000
next table: 2965
cur table: 3040
epoch: 1000
next table: 1331
cur table: 1318
epoch: 1000
next table: 3011
cur table: 2965
epoch: 1000
next table: 1314
cur table: 1331
epoch: 1000
next table: 3004
cur table: 3011
epoch: 1000
next table: 1333
cur table: 1314
epoch: 1000
next table: 2997
cur table: 3004
epoch: 1000
next table: 1337
cur table: 1333
epoch: 1000
next table: 3016
cur table: 2997
epoch: 1000
next table: 1328
cur table: 1337
epoch: 1000
next table: 3025
cur table: 3016
epoch: 1000
next table: 1321
cur table: 1328
epoch: 1000
next table: 3019
cur table: 3025
epoch: 1000
next table: 1326
cur table: 1321
epoch: 1000
next table: 3032
cur table: 3019
epoch: 1000
next table: 1337
cur table: 1326
epoch: 1000
next table: 2996
cur table: 3032
epoch: 1000
next table: 1322
cur table: 1337
epoch: 1000
next table: 2992
cur table: 2996
epoch: 1000
next table: 1332
cur table: 1322
epoch: 1000
next table: 1346
cur table: 1332
epoch: 1000
next table: 3003
cur table: 2992
epoch: 1000
next table: 1304
cur table: 1346
epoch: 1000
next table: 3013
cur table: 3003
epoch: 1000
next table: 1323
cur table: 1304
epoch: 1000
next table: 2998
cur table: 3013
epoch: 1000
next table: 1309
cur table: 1323
epoch: 1000
next table: 2999
cur table: 2998
epoch: 1000
next table: 1325
cur table: 1309
epoch: 1000
next table: 2993
cur table: 2999
epoch: 1000
next table: 1337
cur table: 1325
epoch: 1000
next table: 3006
cur table: 2993
epoch: 1000
next table: 1324
cur table: 1337
epoch: 1000
next table: 2988
cur table: 3006
epoch: 1000
next table: 1335
cur table: 1324
epoch: 1000
next table: 3035
cur table: 2988
epoch: 1000
next table: 1321
cur table: 1335
epoch: 1000
next table: 3017
cur table: 3035
epoch: 1000
next table: 1338
cur table: 1321
epoch: 1000
next table: 3008
cur table: 3017
epoch: 1000
next table: 1318
cur table: 1338
epoch: 1000
next table: 3012
cur table: 3008
epoch: 1000
next table: 1316
cur table: 1318
epoch: 1000
next table: 3038
cur table: 3012
epoch: 1000
next table: 1325
cur table: 1316
epoch: 1000
next table: 3017
cur table: 3038
epoch: 1000
next table: 1305
cur table: 1325
epoch: 1000
next table: 3034
cur table: 3017
epoch: 1000
next table: 1315
cur table: 1305
epoch: 1000
next table: 3021
cur table: 3034
epoch: 1000
next table: 1317
cur table: 1315
epoch: 1000
next table: 3033
cur table: 3021
epoch: 1000
next table: 1337
cur table: 1317
epoch: 1000
next table: 3019
cur table: 3033
epoch: 1000
next table: 1313
cur table: 1337
epoch: 1000
next table: 3008
cur table: 3019
epoch: 1000
next table: 1337
cur table: 1313
epoch: 1000
next table: 3033
cur table: 3008
epoch: 1000
next table: 1339
cur table: 1337
Heartbeat CPU 0 instructions: 50000000 cycles: 16156405 heartbeat IPC: 3.10423 cumulative IPC: 3.09475 (Simulation time: 0 hr 14 min 58 sec) 

Warmup complete CPU 0 instructions: 50000001 cycles: 16156406 (Simulation time: 0 hr 14 min 58 sec) 

epoch: 1000
next table: 1301
cur table: 1327
epoch: 1000
next table: 3020
cur table: 3016
epoch: 1000
next table: 1340
cur table: 1301
epoch: 1000
next table: 3025
cur table: 3020
epoch: 1000
next table: 1329
cur table: 1340
epoch: 1000
next table: 3043
cur table: 3025
epoch: 1000
next table: 1360
cur table: 1329
epoch: 1000
next table: 2943
cur table: 3043
epoch: 1000
next table: 1325
cur table: 1360
epoch: 1000
next table: 3019
cur table: 2943
epoch: 1000
next table: 1335
cur table: 1325
epoch: 1000
next table: 3002
cur table: 3019
epoch: 1000
next table: 1332
cur table: 1335
epoch: 1000
next table: 3036
cur table: 3002
epoch: 1000
next table: 1324
cur table: 1332
epoch: 1000
next table: 3030
cur table: 3036
epoch: 1000
next table: 1306
cur table: 1324
epoch: 1000
next table: 3016
cur table: 3030
epoch: 1000
next table: 1325
cur table: 1306
epoch: 1000
next table: 3010
cur table: 3016
epoch: 1000
next table: 1343
cur table: 1325
epoch: 1000
next table: 2995
cur table: 3010
epoch: 1000
next table: 1350
cur table: 1343
epoch: 1000
next table: 3003
cur table: 2995
epoch: 1000
next table: 1326
cur table: 1350
epoch: 1000
next table: 3030
cur table: 3003
epoch: 1000
next table: 1311
cur table: 1326
epoch: 1000
next table: 3030
cur table: 3030
epoch: 1000
next table: 1343
cur table: 1311
epoch: 1000
next table: 3021
cur table: 3030
epoch: 1000
next table: 1333
cur table: 1343
epoch: 1000
next table: 3050
cur table: 3021
epoch: 1000
next table: 1344
cur table: 1333
epoch: 1000
next table: 3010
cur table: 3050
epoch: 1000
next table: 1313
cur table: 1344
epoch: 1000
next table: 3045
cur table: 3010
epoch: 1000
next table: 1350
cur table: 1313
epoch: 1000
next table: 3011
cur table: 3045
epoch: 1000
next table: 1340
cur table: 1350
epoch: 1000
next table: 2955
cur table: 3011
epoch: 1000
next table: 1359
cur table: 1340
epoch: 1000
next table: 3030
cur table: 2955
epoch: 1000
next table: 1298
cur table: 1359
epoch: 1000
next table: 3016
cur table: 3030
epoch: 1000
next table: 1311
cur table: 1298
epoch: 1000
next table: 2996
cur table: 3016
epoch: 1000
next table: 1355
cur table: 1311
epoch: 1000
next table: 3004
cur table: 2996
epoch: 1000
next table: 1318
cur table: 1355
epoch: 1000
next table: 3011
cur table: 3004
epoch: 1000
next table: 1324
cur table: 1318
epoch: 1000
next table: 1308
cur table: 1324
epoch: 1000
next table: 3024
cur table: 3011
epoch: 1000
next table: 1303
cur table: 1308
epoch: 1000
next table: 3030
cur table: 3024
epoch: 1000
next table: 1328
cur table: 1303
epoch: 1000
next table: 3000
cur table: 3030
epoch: 1000
next table: 1335
cur table: 1328
epoch: 1000
next table: 3018
cur table: 3000
epoch: 1000
next table: 1313
cur table: 1335
epoch: 1000
next table: 3024
cur table: 3018
epoch: 1000
next table: 1340
cur table: 1313
epoch: 1000
next table: 2990
cur table: 3024
epoch: 1000
next table: 1364
cur table: 1340
epoch: 1000
next table: 2943
cur table: 2990
epoch: 1000
next table: 1318
cur table: 1364
epoch: 1000
next table: 2995
cur table: 2943
epoch: 1000
next table: 1329
cur table: 1318
epoch: 1000
next table: 2992
cur table: 2995
epoch: 1000
next table: 1328
cur table: 1329
epoch: 1000
next table: 3000
cur table: 2992
epoch: 1000
next table: 1353
cur table: 1328
epoch: 1000
next table: 3005
cur table: 3000
epoch: 1000
next table: 1350
cur table: 1353
epoch: 1000
next table: 2979
cur table: 3005
epoch: 1000
next table: 1317
cur table: 1350
epoch: 1000
next table: 2990
cur table: 2979
epoch: 1000
next table: 1344
cur table: 1317
epoch: 1000
next table: 3001
cur table: 2990
epoch: 1000
next table: 1316
cur table: 1344
epoch: 1000
next table: 3007
cur table: 3001
epoch: 1000
next table: 1324
cur table: 1316
epoch: 1000
next table: 3016
cur table: 3007
epoch: 1000
next table: 1340
cur table: 1324
epoch: 1000
next table: 3004
cur table: 3016
epoch: 1000
next table: 1331
cur table: 1340
epoch: 1000
next table: 1337
cur table: 1331
epoch: 1000
next table: 2941
cur table: 3004
epoch: 1000
next table: 1335
cur table: 1337
epoch: 1000
next table: 2988
cur table: 2941
epoch: 1000
next table: 1333
cur table: 1335
epoch: 1000
next table: 3002
cur table: 2988
epoch: 1000
next table: 1323
cur table: 1333
epoch: 1000
next table: 3016
cur table: 3002
epoch: 1000
next table: 1334
cur table: 1323
epoch: 1000
next table: 3001
cur table: 3016
epoch: 1000
next table: 1301
cur table: 1334
epoch: 1000
next table: 3031
cur table: 3001
epoch: 1000
next table: 1318
cur table: 1301
epoch: 1000
next table: 2996
cur table: 3031
epoch: 1000
next table: 1328
cur table: 1318
epoch: 1000
next table: 3021
cur table: 2996
epoch: 1000
next table: 1334
cur table: 1328
epoch: 1000
next table: 3006
cur table: 3021
epoch: 1000
next table: 1325
cur table: 1334
epoch: 1000
next table: 3010
cur table: 3006
epoch: 1000
next table: 1320
cur table: 1325
epoch: 1000
next table: 3031
cur table: 3010
epoch: 1000
next table: 1336
cur table: 1320
epoch: 1000
next table: 2994
cur table: 3031
epoch: 1000
next table: 1323
cur table: 1336
epoch: 1000
next table: 3023
cur table: 2994
epoch: 1000
next table: 1329
cur table: 1323
epoch: 1000
next table: 3005
cur table: 3023
epoch: 1000
next table: 1340
cur table: 1329
epoch: 1000
next table: 2997
cur table: 3005
epoch: 1000
next table: 1309
cur table: 1340
epoch: 1000
next table: 3014
cur table: 2997
epoch: 1000
next table: 1315
cur table: 1309
epoch: 1000
next table: 3022
cur table: 3014
epoch: 1000
next table: 1334
cur table: 1315
epoch: 1000
next table: 2954
cur table: 3022
epoch: 1000
next table: 1341
cur table: 1334
epoch: 1000
next table: 2975
cur table: 2954
epoch: 1000
next table: 1313
cur table: 1341
epoch: 1000
next table: 3011
cur table: 2975
epoch: 1000
next table: 1335
cur table: 1313
epoch: 1000
next table: 2983
cur table: 3011
epoch: 1000
next table: 1309
cur table: 1335
epoch: 1000
next table: 3008
cur table: 2983
epoch: 1000
next table: 1326
cur table: 1309
epoch: 1000
next table: 2995
cur table: 3008
epoch: 1000
next table: 1327
cur table: 1326
epoch: 1000
next table: 3015
cur table: 2995
epoch: 1000
next table: 1336
cur table: 1327
epoch: 1000
next table: 3028
cur table: 3015
epoch: 1000
next table: 1338
cur table: 1336
epoch: 1000
next table: 1322
cur table: 1338
epoch: 1000
next table: 3026
cur table: 3028
epoch: 1000
next table: 1325
cur table: 1322
epoch: 1000
next table: 3000
cur table: 3026
epoch: 1000
next table: 1316
cur table: 1325
epoch: 1000
next table: 2990
cur table: 3000
epoch: 1000
next table: 1325
cur table: 1316
epoch: 1000
next table: 2984
cur table: 2990
epoch: 1000
next table: 1314
cur table: 1325
epoch: 1000
next table: 3012
cur table: 2984
epoch: 1000
next table: 1328
cur table: 1314
epoch: 1000
next table: 3025
cur table: 3012
epoch: 1000
next table: 1317
cur table: 1328
epoch: 1000
next table: 3005
cur table: 3025
epoch: 1000
next table: 1293
cur table: 1317
epoch: 1000
next table: 3026
cur table: 3005
epoch: 1000
next table: 1309
cur table: 1293
epoch: 1000
next table: 3016
cur table: 3026
epoch: 1000
next table: 1330
cur table: 1309
epoch: 1000
next table: 3000
cur table: 3016
epoch: 1000
next table: 1332
cur table: 1330
epoch: 1000
next table: 3021
cur table: 3000
epoch: 1000
next table: 1357
cur table: 1332
epoch: 1000
next table: 3006
cur table: 3021
epoch: 1000
next table: 1330
cur table: 1357
epoch: 1000
next table: 3023
cur table: 3006
Heartbeat CPU 0 instructions: 60000000 cycles: 41464336 heartbeat IPC: 0.395133 cumulative IPC: 0.395133 (Simulation time: 0 hr 17 min 56 sec) 
epoch: 1000
next table: 1318
cur table: 1330
epoch: 1000
next table: 3000
cur table: 3023
epoch: 1000
next table: 1329
cur table: 1318
epoch: 1000
next table: 2970
cur table: 3000
epoch: 1000
next table: 1359
cur table: 1329
epoch: 1000
next table: 3009
cur table: 2970
epoch: 1000
next table: 1306
cur table: 1359
epoch: 1000
next table: 1354
cur table: 1306
epoch: 1000
next table: 2919
cur table: 3009
epoch: 1000
next table: 1392
cur table: 1354
epoch: 1000
next table: 2825
cur table: 2919
epoch: 1000
next table: 1331
cur table: 1392
epoch: 1000
next table: 2984
cur table: 2825
epoch: 1000
next table: 1355
cur table: 1331
epoch: 1000
next table: 2873
cur table: 2984
epoch: 1000
next table: 1361
cur table: 1355
epoch: 1000
next table: 2606
cur table: 2873
epoch: 1000
next table: 1362
cur table: 1361
epoch: 1000
next table: 1391
cur table: 1362
epoch: 1000
next table: 2770
cur table: 2606
epoch: 1000
next table: 1351
cur table: 1391
epoch: 1000
next table: 2962
cur table: 2770
epoch: 1000
next table: 1316
cur table: 1351
epoch: 1000
next table: 2901
cur table: 2962
epoch: 1000
next table: 1329
cur table: 1316
epoch: 1000
next table: 2921
cur table: 2901
epoch: 1000
next table: 1333
cur table: 1329
epoch: 1000
next table: 3012
cur table: 2921
epoch: 1000
next table: 1336
cur table: 1333
epoch: 1000
next table: 1430
cur table: 1336
epoch: 1000
next table: 2729
cur table: 3012
epoch: 1000
next table: 1373
cur table: 1430
epoch: 1000
next table: 2751
cur table: 2729
epoch: 1000
next table: 1359
cur table: 1373
epoch: 1000
next table: 2906
cur table: 2751
epoch: 1000
next table: 1394
cur table: 1359
epoch: 1000
next table: 2789
cur table: 2906
epoch: 1000
next table: 1318
cur table: 1394
epoch: 1000
next table: 3003
cur table: 2789
epoch: 1000
next table: 1323
cur table: 1318
epoch: 1000
next table: 2998
cur table: 3003
epoch: 1000
next table: 1330
cur table: 1323
epoch: 1000
next table: 1463
cur table: 1330
epoch: 1000
next table: 2689
cur table: 2998
epoch: 1000
next table: 1333
cur table: 1463
epoch: 1000
next table: 3002
cur table: 2689
epoch: 1000
next table: 1504
cur table: 1333
epoch: 1000
next table: 2163
cur table: 3002
epoch: 1000
next table: 1617
cur table: 1504
epoch: 1000
next table: 1642
cur table: 1617
epoch: 1000
next table: 2058
cur table: 2163
epoch: 1000
next table: 1733
cur table: 1642
epoch: 1000
next table: 2070
cur table: 2058
epoch: 1000
next table: 1878
cur table: 1733
epoch: 1000
next table: 2002
cur table: 2070
epoch: 1000
next table: 1872
cur table: 1878
epoch: 1000
next table: 2040
cur table: 2002
epoch: 1000
next table: 1778
cur table: 1872
epoch: 1000
next table: 2243
cur table: 2040
epoch: 1000
next table: 1338
cur table: 1778
epoch: 1000
next table: 2991
cur table: 2243
epoch: 1000
next table: 1634
cur table: 1338
epoch: 1000
next table: 2238
cur table: 2991
epoch: 1000
next table: 1525
cur table: 1634
epoch: 1000
next table: 2989
cur table: 2238
epoch: 1000
next table: 1377
cur table: 1525
epoch: 1000
next table: 2973
cur table: 2989
epoch: 1000
next table: 1364
cur table: 1377
epoch: 1000
next table: 1333
cur table: 1364
epoch: 1000
next table: 3010
cur table: 2973
epoch: 1000
next table: 1338
cur table: 1333
epoch: 1000
next table: 2991
cur table: 3010
epoch: 1000
next table: 1320
cur table: 1338
epoch: 1000
next table: 3001
cur table: 2991
epoch: 1000
next table: 1389
cur table: 1320
epoch: 1000
next table: 2945
cur table: 3001
epoch: 1000
next table: 1330
cur table: 1389
epoch: 1000
next table: 3011
cur table: 2945
epoch: 1000
next table: 1324
cur table: 1330
epoch: 1000
next table: 3014
cur table: 3011
epoch: 1000
next table: 1316
cur table: 1324
epoch: 1000
next table: 3015
cur table: 3014
epoch: 1000
next table: 1331
cur table: 1316
epoch: 1000
next table: 3012
cur table: 3015
epoch: 1000
next table: 1331
cur table: 1331
epoch: 1000
next table: 3005
cur table: 3012
epoch: 1000
next table: 1343
cur table: 1331
epoch: 1000
next table: 3002
cur table: 3005
epoch: 1000
next table: 1323
cur table: 1343
epoch: 1000
next table: 3002
cur table: 3002
epoch: 1000
next table: 1324
cur table: 1323
epoch: 1000
next table: 2971
cur table: 3002
epoch: 1000
next table: 1368
cur table: 1324
epoch: 1000
next table: 3015
cur table: 2971
epoch: 1000
next table: 1327
cur table: 1368
epoch: 1000
next table: 3021
cur table: 3015
epoch: 1000
next table: 1321
cur table: 1327
epoch: 1000
next table: 3014
cur table: 3021
epoch: 1000
next table: 1334
cur table: 1321
epoch: 1000
next table: 3025
cur table: 3014
epoch: 1000
next table: 1321
cur table: 1334
epoch: 1000
next table: 3019
cur table: 3025
epoch: 1000
next table: 1332
cur table: 1321
epoch: 1000
next table: 3004
cur table: 3019
epoch: 1000
next table: 1325
cur table: 1332
epoch: 1000
next table: 3024
cur table: 3004
epoch: 1000
next table: 1317
cur table: 1325
epoch: 1000
next table: 3002
cur table: 3024
epoch: 1000
next table: 1321
cur table: 1317
epoch: 1000
next table: 1319
cur table: 1321
epoch: 1000
next table: 3016
cur table: 3002
epoch: 1000
next table: 1353
cur table: 1319
epoch: 1000
next table: 2994
cur table: 3016
epoch: 1000
next table: 1318
cur table: 1353
epoch: 1000
next table: 3007
cur table: 2994
epoch: 1000
next table: 1338
cur table: 1318
epoch: 1000
next table: 2988
cur table: 3007
epoch: 1000
next table: 1340
cur table: 1338
epoch: 1000
next table: 3014
cur table: 2988
epoch: 1000
next table: 1322
cur table: 1340
epoch: 1000
next table: 3001
cur table: 3014
epoch: 1000
next table: 1343
cur table: 1322
epoch: 1000
next table: 3009
cur table: 3001
epoch: 1000
next table: 1354
cur table: 1343
epoch: 1000
next table: 2979
cur table: 3009
epoch: 1000
next table: 1311
cur table: 1354
epoch: 1000
next table: 3009
cur table: 2979
epoch: 1000
next table: 1335
cur table: 1311
epoch: 1000
next table: 3018
cur table: 3009
epoch: 1000
next table: 1333
cur table: 1335
epoch: 1000
next table: 3011
cur table: 3018
epoch: 1000
next table: 1313
cur table: 1333
epoch: 1000
next table: 2983
cur table: 3011
epoch: 1000
next table: 1326
cur table: 1313
epoch: 1000
next table: 3005
cur table: 2983
epoch: 1000
next table: 1328
cur table: 1326
epoch: 1000
next table: 3018
cur table: 3005
epoch: 1000
next table: 1318
cur table: 1328
epoch: 1000
next table: 2999
cur table: 3018
epoch: 1000
next table: 1329
cur table: 1318
epoch: 1000
next table: 3018
cur table: 2999
epoch: 1000
next table: 1338
cur table: 1329
epoch: 1000
next table: 3036
cur table: 3018
epoch: 1000
next table: 1340
cur table: 1338
epoch: 1000
next table: 3023
cur table: 3036
epoch: 1000
next table: 1332
cur table: 1340
epoch: 1000
next table: 3001
cur table: 3023
epoch: 1000
next table: 1356
cur table: 1332
epoch: 1000
next table: 2990
cur table: 3001
epoch: 1000
next table: 1343
cur table: 1356
epoch: 1000
next table: 1334
cur table: 1343
epoch: 1000
next table: 3016
cur table: 2990
epoch: 1000
next table: 1351
cur table: 1334
epoch: 1000
next table: 3034
cur table: 3016
epoch: 1000
next table: 1338
cur table: 1351
epoch: 1000
next table: 3028
cur table: 3034
epoch: 1000
next table: 1313
cur table: 1338
epoch: 1000
next table: 3027
cur table: 3028
epoch: 1000
next table: 1336
cur table: 1313
epoch: 1000
next table: 3010
cur table: 3027
epoch: 1000
next table: 1343
cur table: 1336
epoch: 1000
next table: 3021
cur table: 3010
epoch: 1000
next table: 1310
cur table: 1343
epoch: 1000
next table: 3028
cur table: 3021
epoch: 1000
next table: 1340
cur table: 1310
epoch: 1000
next table: 2986
cur table: 3028
epoch: 1000
next table: 1331
cur table: 1340
epoch: 1000
next table: 3009
cur table: 2986
epoch: 1000
next table: 1318
cur table: 1331
epoch: 1000
next table: 3012
cur table: 3009
epoch: 1000
next table: 1338
cur table: 1318
epoch: 1000
next table: 3014
cur table: 3012
epoch: 1000
next table: 1325
cur table: 1338
epoch: 1000
next table: 3009
cur table: 3014
epoch: 1000
next table: 1322
cur table: 1325
epoch: 1000
next table: 3004
cur table: 3009
epoch: 1000
next table: 1308
cur table: 1322
epoch: 1000
next table: 3021
cur table: 3004
epoch: 1000
next table: 1323
cur table: 1308
Heartbeat CPU 0 instructions: 70000002 cycles: 67890805 heartbeat IPC: 0.378409 cumulative IPC: 0.38659 (Simulation time: 0 hr 20 min 49 sec) 
epoch: 1000
next table: 2995
cur table: 3021
epoch: 1000
next table: 1324
cur table: 1323
epoch: 1000
next table: 3015
cur table: 2995
epoch: 1000
next table: 1332
cur table: 1324
epoch: 1000
next table: 3012
cur table: 3015
epoch: 1000
next table: 1334
cur table: 1332
epoch: 1000
next table: 3000
cur table: 3012
epoch: 1000
next table: 1321
cur table: 1334
epoch: 1000
next table: 3021
cur table: 3000
epoch: 1000
next table: 1334
cur table: 1321
epoch: 1000
next table: 2997
cur table: 3021
epoch: 1000
next table: 1324
cur table: 1334
epoch: 1000
next table: 1329
cur table: 1324
epoch: 1000
next table: 3012
cur table: 2997
epoch: 1000
next table: 1330
cur table: 1329
epoch: 1000
next table: 3002
cur table: 3012
epoch: 1000
next table: 1335
cur table: 1330
epoch: 1000
next table: 2970
cur table: 3002
epoch: 1000
next table: 1316
cur table: 1335
epoch: 1000
next table: 3018
cur table: 2970
epoch: 1000
next table: 1333
cur table: 1316
epoch: 1000
next table: 3000
cur table: 3018
epoch: 1000
next table: 1332
cur table: 1333
epoch: 1000
next table: 3000
cur table: 3000
epoch: 1000
next table: 1321
cur table: 1332
epoch: 1000
next table: 3009
cur table: 3000
epoch: 1000
next table: 1323
cur table: 1321
epoch: 1000
next table: 3013
cur table: 3009
epoch: 1000
next table: 1332
cur table: 1323
epoch: 1000
next table: 3024
cur table: 3013
epoch: 1000
next table: 1315
cur table: 1332
epoch: 1000
next table: 3017
cur table: 3024
epoch: 1000
next table: 1342
cur table: 1315
epoch: 1000
next table: 3004
cur table: 3017
epoch: 1000
next table: 1355
cur table: 1342
epoch: 1000
next table: 2977
cur table: 3004
epoch: 1000
next table: 1330
cur table: 1355
epoch: 1000
next table: 2997
cur table: 2977
epoch: 1000
next table: 1327
cur table: 1330
epoch: 1000
next table: 2980
cur table: 2997
epoch: 1000
next table: 1321
cur table: 1327
epoch: 1000
next table: 3021
cur table: 2980
epoch: 1000
next table: 1309
cur table: 1321
epoch: 1000
next table: 1328
cur table: 1309
epoch: 1000
next table: 2992
cur table: 3021
epoch: 1000
next table: 1328
cur table: 1328
epoch: 1000
next table: 3007
cur table: 2992
epoch: 1000
next table: 1344
cur table: 1328
epoch: 1000
next table: 2991
cur table: 3007
epoch: 1000
next table: 1325
cur table: 1344
epoch: 1000
next table: 3004
cur table: 2991
epoch: 1000
next table: 1310
cur table: 1325
epoch: 1000
next table: 3014
cur table: 3004
epoch: 1000
next table: 1337
cur table: 1310
epoch: 1000
next table: 3009
cur table: 3014
epoch: 1000
next table: 1353
cur table: 1337
epoch: 1000
next table: 3017
cur table: 3009
epoch: 1000
next table: 1311
cur table: 1353
epoch: 1000
next table: 3016
cur table: 3017
epoch: 1000
next table: 1304
cur table: 1311
epoch: 1000
next table: 3024
cur table: 3016
epoch: 1000
next table: 1340
cur table: 1304
epoch: 1000
next table: 3019
cur table: 3024
epoch: 1000
next table: 1322
cur table: 1340
epoch: 1000
next table: 3018
cur table: 3019
epoch: 1000
next table: 1326
cur table: 1322
epoch: 1000
next table: 3038
cur table: 3018
epoch: 1000
next table: 1302
cur table: 1326
epoch: 1000
next table: 3006
cur table: 3038
epoch: 1000
next table: 1328
cur table: 1302
epoch: 1000
next table: 3010
cur table: 3006
epoch: 1000
next table: 1323
cur table: 1328
epoch: 1000
next table: 3030
cur table: 3010
epoch: 1000
next table: 1334
cur table: 1323
epoch: 1000
next table: 3015
cur table: 3030
epoch: 1000
next table: 1332
cur table: 1334
epoch: 1000
next table: 3034
cur table: 3015
epoch: 1000
next table: 1315
cur table: 1332
epoch: 1000
next table: 3021
cur table: 3034
epoch: 1000
next table: 1319
cur table: 1315
epoch: 1000
next table: 3017
cur table: 3021
epoch: 1000
next table: 1333
cur table: 1319
epoch: 1000
next table: 3023
cur table: 3017
epoch: 1000
next table: 1313
cur table: 1333
epoch: 1000
next table: 2951
cur table: 3023
epoch: 1000
next table: 1352
cur table: 1313
epoch: 1000
next table: 3026
cur table: 2951
epoch: 1000
next table: 1341
cur table: 1352
epoch: 1000
next table: 1342
cur table: 1341
epoch: 1000
next table: 3001
cur table: 3026
epoch: 1000
next table: 1315
cur table: 1342
epoch: 1000
next table: 3016
cur table: 3001
epoch: 1000
next table: 1329
cur table: 1315
epoch: 1000
next table: 3041
cur table: 3016
epoch: 1000
next table: 1319
cur table: 1329
epoch: 1000
next table: 3020
cur table: 3041
epoch: 1000
next table: 1330
cur table: 1319
epoch: 1000
next table: 2998
cur table: 3020
epoch: 1000
next table: 1341
cur table: 1330
epoch: 1000
next table: 3001
cur table: 2998
epoch: 1000
next table: 1343
cur table: 1341
epoch: 1000
next table: 2995
cur table: 3001
epoch: 1000
next table: 1323
cur table: 1343
epoch: 1000
next table: 3000
cur table: 2995
epoch: 1000
next table: 1327
cur table: 1323
epoch: 1000
next table: 3037
cur table: 3000
epoch: 1000
next table: 1353
cur table: 1327
epoch: 1000
next table: 3017
cur table: 3037
epoch: 1000
next table: 1331
cur table: 1353
epoch: 1000
next table: 3027
cur table: 3017
epoch: 1000
next table: 1345
cur table: 1331
epoch: 1000
next table: 3028
cur table: 3027
epoch: 1000
next table: 1312
cur table: 1345
epoch: 1000
next table: 3025
cur table: 3028
epoch: 1000
next table: 1337
cur table: 1312
epoch: 1000
next table: 3028
cur table: 3025
epoch: 1000
next table: 1343
cur table: 1337
epoch: 1000
next table: 2999
cur table: 3028
epoch: 1000
next table: 1354
cur table: 1343
epoch: 1000
next table: 2969
cur table: 2999
epoch: 1000
next table: 1318
cur table: 1354
epoch: 1000
next table: 3016
cur table: 2969
epoch: 1000
next table: 1320
cur table: 1318
epoch: 1000
next table: 2999
cur table: 3016
epoch: 1000
next table: 1326
cur table: 1320
epoch: 1000
next table: 3001
cur table: 2999
epoch: 1000
next table: 1350
cur table: 1326
epoch: 1000
next table: 2998
cur table: 3001
epoch: 1000
next table: 1310
cur table: 1350
epoch: 1000
next table: 3014
cur table: 2998
epoch: 1000
next table: 1327
cur table: 1310
epoch: 1000
next table: 3037
cur table: 3014
epoch: 1000
next table: 1315
cur table: 1327
epoch: 1000
next table: 2996
cur table: 3037
epoch: 1000
next table: 1327
cur table: 1315
epoch: 1000
next table: 1329
cur table: 1327
epoch: 1000
next table: 3006
cur table: 2996
epoch: 1000
next table: 1345
cur table: 1329
epoch: 1000
next table: 3036
cur table: 3006
epoch: 1000
next table: 1329
cur table: 1345
epoch: 1000
next table: 2981
cur table: 3036
epoch: 1000
next table: 1348
cur table: 1329
epoch: 1000
next table: 2957
cur table: 2981
epoch: 1000
next table: 1350
cur table: 1348
epoch: 1000
next table: 2987
cur table: 2957
epoch: 1000
next table: 1325
cur table: 1350
epoch: 1000
next table: 2990
cur table: 2987
epoch: 1000
next table: 1362
cur table: 1325
epoch: 1000
next table: 2994
cur table: 2990
epoch: 1000
next table: 1339
cur table: 1362
epoch: 1000
next table: 3005
cur table: 2994
epoch: 1000
next table: 1329
cur table: 1339
epoch: 1000
next table: 2998
cur table: 3005
epoch: 1000
next table: 1351
cur table: 1329
epoch: 1000
next table: 2962
cur table: 2998
epoch: 1000
next table: 1329
cur table: 1351
epoch: 1000
next table: 2996
cur table: 2962
epoch: 1000
next table: 1329
cur table: 1329
epoch: 1000
next table: 3009
cur table: 2996
epoch: 1000
next table: 1332
cur table: 1329
epoch: 1000
next table: 2993
cur table: 3009
epoch: 1000
next table: 1318
cur table: 1332
epoch: 1000
next table: 3012
cur table: 2993
epoch: 1000
next table: 1334
cur table: 1318
epoch: 1000
next table: 2972
cur table: 3012
epoch: 1000
next table: 1343
cur table: 1334
Heartbeat CPU 0 instructions: 80000000 cycles: 93205562 heartbeat IPC: 0.395026 cumulative IPC: 0.389362 (Simulation time: 0 hr 23 min 43 sec) 
epoch: 1000
next table: 1354
cur table: 1343
epoch: 1000
next table: 2950
cur table: 2972
epoch: 1000
next table: 1349
cur table: 1354
epoch: 1000
next table: 3008
cur table: 2950
epoch: 1000
next table: 1317
cur table: 1349
epoch: 1000
next table: 3016
cur table: 3008
epoch: 1000
next table: 1340
cur table: 1317
epoch: 1000
next table: 2998
cur table: 3016
epoch: 1000
next table: 1339
cur table: 1340
epoch: 1000
next table: 3014
cur table: 2998
epoch: 1000
next table: 1323
cur table: 1339
epoch: 1000
next table: 3008
cur table: 3014
epoch: 1000
next table: 1336
cur table: 1323
epoch: 1000
next table: 3012
cur table: 3008
epoch: 1000
next table: 1319
cur table: 1336
epoch: 1000
next table: 3000
cur table: 3012
epoch: 1000
next table: 1331
cur table: 1319
epoch: 1000
next table: 3011
cur table: 3000
epoch: 1000
next table: 1346
cur table: 1331
epoch: 1000
next table: 3015
cur table: 3011
epoch: 1000
next table: 1327
cur table: 1346
epoch: 1000
next table: 3002
cur table: 3015
epoch: 1000
next table: 1350
cur table: 1327
epoch: 1000
next table: 3010
cur table: 3002
epoch: 1000
next table: 1315
cur table: 1350
epoch: 1000
next table: 3015
cur table: 3010
epoch: 1000
next table: 1326
cur table: 1315
epoch: 1000
next table: 2972
cur table: 3015
epoch: 1000
next table: 1348
cur table: 1326
epoch: 1000
next table: 3023
cur table: 2972
epoch: 1000
next table: 1326
cur table: 1348
epoch: 1000
next table: 3022
cur table: 3023
epoch: 1000
next table: 1320
cur table: 1326
epoch: 1000
next table: 2994
cur table: 3022
epoch: 1000
next table: 1357
cur table: 1320
epoch: 1000
next table: 2954
cur table: 2994
epoch: 1000
next table: 1337
cur table: 1357
epoch: 1000
next table: 2985
cur table: 2954
epoch: 1000
next table: 1323
cur table: 1337
epoch: 1000
next table: 2978
cur table: 2985
epoch: 1000
next table: 1335
cur table: 1323
epoch: 1000
next table: 3017
cur table: 2978
epoch: 1000
next table: 1323
cur table: 1335
epoch: 1000
next table: 2999
cur table: 3017
epoch: 1000
next table: 1332
cur table: 1323
epoch: 1000
next table: 3008
cur table: 2999
epoch: 1000
next table: 1345
cur table: 1332
epoch: 1000
next table: 3015
cur table: 3008
epoch: 1000
next table: 1315
cur table: 1345
epoch: 1000
next table: 3027
cur table: 3015
epoch: 1000
next table: 1317
cur table: 1315
epoch: 1000
next table: 1328
cur table: 1317
epoch: 1000
next table: 3002
cur table: 3027
epoch: 1000
next table: 1316
cur table: 1328
epoch: 1000
next table: 2990
cur table: 3002
epoch: 1000
next table: 1332
cur table: 1316
epoch: 1000
next table: 2984
cur table: 2990
epoch: 1000
next table: 1311
cur table: 1332
epoch: 1000
next table: 3001
cur table: 2984
epoch: 1000
next table: 1319
cur table: 1311
epoch: 1000
next table: 3016
cur table: 3001
epoch: 1000
next table: 1331
cur table: 1319
epoch: 1000
next table: 3014
cur table: 3016
epoch: 1000
next table: 1323
cur table: 1331
epoch: 1000
next table: 3012
cur table: 3014
epoch: 1000
next table: 1302
cur table: 1323
epoch: 1000
next table: 3022
cur table: 3012
epoch: 1000
next table: 1332
cur table: 1302
epoch: 1000
next table: 3011
cur table: 3022
epoch: 1000
next table: 1352
cur table: 1332
epoch: 1000
next table: 2995
cur table: 3011
epoch: 1000
next table: 1314
cur table: 1352
epoch: 1000
next table: 3023
cur table: 2995
epoch: 1000
next table: 1349
cur table: 1314
epoch: 1000
next table: 3006
cur table: 3023
epoch: 1000
next table: 1325
cur table: 1349
epoch: 1000
next table: 3015
cur table: 3006
epoch: 1000
next table: 1316
cur table: 1325
epoch: 1000
next table: 2967
cur table: 3015
epoch: 1000
next table: 1350
cur table: 1316
epoch: 1000
next table: 2980
cur table: 2967
epoch: 1000
next table: 1320
cur table: 1350
epoch: 1000
next table: 1357
cur table: 1320
epoch: 1000
next table: 2971
cur table: 2980
epoch: 1000
next table: 1340
cur table: 1357
epoch: 1000
next table: 2977
cur table: 2971
epoch: 1000
next table: 1347
cur table: 1340
epoch: 1000
next table: 2939
cur table: 2977
epoch: 1000
next table: 1342
cur table: 1347
epoch: 1000
next table: 3007
cur table: 2939
epoch: 1000
next table: 1372
cur table: 1342
epoch: 1000
next table: 2914
cur table: 3007
epoch: 1000
next table: 1334
cur table: 1372
epoch: 1000
next table: 3013
cur table: 2914
epoch: 1000
next table: 1322
cur table: 1334
epoch: 1000
next table: 3013
cur table: 3013
epoch: 1000
next table: 1339
cur table: 1322
epoch: 1000
next table: 2962
cur table: 3013
epoch: 1000
next table: 1350
cur table: 1339
epoch: 1000
next table: 2919
cur table: 2962
epoch: 1000
next table: 1334
cur table: 1350
epoch: 1000
next table: 2966
cur table: 2919
epoch: 1000
next table: 1328
cur table: 1334
epoch: 1000
next table: 1357
cur table: 1328
epoch: 1000
next table: 2889
cur table: 2966
epoch: 1000
next table: 1302
cur table: 1357
epoch: 1000
next table: 3014
cur table: 2889
epoch: 1000
next table: 1324
cur table: 1302
epoch: 1000
next table: 3013
cur table: 3014
epoch: 1000
next table: 1378
cur table: 1324
epoch: 1000
next table: 2796
cur table: 3013
epoch: 1000
next table: 1329
cur table: 1378
epoch: 1000
next table: 3001
cur table: 2796
epoch: 1000
next table: 1318
cur table: 1329
epoch: 1000
next table: 3015
cur table: 3001
epoch: 1000
next table: 1363
cur table: 1318
epoch: 1000
next table: 2847
cur table: 3015
epoch: 1000
next table: 1314
cur table: 1363
epoch: 1000
next table: 3003
cur table: 2847
epoch: 1000
next table: 1327
cur table: 1314
epoch: 1000
next table: 3007
cur table: 3003
epoch: 1000
next table: 1319
cur table: 1327
epoch: 1000
next table: 2985
cur table: 3007
epoch: 1000
next table: 1321
cur table: 1319
epoch: 1000
next table: 1325
cur table: 1321
epoch: 1000
next table: 2987
cur table: 2985
epoch: 1000
next table: 1344
cur table: 1325
epoch: 1000
next table: 3013
cur table: 2987
epoch: 1000
next table: 1342
cur table: 1344
epoch: 1000
next table: 2989
cur table: 3013
epoch: 1000
next table: 1358
cur table: 1342
epoch: 1000
next table: 2898
cur table: 2989
epoch: 1000
next table: 1353
cur table: 1358
epoch: 1000
next table: 2959
cur table: 2898
epoch: 1000
next table: 1330
cur table: 1353
epoch: 1000
next table: 3005
cur table: 2959
epoch: 1000
next table: 1334
cur table: 1330
epoch: 1000
next table: 3004
cur table: 3005
epoch: 1000
next table: 1327
cur table: 1334
epoch: 1000
next table: 2998
cur table: 3004
epoch: 1000
next table: 1321
cur table: 1327
epoch: 1000
next table: 3023
cur table: 2998
epoch: 1000
next table: 1332
cur table: 1321
epoch: 1000
next table: 3015
cur table: 3023
epoch: 1000
next table: 1334
cur table: 1332
epoch: 1000
next table: 3003
cur table: 3015
epoch: 1000
next table: 1344
cur table: 1334
epoch: 1000
next table: 2982
cur table: 3003
epoch: 1000
next table: 1349
cur table: 1344
epoch: 1000
next table: 3015
cur table: 2982
epoch: 1000
next table: 1341
cur table: 1349
epoch: 1000
next table: 3020
cur table: 3015
epoch: 1000
next table: 1328
cur table: 1341
epoch: 1000
next table: 2980
cur table: 3020
epoch: 1000
next table: 1334
cur table: 1328
epoch: 1000
next table: 1340
cur table: 1334
epoch: 1000
next table: 3004
cur table: 2980
epoch: 1000
next table: 1304
cur table: 1340
epoch: 1000
next table: 2981
cur table: 3004
epoch: 1000
next table: 1337
cur table: 1304
epoch: 1000
next table: 2991
cur table: 2981
epoch: 1000
next table: 1316
cur table: 1337
epoch: 1000
next table: 3030
cur table: 2991
epoch: 1000
next table: 1315
cur table: 1316
epoch: 1000
next table: 3015
cur table: 3030
epoch: 1000
next table: 1322
cur table: 1315
epoch: 1000
next table: 3001
cur table: 3015
epoch: 1000
next table: 1320
cur table: 1322
epoch: 1000
next table: 3008
cur table: 3001
epoch: 1000
next table: 1341
cur table: 1320
Heartbeat CPU 0 instructions: 90000000 cycles: 118677191 heartbeat IPC: 0.392594 cumulative IPC: 0.390165 (Simulation time: 0 hr 25 min 54 sec) 
epoch: 1000
next table: 2734
cur table: 3008
epoch: 1000
next table: 1449
cur table: 1341
epoch: 1000
next table: 2999
cur table: 2734
epoch: 1000
next table: 1321
cur table: 1449
epoch: 1000
next table: 2952
cur table: 2999
epoch: 1000
next table: 1347
cur table: 1321
epoch: 1000
next table: 1332
cur table: 1347
epoch: 1000
next table: 3022
cur table: 2952
epoch: 1000
next table: 1323
cur table: 1332
epoch: 1000
next table: 3011
cur table: 3022
epoch: 1000
next table: 1333
cur table: 1323
epoch: 1000
next table: 2997
cur table: 3011
epoch: 1000
next table: 1329
cur table: 1333
epoch: 1000
next table: 2987
cur table: 2997
epoch: 1000
next table: 1315
cur table: 1329
epoch: 1000
next table: 3017
cur table: 2987
epoch: 1000
next table: 1341
cur table: 1315
epoch: 1000
next table: 2979
cur table: 3017
epoch: 1000
next table: 1353
cur table: 1341
epoch: 1000
next table: 3007
cur table: 2979
epoch: 1000
next table: 1315
cur table: 1353
epoch: 1000
next table: 2900
cur table: 3007
epoch: 1000
next table: 1383
cur table: 1315
epoch: 1000
next table: 2958
cur table: 2900
epoch: 1000
next table: 1366
cur table: 1383
epoch: 1000
next table: 2928
cur table: 2958
epoch: 1000
next table: 1336
cur table: 1366
epoch: 1000
next table: 1411
cur table: 1336
epoch: 1000
next table: 2814
cur table: 2928
epoch: 1000
next table: 1324
cur table: 1411
epoch: 1000
next table: 2990
cur table: 2814
epoch: 1000
next table: 1344
cur table: 1324
epoch: 1000
next table: 2997
cur table: 2990
epoch: 1000
next table: 1421
cur table: 1344
epoch: 1000
next table: 2795
cur table: 2997
epoch: 1000
next table: 1393
cur table: 1421
epoch: 1000
next table: 2868
cur table: 2795
epoch: 1000
next table: 1340
cur table: 1393
epoch: 1000
next table: 2961
cur table: 2868
epoch: 1000
next table: 1368
cur table: 1340
epoch: 1000
next table: 2016
cur table: 2961
epoch: 1000
next table: 1415
cur table: 1368
epoch: 1000
next table: 3132
cur table: 2016
epoch: 1000
next table: 1385
cur table: 1415
epoch: 1000
next table: 1311
cur table: 1385
epoch: 1000
next table: 2347
cur table: 3132
epoch: 1000
next table: 1422
cur table: 1311
epoch: 1000
next table: 2974
cur table: 2347
epoch: 1000
next table: 1377
cur table: 1422
epoch: 1000
next table: 2345
cur table: 2974
epoch: 1000
next table: 1297
cur table: 1377
epoch: 1000
next table: 2022
cur table: 2345
epoch: 1000
next table: 1297
cur table: 1297
epoch: 1000
next table: 2022
cur table: 2022
epoch: 1000
next table: 1352
cur table: 1297
epoch: 1000
next table: 2016
cur table: 2022
epoch: 1000
next table: 1288
cur table: 1352
epoch: 1000
next table: 2020
cur table: 2016
epoch: 1000
next table: 1283
cur table: 1288
epoch: 1000
next table: 2024
cur table: 2020
epoch: 1000
next table: 1327
cur table: 1283
epoch: 1000
next table: 2012
cur table: 2024
epoch: 1000
next table: 1294
cur table: 1327
epoch: 1000
next table: 2023
cur table: 2012
epoch: 1000
next table: 1275
cur table: 1294
epoch: 1000
next table: 1305
cur table: 1275
epoch: 1000
next table: 2027
cur table: 2023
epoch: 1000
next table: 1289
cur table: 1305
epoch: 1000
next table: 2017
cur table: 2027
epoch: 1000
next table: 1283
cur table: 1289
epoch: 1000
next table: 2016
cur table: 2017
epoch: 1000
next table: 1288
cur table: 1283
epoch: 1000
next table: 2021
cur table: 2016
epoch: 1000
next table: 1285
cur table: 1288
epoch: 1000
next table: 2024
cur table: 2021
epoch: 1000
next table: 1284
cur table: 1285
epoch: 1000
next table: 2023
cur table: 2024
epoch: 1000
next table: 1282
cur table: 1284
epoch: 1000
next table: 2011
cur table: 2023
epoch: 1000
next table: 1281
cur table: 1282
epoch: 1000
next table: 2020
cur table: 2011
epoch: 1000
next table: 1291
cur table: 1281
epoch: 1000
next table: 2019
cur table: 2020
epoch: 1000
next table: 1281
cur table: 1291
epoch: 1000
next table: 2034
cur table: 2019
epoch: 1000
next table: 1313
cur table: 1281
epoch: 1000
next table: 2013
cur table: 2034
epoch: 1000
next table: 1290
cur table: 1313
epoch: 1000
next table: 1299
cur table: 1290
epoch: 1000
next table: 2035
cur table: 2013
epoch: 1000
next table: 1292
cur table: 1299
epoch: 1000
next table: 2008
cur table: 2035
epoch: 1000
next table: 1279
cur table: 1292
epoch: 1000
next table: 2016
cur table: 2008
epoch: 1000
next table: 1288
cur table: 1279
epoch: 1000
next table: 2031
cur table: 2016
epoch: 1000
next table: 1280
cur table: 1288
epoch: 1000
next table: 2031
cur table: 2031
epoch: 1000
next table: 1302
cur table: 1280
epoch: 1000
next table: 2028
cur table: 2031
epoch: 1000
next table: 1276
cur table: 1302
epoch: 1000
next table: 2058
cur table: 2028
epoch: 1000
next table: 1288
cur table: 1276
epoch: 1000
next table: 2015
cur table: 2058
epoch: 1000
next table: 1294
cur table: 1288
epoch: 1000
next table: 2021
cur table: 2015
epoch: 1000
next table: 1303
cur table: 1294
epoch: 1000
next table: 2037
cur table: 2021
epoch: 1000
next table: 1281
cur table: 1303
epoch: 1000
next table: 2038
cur table: 2037
epoch: 1000
next table: 1311
cur table: 1281
epoch: 1000
next table: 2047
cur table: 2038
epoch: 1000
next table: 1294
cur table: 1311
epoch: 1000
next table: 1296
cur table: 1294
epoch: 1000
next table: 2034
cur table: 2047
epoch: 1000
next table: 1303
cur table: 1296
epoch: 1000
next table: 2014
cur table: 2034
epoch: 1000
next table: 1298
cur table: 1303
epoch: 1000
next table: 2021
cur table: 2014
epoch: 1000
next table: 1308
cur table: 1298
epoch: 1000
next table: 2015
cur table: 2021
epoch: 1000
next table: 1282
cur table: 1308
epoch: 1000
next table: 2018
cur table: 2015
epoch: 1000
next table: 1292
cur table: 1282
epoch: 1000
next table: 2048
cur table: 2018
epoch: 1000
next table: 1289
cur table: 1292
epoch: 1000
next table: 2016
cur table: 2048
epoch: 1000
next table: 1289
cur table: 1289
epoch: 1000
next table: 2044
cur table: 2016
epoch: 1000
next table: 1284
cur table: 1289
epoch: 1000
next table: 2013
cur table: 2044
epoch: 1000
next table: 1284
cur table: 1284
epoch: 1000
next table: 2040
cur table: 2013
epoch: 1000
next table: 1292
cur table: 1284
epoch: 1000
next table: 2043
cur table: 2040
epoch: 1000
next table: 1299
cur table: 1292
epoch: 1000
next table: 1283
cur table: 1299
epoch: 1000
next table: 2019
cur table: 2043
epoch: 1000
next table: 1298
cur table: 1283
epoch: 1000
next table: 2052
cur table: 2019
epoch: 1000
next table: 1294
cur table: 1298
epoch: 1000
next table: 2029
cur table: 2052
epoch: 1000
next table: 1285
cur table: 1294
epoch: 1000
next table: 2038
cur table: 2029
epoch: 1000
next table: 1278
cur table: 1285
epoch: 1000
next table: 2012
cur table: 2038
epoch: 1000
next table: 1288
cur table: 1278
epoch: 1000
next table: 2017
cur table: 2012
epoch: 1000
next table: 1302
cur table: 1288
epoch: 1000
next table: 2014
cur table: 2017
epoch: 1000
next table: 1278
cur table: 1302
epoch: 1000
next table: 2016
cur table: 2014
epoch: 1000
next table: 1272
cur table: 1278
epoch: 1000
next table: 2033
cur table: 2016
epoch: 1000
next table: 1286
cur table: 1272
epoch: 1000
next table: 2011
cur table: 2033
epoch: 1000
next table: 1311
cur table: 1286
epoch: 1000
next table: 1298
cur table: 1311
epoch: 1000
next table: 2015
cur table: 2011
epoch: 1000
next table: 1296
cur table: 1298
epoch: 1000
next table: 2045
cur table: 2015
epoch: 1000
next table: 1292
cur table: 1296
epoch: 1000
next table: 2019
cur table: 2045
epoch: 1000
next table: 1292
cur table: 1292
epoch: 1000
next table: 2041
cur table: 2019
epoch: 1000
next table: 1299
cur table: 1292
epoch: 1000
next table: 2048
cur table: 2041
epoch: 1000
next table: 1279
cur table: 1299
epoch: 1000
next table: 2041
cur table: 2048
epoch: 1000
next table: 1285
cur table: 1279
epoch: 1000
next table: 2044
cur table: 2041
epoch: 1000
next table: 1288
cur table: 1285
epoch: 1000
next table: 2034
cur table: 2044
epoch: 1000
next table: 1295
cur table: 1288
epoch: 1000
next table: 2039
cur table: 2034
epoch: 1000
next table: 1302
cur table: 1295
epoch: 1000
next table: 2051
cur table: 2039
epoch: 1000
next table: 1283
cur table: 1302
epoch: 1000
next table: 2052
cur table: 2051
epoch: 1000
next table: 1281
cur table: 1283
epoch: 1000
next table: 2040
cur table: 2052
epoch: 1000
next table: 1287
cur table: 1281
epoch: 1000
next table: 2014
cur table: 2040
epoch: 1000
next table: 1326
cur table: 1287
epoch: 1000
next table: 1282
cur table: 1326
epoch: 1000
next table: 2040
cur table: 2014
epoch: 1000
next table: 1299
cur table: 1282
epoch: 1000
next table: 2045
cur table: 2040
epoch: 1000
next table: 1282
cur table: 1299
epoch: 1000
next table: 2043
cur table: 2045
epoch: 1000
next table: 1278
cur table: 1282
epoch: 1000
next table: 2046
cur table: 2043
epoch: 1000
next table: 1312
cur table: 1278
epoch: 1000
next table: 2017
cur table: 2046
epoch: 1000
next table: 1275
cur table: 1312
epoch: 1000
next table: 2009
cur table: 2017
epoch: 1000
next table: 1285
cur table: 1275
epoch: 1000
next table: 2069
cur table: 2009
epoch: 1000
next table: 1281
cur table: 1285
epoch: 1000
next table: 2062
cur table: 2069
epoch: 1000
next table: 1283
cur table: 1281
epoch: 1000
next table: 2010
cur table: 2062
epoch: 1000
next table: 1289
cur table: 1283
epoch: 1000
next table: 2073
cur table: 2010
epoch: 1000
next table: 1312
cur table: 1289
epoch: 1000
next table: 2056
cur table: 2073
epoch: 1000
next table: 1280
cur table: 1312
epoch: 1000
next table: 2043
cur table: 2056
epoch: 1000
next table: 1280
cur table: 1280
epoch: 1000
next table: 2021
cur table: 2043
epoch: 1000
next table: 1301
cur table: 1280
epoch: 1000
next table: 1289
cur table: 1301
epoch: 1000
next table: 2014
cur table: 2021
epoch: 1000
next table: 1291
cur table: 1289
epoch: 1000
next table: 2051
cur table: 2014
epoch: 1000
next table: 1279
cur table: 1291
epoch: 1000
next table: 2014
cur table: 2051
epoch: 1000
next table: 1289
cur table: 1279
epoch: 1000
next table: 2047
cur table: 2014
epoch: 1000
next table: 1292
cur table: 1289
epoch: 1000
next table: 2020
cur table: 2047
epoch: 1000
next table: 1316
cur table: 1292
epoch: 1000
next table: 2009
cur table: 2020
epoch: 1000
next table: 1291
cur table: 1316
epoch: 1000
next table: 2018
cur table: 2009
epoch: 1000
next table: 1298
cur table: 1291
epoch: 1000
next table: 2011
cur table: 2018
epoch: 1000
next table: 1302
cur table: 1298
epoch: 1000
next table: 2018
cur table: 2011
epoch: 1000
next table: 1316
cur table: 1302
epoch: 1000
next table: 2017
cur table: 2018
epoch: 1000
next table: 1289
cur table: 1316
epoch: 1000
next table: 2055
cur table: 2017
epoch: 1000
next table: 1299
cur table: 1289
epoch: 1000
next table: 1293
cur table: 1299
epoch: 1000
next table: 2055
cur table: 2055
epoch: 1000
next table: 1298
cur table: 1293
epoch: 1000
next table: 2056
cur table: 2055
epoch: 1000
next table: 1294
cur table: 1298
epoch: 1000
next table: 2012
cur table: 2056
epoch: 1000
next table: 1295
cur table: 1294
epoch: 1000
next table: 2016
cur table: 2012
epoch: 1000
next table: 1294
cur table: 1295
epoch: 1000
next table: 2063
cur table: 2016
epoch: 1000
[...]
cur table: 1319
epoch: 1000
next table: 3014
cur table: 3017
epoch: 1000
next table: 1319
cur table: 1313
epoch: 1000
next table: 1317
cur table: 1319
epoch: 1000
next table: 3023
cur table: 3014
epoch: 1000
next table: 1312
cur table: 1317
epoch: 1000
next table: 3003
cur table: 3023
epoch: 1000
next table: 1333
cur table: 1312
epoch: 1000
next table: 3008
cur table: 3003
epoch: 1000
next table: 1334
cur table: 1333
epoch: 1000
next table: 3007
cur table: 3008
epoch: 1000
next table: 1315
cur table: 1334
epoch: 1000
next table: 3001
cur table: 3007
epoch: 1000
next table: 1359
cur table: 1315
epoch: 1000
next table: 2973
cur table: 3001
epoch: 1000
next table: 1330
cur table: 1359
epoch: 1000
next table: 3016
cur table: 2973
epoch: 1000
next table: 1320
cur table: 1330
epoch: 1000
next table: 3021
cur table: 3016
epoch: 1000
next table: 1320
cur table: 1320
epoch: 1000
next table: 3028
cur table: 3021
epoch: 1000
next table: 1325
cur table: 1320
epoch: 1000
next table: 3023
cur table: 3028
epoch: 1000
next table: 1335
cur table: 1325
epoch: 1000
next table: 3014
cur table: 3023
epoch: 1000
next table: 1323
cur table: 1335
epoch: 1000
next table: 3010
cur table: 3014
epoch: 1000
next table: 1332
cur table: 1323
epoch: 1000
next table: 3027
cur table: 3010
epoch: 1000
next table: 1329
cur table: 1332
epoch: 1000
next table: 3002
cur table: 3027
epoch: 1000
next table: 1321
cur table: 1329
epoch: 1000
next table: 3024
cur table: 3002
epoch: 1000
next table: 1315
cur table: 1321
epoch: 1000
next table: 2997
cur table: 3024
epoch: 1000
next table: 1345
cur table: 1315
epoch: 1000
next table: 3001
cur table: 2997
epoch: 1000
next table: 1320
cur table: 1345
epoch: 1000
next table: 3004
cur table: 3001
epoch: 1000
next table: 1331
cur table: 1320
epoch: 1000
next table: 3005
cur table: 3004
epoch: 1000
next table: 1341
cur table: 1331
epoch: 1000
next table: 3006
cur table: 3005
epoch: 1000
next table: 1324
cur table: 1341
epoch: 1000
next table: 3016
cur table: 3006
epoch: 1000
next table: 1332
cur table: 1324
epoch: 1000
next table: 1348
cur table: 1332
epoch: 1000
next table: 2981
cur table: 3016
Heartbeat CPU 0 instructions: 100000000 cycles: 150124232 heartbeat IPC: 0.317995 cumulative IPC: 0.373224 (Simulation time: 0 hr 27 min 34 sec) 
Finished CPU 0 instructions: 50000003 cycles: 133967827 cumulative IPC: 0.373224 (Simulation time: 0 hr 27 min 34 sec) 

ChampSim completed all CPUs

Region of Interest Statistics

CPU 0 cumulative IPC: 0.373224 instructions: 50000003 cycles: 133967827
ITLB TOTAL     ACCESS:    7826373  HIT:    7826363  MISS:         10  HIT %:    99.9999  MISS %: 0.000127773   MPKI: 0.0002
ITLB LOAD TRANSLATION ACCESS:    7826373  HIT:    7826363  MISS:         10  HIT %:    99.9999  MISS %: 0.000127773   MPKI: 0.0002
ITLB PREFETCH  REQUESTED:          0  ISSUED:          0  USEFUL:          0  USELESS:          0
ITLB USEFUL LOAD PREFETCHES:          0 PREFETCH ISSUED TO LOWER LEVEL:          0  ACCURACY: -nan
ITLB TIMELY PREFETCHES:          0 LATE PREFETCHES: 0 DROPPED PREFETCHES: 0
ITLB PREFETCHES SAME FILL-ORIGIN LEVEL: 0 DIFFERENT FILL-ORIGIN LEVEL: 0
ITLB AVERAGE MISS LATENCY: 324.4 cycles
ITLB RQ	ACCESS:    8425839	FORWARD:          0	MERGED:     599462	TO_CACHE:    7826377

Revised Interactions: positive negative neutral
ITLB_interactions 0 0 0 -nan -nan -nan
DTLB TOTAL     ACCESS:   14556043  HIT:   14530441  MISS:      25602  HIT %:    99.8241  MISS %:   0.175886   MPKI: 0.51204
DTLB LOAD TRANSLATION ACCESS:   14556043  HIT:   14530441  MISS:      25602  HIT %:    99.8241  MISS %:   0.175886   MPKI: 0.51204
DTLB PREFETCH  REQUESTED:          0  ISSUED:          0  USEFUL:          0  USELESS:          0
DTLB USEFUL LOAD PREFETCHES:          0 PREFETCH ISSUED TO LOWER LEVEL:          0  ACCURACY: -nan
DTLB TIMELY PREFETCHES:          0 LATE PREFETCHES: 0 DROPPED PREFETCHES: 0
DTLB PREFETCHES SAME FILL-ORIGIN LEVEL: 0 DIFFERENT FILL-ORIGIN LEVEL: 0
DTLB AVERAGE MISS LATENCY: 92.8385 cycles
DTLB RQ	ACCESS:   14828368	FORWARD:          0	MERGED:     271959	TO_CACHE:   14556409

Revised Interactions: positive negative neutral
DTLB_interactions 0 0 0 -nan -nan -nan
STLB TOTAL     ACCESS:      25612  HIT:       6694  MISS:      18918  HIT %:    26.1362  MISS %:    73.8638   MPKI: 0.37836
STLB LOAD TRANSLATION ACCESS:      25612  HIT:       6694  MISS:      18918  HIT %:    26.1362  MISS %:    73.8638   MPKI: 0.37836
STLB PREFETCH  REQUESTED:          0  ISSUED:          0  USEFUL:          0  USELESS:          0
STLB USEFUL LOAD PREFETCHES:          0 PREFETCH ISSUED TO LOWER LEVEL:          0  ACCURACY: -nan
STLB TIMELY PREFETCHES:          0 LATE PREFETCHES: 0 DROPPED PREFETCHES: 0
STLB PREFETCHES SAME FILL-ORIGIN LEVEL: 0 DIFFERENT FILL-ORIGIN LEVEL: 0
STLB AVERAGE MISS LATENCY: 113.614 cycles
STLB RQ	ACCESS:      25612	FORWARD:          0	MERGED:          0	TO_CACHE:      25612

Revised Interactions: positive negative neutral
STLB_interactions 0 0 0 -nan -nan -nan
STLB Hit, L1D data hit: 0
STLB Hit, L2C data hit: 0
STLB Hit, LLC data hit: 0
STLB Hit, LLC data miss: 0
STLB STLB hints to L2: 0
L1D TOTAL     ACCESS:   14696707  HIT:   13764893  MISS:     931814  HIT %:    93.6597  MISS %:    6.34029   MPKI: 18.6363
L1D LOAD      ACCESS:    9910325  HIT:    8981002  MISS:     929323  HIT %:    90.6227  MISS %:    9.37732   MPKI: 18.5865
L1D RFO       ACCESS:    4786382  HIT:    4783891  MISS:       2491  HIT %:     99.948  MISS %:  0.0520435   MPKI: 0.04982
L1D PREFETCH  REQUESTED:          0  ISSUED:          0  USEFUL:          0  USELESS:          0
L1D USEFUL LOAD PREFETCHES:          0 PREFETCH ISSUED TO LOWER LEVEL:          0  ACCURACY: -nan
L1D TIMELY PREFETCHES:          0 LATE PREFETCHES: 0 DROPPED PREFETCHES: 0
L1D PREFETCHES SAME FILL-ORIGIN LEVEL: 0 DIFFERENT FILL-ORIGIN LEVEL: 0
L1D AVERAGE MISS LATENCY: 26.1662 cycles
L1D RQ	ACCESS:   13238945	FORWARD:          0	MERGED:    3194514	TO_CACHE:   10035959
L1D WQ	ACCESS:    5368851	FORWARD:       8472	MERGED:     576442	TO_CACHE:    4792409

Revised Interactions: positive negative neutral
L1D_interactions 0 0 0 -nan -nan -nan
L1D UNIQUE REGIONS ACCESSED: 0
L1D REGIONS CONFLICTS: 0
L1D Cross Page Prefetch Requests: 0
L1D Same Page Prefetch Requests: 0
L1D ROI Sum of L1D PQ occupancy: 0
L1D PREFETCHES PUSHED FROM L2C: 0
L1I TOTAL     ACCESS:    8425827  HIT:    8425738  MISS:         89  HIT %:    99.9989  MISS %: 0.00105628   MPKI: 0.00178
L1I LOAD      ACCESS:    8425827  HIT:    8425738  MISS:         89  HIT %:    99.9989  MISS %: 0.00105628   MPKI: 0.00178
L1I PREFETCH  REQUESTED:          0  ISSUED:          0  USEFUL:          0  USELESS:          0
L1I USEFUL LOAD PREFETCHES:          0 PREFETCH ISSUED TO LOWER LEVEL:          0  ACCURACY: -nan
L1I TIMELY PREFETCHES:          0 LATE PREFETCHES: 0 DROPPED PREFETCHES: 0
L1I PREFETCHES SAME FILL-ORIGIN LEVEL: 0 DIFFERENT FILL-ORIGIN LEVEL: 0
L1I AVERAGE MISS LATENCY: 188.753 cycles
L1I RQ	ACCESS:   14115337	FORWARD:          0	MERGED:    5689498	TO_CACHE:    8425839

Revised Interactions: positive negative neutral
L1I_interactions 0 0 0 -nan -nan -nan
BTB TOTAL     ACCESS:    9291543  HIT:    9274272  MISS:      17271  HIT %:    99.8141  MISS %:   0.185879   MPKI: 0.34542
BTB BRANCH_DIRECT_JUMP	ACCESS:    1184498  HIT:    1184423  MISS:         75
BTB BRANCH_INDIRECT	ACCESS:          0  HIT:          0  MISS:          0
BTB BRANCH_CONDITIONAL	ACCESS:    6903434  HIT:    6903266  MISS:        168
BTB BRANCH_DIRECT_CALL	ACCESS:     601785  HIT:     601743  MISS:         42
BTB BRANCH_INDIRECT_CALL	ACCESS:         21  HIT:         20  MISS:          1
BTB BRANCH_RETURN	ACCESS:     601805  HIT:     584820  MISS:      16985
BTB BRANCH_OTHER ACCESS:          0  HIT:          0  MISS:          0

L2C TOTAL     ACCESS:    3888730  HIT:    3324867  MISS:     563863  HIT %:    85.5001  MISS %:    14.4999   MPKI: 11.2773
L2C LOAD      ACCESS:     929412  HIT:     688419  MISS:     240993  HIT %:    74.0704  MISS %:    25.9296   MPKI: 4.81986
L2C DATA LOAD MPKI: 4.81808
L2C INSTRUCTION LOAD MPKI: 0.00178
L2C RFO       ACCESS:       2491  HIT:        119  MISS:       2372  HIT %:     4.7772  MISS %:    95.2228   MPKI: 0.04744
L2C PREFETCH  ACCESS:    2923781  HIT:    2611451  MISS:     312330  HIT %:    89.3176  MISS %:    10.6824   MPKI: 6.2466
L2C DATA PREFETCH MPKI: 6.2466
L2C INSTRUCTION PREFETCH MPKI: 0
L2C WRITEBACK ACCESS:      12540  HIT:      12355  MISS:        185  HIT %:    98.5247  MISS %:    1.47528   MPKI: 0.0037
L2C LOAD TRANSLATION ACCESS:      20506  HIT:      12523  MISS:       7983  HIT %:    61.0699  MISS %:    38.9301   MPKI: 0.15966
L2C PREFETCH  REQUESTED:    7610858  ISSUED:    7585528  USEFUL:     309891  USELESS:       2436
L2C USEFUL LOAD PREFETCHES:     309891 PREFETCH ISSUED TO LOWER LEVEL:    4941457  ACCURACY: 6.27125
L2C TIMELY PREFETCHES:     309891 LATE PREFETCHES: 40917 DROPPED PREFETCHES: 0
L2C PREFETCHES SAME FILL-ORIGIN LEVEL: 353247 DIFFERENT FILL-ORIGIN LEVEL: 4588210
L2C AVERAGE MISS LATENCY: 39.2594 cycles
L2C RQ	ACCESS:     952409	FORWARD:          0	MERGED:          0	TO_CACHE:     952409
L2C WQ	ACCESS:      12540	FORWARD:          0	MERGED:          0	TO_CACHE:      12540
L2C PQ	ACCESS:    7585528	FORWARD:          0	MERGED:      28080	TO_CACHE:    7557448

Revised Interactions: positive negative neutral
L2C_interactions 308484 2587 1338 98.7436 0.828081 0.428285
L2C Instructions Evicting Data 82
L2C Translations Evicting Data 7809
L2C Data Evicting Data 547752
L2C Instructions Evicting Instructions 1
L2C Translations Evicting Instructions 5
L2C Data Evicting Instructions 82
L2C Instructions Evicting Translations 6
L2C Translations Evicting Translations 169
L2C Data Evicting Translations 7772
L2C Dense regions hint from L2: 0
PSCL5 TOTAL     ACCESS:      18918  HIT:      18918  MISS:          0  HIT %:        100  MISS %:          0   MPKI: 0
PSCL5 LOAD TRANSLATION ACCESS:      18918  HIT:      18918  MISS:          0  HIT %:        100  MISS %:          0   MPKI: 0
PSCL5 PREFETCH  REQUESTED:          0  ISSUED:          0  USEFUL:          0  USELESS:          0
PSCL5 USEFUL LOAD PREFETCHES:          0 PREFETCH ISSUED TO LOWER LEVEL:          0  ACCURACY: -nan
PSCL5 TIMELY PREFETCHES:          0 LATE PREFETCHES: 0 DROPPED PREFETCHES: 0
PSCL5 PREFETCHES SAME FILL-ORIGIN LEVEL: 0 DIFFERENT FILL-ORIGIN LEVEL: 0

Revised Interactions: positive negative neutral
PSCL5_interactions 0 0 0 -nan -nan -nan
PSCL4 TOTAL     ACCESS:      18918  HIT:      18918  MISS:          0  HIT %:        100  MISS %:          0   MPKI: 0
PSCL4 LOAD TRANSLATION ACCESS:      18918  HIT:      18918  MISS:          0  HIT %:        100  MISS %:          0   MPKI: 0
PSCL4 PREFETCH  REQUESTED:          0  ISSUED:          0  USEFUL:          0  USELESS:          0
PSCL4 USEFUL LOAD PREFETCHES:          0 PREFETCH ISSUED TO LOWER LEVEL:          0  ACCURACY: -nan
PSCL4 TIMELY PREFETCHES:          0 LATE PREFETCHES: 0 DROPPED PREFETCHES: 0
PSCL4 PREFETCHES SAME FILL-ORIGIN LEVEL: 0 DIFFERENT FILL-ORIGIN LEVEL: 0

Revised Interactions: positive negative neutral
PSCL4_interactions 0 0 0 -nan -nan -nan
PSCL3 TOTAL     ACCESS:      18918  HIT:      18918  MISS:          0  HIT %:        100  MISS %:          0   MPKI: 0
PSCL3 LOAD TRANSLATION ACCESS:      18918  HIT:      18918  MISS:          0  HIT %:        100  MISS %:          0   MPKI: 0
PSCL3 PREFETCH  REQUESTED:          0  ISSUED:          0  USEFUL:          0  USELESS:          0
PSCL3 USEFUL LOAD PREFETCHES:          0 PREFETCH ISSUED TO LOWER LEVEL:          0  ACCURACY: -nan
PSCL3 TIMELY PREFETCHES:          0 LATE PREFETCHES: 0 DROPPED PREFETCHES: 0
PSCL3 PREFETCHES SAME FILL-ORIGIN LEVEL: 0 DIFFERENT FILL-ORIGIN LEVEL: 0

Revised Interactions: positive negative neutral
PSCL3_interactions 0 0 0 -nan -nan -nan
PSCL2 TOTAL     ACCESS:      18918  HIT:      17309  MISS:       1609  HIT %:    91.4949  MISS %:    8.50513   MPKI: 0.03218
PSCL2 LOAD TRANSLATION ACCESS:      18918  HIT:      17309  MISS:       1609  HIT %:    91.4949  MISS %:    8.50513   MPKI: 0.03218
PSCL2 PREFETCH  REQUESTED:          0  ISSUED:          0  USEFUL:          0  USELESS:          0
PSCL2 USEFUL LOAD PREFETCHES:          0 PREFETCH ISSUED TO LOWER LEVEL:          0  ACCURACY: -nan
PSCL2 TIMELY PREFETCHES:          0 LATE PREFETCHES: 0 DROPPED PREFETCHES: 0
PSCL2 PREFETCHES SAME FILL-ORIGIN LEVEL: 0 DIFFERENT FILL-ORIGIN LEVEL: 0

Revised Interactions: positive negative neutral
PSCL2_interactions 0 0 0 -nan -nan -nan
LLC TOTAL     ACCESS:    5033592  HIT:    4416367  MISS:     617225  HIT %:    87.7379  MISS %:    12.2621   MPKI: 12.3445
LLC LOAD      ACCESS:     200076  HIT:     167725  MISS:      32351  HIT %:    83.8306  MISS %:    16.1694   MPKI: 0.64702
LLC RFO       ACCESS:       2372  HIT:        227  MISS:       2145  HIT %:    9.56998  MISS %:      90.43   MPKI: 0.0429
LLC PREFETCH  ACCESS:    4814861  HIT:    4244929  MISS:     569932  HIT %:    88.1631  MISS %:    11.8369   MPKI: 11.3986
LLC WRITEBACK ACCESS:       8300  HIT:       2792  MISS:       5508  HIT %:    33.6386  MISS %:    66.3614   MPKI: 0.11016
LLC LOAD TRANSLATION ACCESS:       7983  HIT:        694  MISS:       7289  HIT %:    8.69347  MISS %:    91.3065   MPKI: 0.14578
LLC PREFETCH  REQUESTED:          0  ISSUED:          0  USEFUL:     164627  USELESS:     408034
LLC USEFUL LOAD PREFETCHES:     164627 PREFETCH ISSUED TO LOWER LEVEL:     570938  ACCURACY: 28.8345
LLC TIMELY PREFETCHES:     164627 LATE PREFETCHES: 1004 DROPPED PREFETCHES: 0
LLC PREFETCHES SAME FILL-ORIGIN LEVEL: 564396 DIFFERENT FILL-ORIGIN LEVEL: 0
LLC AVERAGE MISS LATENCY: 87.0995 cycles
LLC RQ	ACCESS:     210431	FORWARD:          0	MERGED:          0	TO_CACHE:     210431
LLC WQ	ACCESS:       8300	FORWARD:          0	MERGED:          0	TO_CACHE:       8300
LLC PQ	ACCESS:    4941457	FORWARD:          0	MERGED:       8338	TO_CACHE:    4933119

Revised Interactions: positive negative neutral
LLC_interactions 162290 405978 23449 27.427 68.6102 3.96287
LLC Dense regions hint to LLC: 0

RAW hits: 27848
Loads Generated: 13266793
Loads sent to L1D: 13238945
Stores Generated: 5368850
Stores sent to L1D: 5368851
Major fault: 0 Minor fault: 8936
Allocated PAGES: 8936
 All Calls: 1739373
 Critical Calls: 1739373
------------------
Depth Distribution
------------------
depth 0: 0
depth 1: 1539004
depth 2: 1486588
depth 3: 1434459
depth 4: 1395808
depth 5: 1357880
depth 6: 1318795
depth 7: 1266458
depth 8: 1182863
depth 9: 994530
depth 10: 837936
depth 11: 653154
depth 12: 385292
depth 13: 215549
depth 14: 12423
depth 15: 11936
depth 16: 4
depth 17: 0
depth 18: 0
depth 19: 0
depth 20: 0
depth 21: 0
depth 22: 0
depth 23: 0
depth 24: 0
depth 25: 0
depth 26: 0
depth 27: 0
depth 28: 0
depth 29: 0
Total: 14092679
-----------------------------
-----------------------------
	Captured at Filter
-----------------------------
depth 0: 0
depth 1: 174386
depth 2: 172183
depth 3: 170658
depth 4: 165466
depth 5: 162416
depth 6: 159138
depth 7: 154950
depth 8: 146076
depth 9: 123080
depth 10: 103791
depth 11: 85034
depth 12: 52229
depth 13: 28599
depth 14: 1811
depth 15: 1948
depth 16: 3
depth 17: 0
depth 18: 0
depth 19: 0
depth 20: 0
depth 21: 0
depth 22: 0
depth 23: 0
depth 24: 0
depth 25: 0
depth 26: 0
depth 27: 0
depth 28: 0
depth 29: 0
-----------------------------
-----------------------------
		Lost at Page
-----------------------------
depth 0: 0
depth 1: 27229
depth 2: 51727
depth 3: 76232
depth 4: 100340
depth 5: 124928
depth 6: 149109
depth 7: 171635
depth 8: 190174
depth 9: 186367
depth 10: 181728
depth 11: 164759
depth 12: 112015
depth 13: 71378
depth 14: 4609
depth 15: 4926
depth 16: 4
depth 17: 0
depth 18: 0
depth 19: 0
depth 20: 0
depth 21: 0
depth 22: 0
depth 23: 0
depth 24: 0
depth 25: 0
depth 26: 0
depth 27: 0
depth 28: 0
depth 29: 0
-----------------------------
-----------------------------
	Lost due to PQ Size
-----------------------------
227717
-----------------------------
ST read accesses: 909142
ST write accesses: 20181
PT read accesses: 51077369
PT write accesses: 1341488
FILTER read accesses: 9932741
FILTER write accesses: 1665199
GHR read accesses: 4952151
GHR write accesses: 842974
GHR counter read accesses: 42667714
GHR counter write accesses: 2032537
ST tag read accesses: 372994643
ST tag write accesses: 7826075

DRAM Statistics
 CHANNEL 0
 RQ ROW_BUFFER_HIT:     523806  ROW_BUFFER_MISS:      87912
 DBUS_CONGESTED:        314
 WQ ROW_BUFFER_HIT:       1027  ROW_BUFFER_MISS:       6069  FULL:          0

 AVG_CONGESTED_CYCLE: 3
 All warmup complete: 2
Channel 0 Bank busy for read cycles: 0
Channel 0 Bank busy for write cycles: 0
Channel 0
Rank 0
0banks busy for read cycles: 114301352
0banks busy for write cycles: 5305
1banks busy for read cycles: 7399238
1banks busy for write cycles: 886528
2banks busy for read cycles: 6325639
2banks busy for write cycles: 136713
3banks busy for read cycles: 2998636
3banks busy for write cycles: 41645
4banks busy for read cycles: 749948
4banks busy for write cycles: 13755
5banks busy for read cycles: 289016
5banks busy for write cycles: 10310
6banks busy for read cycles: 182254
6banks busy for write cycles: 4386
7banks busy for read cycles: 143380
7banks busy for write cycles: 3227
8banks busy for read cycles: 473792
8banks busy for write cycles: 2704

CPU 0 Branch Prediction Accuracy: 95.0334% MPKI: 12.0195 Average ROB Occupancy at Mispredict: 57.7768
Branch types
NOT_BRANCH: 37899452 75.7989%
BRANCH_DIRECT_JUMP: 1184498 2.369%
BRANCH_INDIRECT: 0 0%
BRANCH_CONDITIONAL: 9712129 19.4243%
BRANCH_DIRECT_CALL: 601785 1.20357%
BRANCH_INDIRECT_CALL: 21 4.2e-05%
BRANCH_RETURN: 601805 1.20361%
BRANCH_OTHER: 0 0%

@sumon_overall_L1D         0         0         0         0         0         0         0
@Sumon_Early_by_class_L1D         0         0         0         0
@Sumon_Late_by_class_L1D         0         0         0         0

@Sumon_Early_by_cycle_L1D         0         0         0         0         0         0         0         0         0         0         0         0
@Sumon_Late_by_cycle_L1D         0         0         0         0         0         0
@Sumon_Early_stream_L1D         0         0         0         0         0         0         0         0         0         0         0         0
@Sumon_Early_CS_L1D         0         0         0         0         0         0         0         0         0         0         0         0
@Sumon_Early_CPLX_L1D         0         0         0         0         0         0         0         0         0         0         0         0
@Sumon_Late_stream_L1D         0         0         0         0         0         0
@Sumon_Late_CS_L1D         0         0         0         0         0         0
@Sumon_Late_CPLX_L1D         0         0         0         0         0         0
@sumon_overall_L2C    309891     40917         0      2436    312330   7585528   7610858
@Sumon_Early_by_class_L2C         0         0         0         0
@Sumon_Late_by_class_L2C         0         0         0         0

@Sumon_Early_by_cycle_L2C     65221     82782    147862      5740       965      1815      1259      1745      1253       885         9       355
@Sumon_Late_by_cycle_L2C     39233       918       629        85        52         0
@Sumon_Early_stream_L2C         0         0         0         0         0         0         0         0         0         0         0         0
@Sumon_Early_CS_L2C         0         0         0         0         0         0         0         0         0         0         0         0
@Sumon_Early_CPLX_L2C         0         0         0         0         0         0         0         0         0         0         0         0
@Sumon_Late_stream_L2C         0         0         0         0         0         0
@Sumon_Late_CS_L2C         0         0         0         0         0         0
@Sumon_Late_CPLX_L2C         0         0         0         0         0         0
DRAM PAGES: 1048576
Allocated PAGES: 8936
