Initialize SIGNATURE TABLE
ST_SET: 1
ST_WAY: 256
ST_TAG_BIT: 16
ST_TAG_MASK: ffff

Initialize PATTERN TABLE
PT_SET: 512
PT_WAY: 4
SIG_DELTA_BIT: 7
C_SIG_BIT: 4
C_DELTA_BIT: 4

Initialize PREFETCH FILTER
FILTER_SET: 1024

*** ChampSim Multicore Out-of-Order Simulator ***

Warmup Instructions: 50000000
Simulation Instructions: 50000000
Number of CPUs: 1
LLC sets: 2048
LLC ways: 16
Off-chip DRAM Size: 4096 MB Channels: 1 Width: 64-bit Data Rate: 6400 MT/s
CPU 0 runs ../../biswa/SPEC2017Traces/603.bwaves_s-2609B.champsimtrace.xz
.xz
CPU 0 Bimodal branch predictor
BTB has LRU replacement policy
ITLB has LRU replacement policy
DTLB has LRU replacement policy
STLB has LRU replacement policy
L1I has LRU replacement policy
L1D has LRU replacement policy
ST_WAYS: 256
PT_SETS: 512
Initialize DRRIP state for L2C
Initialize SRRIP state
epoch: 1000
next table: 2291
cur table: 3648
epoch: 1000
next table: 2258
cur table: 2291
epoch: 1000
next table: 2135
cur table: 10508
epoch: 1000
next table: 2219
cur table: 2258
epoch: 1000
next table: 2082
cur table: 2135
epoch: 1000
next table: 2076
cur table: 2082
epoch: 1000
next table: 2074
cur table: 2076
epoch: 1000
next table: 2371
cur table: 2219
epoch: 1000
next table: 2060
cur table: 2074
epoch: 1000
next table: 2074
cur table: 2060
epoch: 1000
next table: 2239
cur table: 2371
epoch: 1000
next table: 2058
cur table: 2074
epoch: 1000
next table: 2066
cur table: 2058
epoch: 1000
next table: 2286
cur table: 2239
epoch: 1000
next table: 2063
cur table: 2066
epoch: 1000
next table: 2067
cur table: 2063
epoch: 1000
next table: 2333
cur table: 2286
epoch: 1000
next table: 2061
cur table: 2067
epoch: 1000
next table: 2068
cur table: 2061
epoch: 1000
next table: 2059
cur table: 2068
epoch: 1000
next table: 2298
cur table: 2333
epoch: 1000
next table: 2064
cur table: 2059
epoch: 1000
next table: 2061
cur table: 2064
epoch: 1000
next table: 2248
cur table: 2298
epoch: 1000
next table: 2071
cur table: 2061
epoch: 1000
next table: 2062
cur table: 2071
epoch: 1000
next table: 2248
cur table: 2248
epoch: 1000
next table: 2063
cur table: 2062
epoch: 1000
next table: 2068
cur table: 2063
epoch: 1000
next table: 2367
cur table: 2248
epoch: 1000
next table: 2058
cur table: 2068
epoch: 1000
next table: 2055
cur table: 2058
epoch: 1000
next table: 2075
cur table: 2055
epoch: 1000
next table: 2302
cur table: 2367
epoch: 1000
next table: 2052
cur table: 2075
epoch: 1000
next table: 2065
cur table: 2052
epoch: 1000
next table: 2211
cur table: 2302
epoch: 1000
next table: 2061
cur table: 2065
epoch: 1000
next table: 2067
cur table: 2061
epoch: 1000
next table: 2240
cur table: 2211
epoch: 1000
next table: 2064
cur table: 2067
epoch: 1000
next table: 2064
cur table: 2064
epoch: 1000
next table: 2312
cur table: 2240
epoch: 1000
next table: 2063
cur table: 2064
epoch: 1000
next table: 2065
cur table: 2063
epoch: 1000
next table: 2142
cur table: 2312
epoch: 1000
next table: 2059
cur table: 2065
epoch: 1000
next table: 2072
cur table: 2059
epoch: 1000
next table: 2223
cur table: 2142
epoch: 1000
next table: 2060
cur table: 2072
epoch: 1000
next table: 2066
cur table: 2060
epoch: 1000
next table: 2097
cur table: 2223
epoch: 1000
next table: 2065
cur table: 2066
epoch: 1000
next table: 2065
cur table: 2065
epoch: 1000
next table: 2099
cur table: 2097
epoch: 1000
next table: 2053
cur table: 2065
epoch: 1000
next table: 2062
cur table: 2053
epoch: 1000
next table: 2033
cur table: 2099
epoch: 1000
next table: 2062
cur table: 2062
epoch: 1000
next table: 2068
cur table: 2062
epoch: 1000
next table: 1975
cur table: 2033
epoch: 1000
next table: 2060
cur table: 2068
epoch: 1000
next table: 1871
cur table: 1975
epoch: 1000
next table: 2066
cur table: 2060
epoch: 1000
next table: 2060
cur table: 2066
epoch: 1000
next table: 1891
cur table: 1871
epoch: 1000
next table: 2062
cur table: 2060
epoch: 1000
next table: 1869
cur table: 1891
epoch: 1000
next table: 2061
cur table: 2062
epoch: 1000
next table: 2067
cur table: 2061
epoch: 1000
next table: 1780
cur table: 1869
epoch: 1000
next table: 2061
cur table: 2067
epoch: 1000
next table: 1781
cur table: 1780
epoch: 1000
next table: 2064
cur table: 2061
epoch: 1000
next table: 1763
cur table: 1781
epoch: 1000
next table: 2059
cur table: 2064
epoch: 1000
next table: 1719
cur table: 1763
epoch: 1000
next table: 2065
cur table: 2059
epoch: 1000
next table: 2067
cur table: 2065
epoch: 1000
next table: 1730
cur table: 1719
epoch: 1000
next table: 2064
cur table: 2067
epoch: 1000
next table: 1697
cur table: 1730
epoch: 1000
next table: 2063
cur table: 2064
epoch: 1000
next table: 1698
cur table: 1697
epoch: 1000
next table: 2066
cur table: 2063
epoch: 1000
next table: 1683
cur table: 1698
epoch: 1000
next table: 2062
cur table: 2066
epoch: 1000
next table: 2058
cur table: 2062
epoch: 1000
next table: 1694
cur table: 1683
epoch: 1000
next table: 2067
cur table: 2058
epoch: 1000
next table: 1673
cur table: 1694
epoch: 1000
next table: 2063
cur table: 2067
epoch: 1000
next table: 1664
cur table: 1673
epoch: 1000
next table: 2067
cur table: 2063
epoch: 1000
next table: 1655
cur table: 1664
epoch: 1000
next table: 2068
cur table: 2067
epoch: 1000
next table: 1620
cur table: 1655
epoch: 1000
next table: 2058
cur table: 2068
epoch: 1000
next table: 1619
cur table: 1620
epoch: 1000
next table: 2063
cur table: 2058
epoch: 1000
next table: 1633
cur table: 1619
epoch: 1000
next table: 2057
cur table: 2063
epoch: 1000
next table: 1624
cur table: 1633
epoch: 1000
next table: 2071
cur table: 2057
epoch: 1000
next table: 1609
cur table: 1624
epoch: 1000
next table: 2062
cur table: 2071
epoch: 1000
next table: 1627
cur table: 1609
epoch: 1000
next table: 2065
cur table: 2062
epoch: 1000
next table: 2066
cur table: 2065
epoch: 1000
next table: 1608
cur table: 1627
epoch: 1000
next table: 2064
cur table: 2066
epoch: 1000
next table: 1605
cur table: 1608
epoch: 1000
next table: 2064
cur table: 2064
epoch: 1000
next table: 1563
cur table: 1605
epoch: 1000
next table: 2063
cur table: 2064
epoch: 1000
next table: 1580
cur table: 1563
epoch: 1000
next table: 2056
cur table: 2063
epoch: 1000
next table: 1626
cur table: 1580
epoch: 1000
next table: 2065
cur table: 2056
epoch: 1000
next table: 1611
cur table: 1626
epoch: 1000
next table: 2058
cur table: 2065
epoch: 1000
next table: 1576
cur table: 1611
epoch: 1000
next table: 2067
cur table: 2058
epoch: 1000
next table: 1587
cur table: 1576
epoch: 1000
next table: 2066
cur table: 2067
epoch: 1000
next table: 1590
cur table: 1587
epoch: 1000
next table: 2065
cur table: 2066
epoch: 1000
next table: 1590
cur table: 1590
epoch: 1000
next table: 2071
cur table: 2065
epoch: 1000
next table: 1610
cur table: 1590
epoch: 1000
next table: 2057
cur table: 2071
epoch: 1000
next table: 1573
cur table: 1610
epoch: 1000
next table: 2060
cur table: 2057
epoch: 1000
next table: 1593
cur table: 1573
epoch: 1000
next table: 2072
cur table: 2060
epoch: 1000
next table: 1593
cur table: 1593
epoch: 1000
next table: 2056
cur table: 2072
epoch: 1000
next table: 1584
cur table: 1593
epoch: 1000
next table: 2074
cur table: 2056
epoch: 1000
next table: 1579
cur table: 1584
epoch: 1000
next table: 2050
cur table: 2074
epoch: 1000
next table: 1578
cur table: 1579
epoch: 1000
next table: 2066
cur table: 2050
epoch: 1000
next table: 1576
cur table: 1578
epoch: 1000
next table: 2066
cur table: 2066
epoch: 1000
next table: 1570
cur table: 1576
epoch: 1000
next table: 2066
cur table: 2066
epoch: 1000
next table: 1604
cur table: 1570
epoch: 1000
next table: 2050
cur table: 2066
epoch: 1000
next table: 1559
cur table: 1604
epoch: 1000
next table: 2068
cur table: 2050
epoch: 1000
next table: 1576
cur table: 1559
epoch: 1000
next table: 2058
cur table: 2068
epoch: 1000
next table: 1571
cur table: 1576
epoch: 1000
next table: 2068
cur table: 2058
epoch: 1000
next table: 1566
cur table: 1571
epoch: 1000
next table: 2059
cur table: 2068
epoch: 1000
next table: 1589
cur table: 1566
epoch: 1000
next table: 2065
cur table: 2059
epoch: 1000
next table: 1568
cur table: 1589
epoch: 1000
next table: 2062
cur table: 2065
epoch: 1000
next table: 1557
cur table: 1568
epoch: 1000
next table: 2066
cur table: 2062
epoch: 1000
next table: 1568
cur table: 1557
epoch: 1000
next table: 2063
cur table: 2066
epoch: 1000
next table: 1579
cur table: 1568
epoch: 1000
next table: 2064
cur table: 2063
epoch: 1000
next table: 1590
cur table: 1579
epoch: 1000
next table: 2069
cur table: 2064
epoch: 1000
next table: 1578
cur table: 1590
epoch: 1000
next table: 2061
cur table: 2069
epoch: 1000
next table: 1577
cur table: 1578
epoch: 1000
next table: 2062
cur table: 2061
epoch: 1000
next table: 1557
cur table: 1577
epoch: 1000
next table: 2066
cur table: 2062
epoch: 1000
next table: 1594
cur table: 1557
epoch: 1000
next table: 2055
cur table: 2066
epoch: 1000
next table: 1584
cur table: 1594
epoch: 1000
next table: 2067
cur table: 2055
epoch: 1000
next table: 1569
cur table: 1584
epoch: 1000
next table: 2064
cur table: 2067
epoch: 1000
next table: 1604
cur table: 1569
epoch: 1000
next table: 2062
cur table: 2064
epoch: 1000
next table: 1576
cur table: 1604
epoch: 1000
next table: 2061
cur table: 2062
epoch: 1000
next table: 1591
cur table: 1576
epoch: 1000
next table: 2062
cur table: 2061
epoch: 1000
next table: 1573
cur table: 1591
epoch: 1000
next table: 2062
cur table: 2062
epoch: 1000
next table: 1564
cur table: 1573
epoch: 1000
next table: 2066
cur table: 2062
epoch: 1000
next table: 1573
cur table: 1564
epoch: 1000
next table: 2064
cur table: 2066
epoch: 1000
next table: 1606
cur table: 1573
epoch: 1000
next table: 2061
cur table: 2064
epoch: 1000
next table: 1574
cur table: 1606
epoch: 1000
next table: 2067
cur table: 2061
epoch: 1000
next table: 1560
cur table: 1574
epoch: 1000
next table: 2066
cur table: 2067
epoch: 1000
next table: 1550
cur table: 1560
epoch: 1000
next table: 2060
cur table: 2066
epoch: 1000
next table: 1573
cur table: 1550
epoch: 1000
next table: 2069
cur table: 2060
epoch: 1000
next table: 1594
cur table: 1573
epoch: 1000
next table: 2063
cur table: 2069
epoch: 1000
next table: 1570
cur table: 1594
epoch: 1000
next table: 2066
cur table: 2063
epoch: 1000
next table: 1551
cur table: 1570
epoch: 1000
next table: 2064
cur table: 2066
epoch: 1000
next table: 1547
cur table: 1551
epoch: 1000
next table: 2066
cur table: 2064
epoch: 1000
next table: 1589
cur table: 1547
epoch: 1000
next table: 2061
cur table: 2066
epoch: 1000
next table: 1577
cur table: 1589
epoch: 1000
next table: 2066
cur table: 2061
epoch: 1000
next table: 1594
cur table: 1577
epoch: 1000
next table: 2066
cur table: 2066
epoch: 1000
next table: 1555
cur table: 1594
epoch: 1000
next table: 2066
cur table: 2066
epoch: 1000
next table: 1582
cur table: 1555
epoch: 1000
next table: 2064
cur table: 2066
epoch: 1000
next table: 1593
cur table: 1582
epoch: 1000
next table: 2067
cur table: 2064
epoch: 1000
next table: 1574
cur table: 1593
epoch: 1000
next table: 2067
cur table: 2067
epoch: 1000
next table: 1568
cur table: 1574
epoch: 1000
next table: 2062
cur table: 2067
epoch: 1000
next table: 1579
cur table: 1568
epoch: 1000
next table: 2056
cur table: 2062
epoch: 1000
next table: 1575
cur table: 1579
epoch: 1000
next table: 2062
cur table: 2056
epoch: 1000
next table: 1588
cur table: 1575
epoch: 1000
next table: 2069
cur table: 2062
epoch: 1000
next table: 1579
cur table: 1588
epoch: 1000
next table: 2067
cur table: 2069
epoch: 1000
next table: 1563
cur table: 1579
epoch: 1000
next table: 2061
cur table: 2067
epoch: 1000
next table: 1576
cur table: 1563
epoch: 1000
next table: 2062
cur table: 2061
epoch: 1000
next table: 1566
cur table: 1576
epoch: 1000
next table: 2063
cur table: 2062
epoch: 1000
next table: 1578
cur table: 1566
epoch: 1000
next table: 2067
cur table: 2063
epoch: 1000
next table: 1584
cur table: 1578
epoch: 1000
next table: 2062
cur table: 2067
epoch: 1000
next table: 1573
cur table: 1584
epoch: 1000
next table: 2065
cur table: 2062
epoch: 1000
next table: 1563
cur table: 1573
epoch: 1000
next table: 2063
cur table: 2065
epoch: 1000
next table: 1571
cur table: 1563
epoch: 1000
next table: 2069
cur table: 2063
epoch: 1000
next table: 1574
cur table: 1571
epoch: 1000
next table: 2063
cur table: 2069
epoch: 1000
next table: 1587
cur table: 1574
epoch: 1000
next table: 2063
cur table: 2063
epoch: 1000
next table: 1596
cur table: 1587
epoch: 1000
next table: 2068
cur table: 2063
epoch: 1000
next table: 1565
cur table: 1596
epoch: 1000
next table: 2061
cur table: 2068
epoch: 1000
next table: 1556
cur table: 1565
epoch: 1000
next table: 2062
cur table: 2061
epoch: 1000
next table: 1589
cur table: 1556
epoch: 1000
next table: 2064
cur table: 2062
epoch: 1000
next table: 1570
cur table: 1589
epoch: 1000
next table: 2065
cur table: 2064
epoch: 1000
next table: 1591
cur table: 1570
epoch: 1000
next table: 2069
cur table: 2065
epoch: 1000
next table: 1588
cur table: 1591
epoch: 1000
next table: 2058
cur table: 2069
epoch: 1000
next table: 1583
cur table: 1588
epoch: 1000
next table: 2067
cur table: 2058
epoch: 1000
next table: 1599
cur table: 1583
epoch: 1000
next table: 2060
cur table: 2067
epoch: 1000
next table: 1563
cur table: 1599
epoch: 1000
next table: 2063
cur table: 2060
epoch: 1000
next table: 1580
cur table: 1563
epoch: 1000
next table: 2064
cur table: 2063
epoch: 1000
next table: 1584
cur table: 1580
epoch: 1000
next table: 2069
cur table: 2064
epoch: 1000
next table: 1588
cur table: 1584
epoch: 1000
next table: 2058
cur table: 2069
epoch: 1000
next table: 1550
cur table: 1588
epoch: 1000
next table: 2069
cur table: 2058
epoch: 1000
next table: 1590
cur table: 1550
epoch: 1000
next table: 2060
cur table: 2069
epoch: 1000
next table: 1596
cur table: 1590
epoch: 1000
next table: 2065
cur table: 2060
epoch: 1000
next table: 1570
cur table: 1596
epoch: 1000
next table: 2067
cur table: 2065
epoch: 1000
next table: 1599
cur table: 1570
epoch: 1000
next table: 2063
cur table: 2067
epoch: 1000
next table: 1553
cur table: 1599
epoch: 1000
next table: 2052
cur table: 2063
epoch: 1000
next table: 1566
cur table: 1553
epoch: 1000
next table: 2068
cur table: 2052
epoch: 1000
next table: 1584
cur table: 1566
epoch: 1000
next table: 2059
cur table: 2068
epoch: 1000
next table: 1580
cur table: 1584
epoch: 1000
next table: 2062
cur table: 2059
epoch: 1000
next table: 1590
cur table: 1580
epoch: 1000
next table: 2063
cur table: 2062
epoch: 1000
next table: 1576
cur table: 1590
epoch: 1000
next table: 2068
cur table: 2063
epoch: 1000
next table: 1551
cur table: 1576
epoch: 1000
next table: 2063
cur table: 2068
epoch: 1000
next table: 1590
cur table: 1551
epoch: 1000
next table: 2064
cur table: 2063
epoch: 1000
next table: 1589
cur table: 1590
epoch: 1000
next table: 2066
cur table: 2064
epoch: 1000
next table: 1547
cur table: 1589
epoch: 1000
next table: 2064
cur table: 2066
epoch: 1000
next table: 1584
cur table: 1547
epoch: 1000
next table: 2065
cur table: 2064
epoch: 1000
next table: 1591
cur table: 1584
epoch: 1000
next table: 2068
cur table: 2065
epoch: 1000
next table: 1579
cur table: 1591
epoch: 1000
next table: 2062
cur table: 2068
epoch: 1000
next table: 1562
cur table: 1579
epoch: 1000
next table: 2069
cur table: 2062
epoch: 1000
next table: 1550
cur table: 1562
epoch: 1000
next table: 2058
cur table: 2069
epoch: 1000
next table: 1574
cur table: 1550
epoch: 1000
next table: 2068
cur table: 2058
epoch: 1000
next table: 1547
cur table: 1574
epoch: 1000
next table: 2060
cur table: 2068
epoch: 1000
next table: 1585
cur table: 1547
epoch: 1000
next table: 2063
cur table: 2060
epoch: 1000
next table: 1570
cur table: 1585
epoch: 1000
next table: 2064
cur table: 2063
epoch: 1000
next table: 1577
cur table: 1570
epoch: 1000
next table: 2068
cur table: 2064
epoch: 1000
next table: 1575
cur table: 1577
epoch: 1000
next table: 2062
cur table: 2068
epoch: 1000
next table: 1589
cur table: 1575
epoch: 1000
next table: 2069
cur table: 2062
epoch: 1000
next table: 1584
cur table: 1589
epoch: 1000
next table: 2062
cur table: 2069
epoch: 1000
next table: 1556
cur table: 1584
Heartbeat CPU 0 instructions: 10000001 cycles: 3313172 heartbeat IPC: 3.01826 cumulative IPC: 3.01826 (Simulation time: 0 hr 2 min 58 sec) 
epoch: 1000
next table: 2064
cur table: 2062
epoch: 1000
next table: 1566
cur table: 1556
epoch: 1000
next table: 2059
cur table: 2064
epoch: 1000
next table: 1576
cur table: 1566
epoch: 1000
next table: 2062
cur table: 2059
epoch: 1000
next table: 1597
cur table: 1576
epoch: 1000
next table: 2061
cur table: 2062
epoch: 1000
next table: 1588
cur table: 1597
epoch: 1000
next table: 2062
cur table: 2061
epoch: 1000
next table: 1551
cur table: 1588
epoch: 1000
next table: 2059
cur table: 2062
epoch: 1000
next table: 1566
cur table: 1551
epoch: 1000
next table: 2066
cur table: 2059
epoch: 1000
next table: 1581
cur table: 1566
epoch: 1000
next table: 2060
cur table: 2066
epoch: 1000
next table: 1573
cur table: 1581
epoch: 1000
next table: 2059
cur table: 2060
epoch: 1000
next table: 1593
cur table: 1573
epoch: 1000
next table: 2063
cur table: 2059
epoch: 1000
next table: 1588
cur table: 1593
epoch: 1000
next table: 2066
cur table: 2063
epoch: 1000
next table: 1597
cur table: 1588
epoch: 1000
next table: 2064
cur table: 2066
epoch: 1000
next table: 1565
cur table: 1597
epoch: 1000
next table: 2066
cur table: 2064
epoch: 1000
next table: 1582
cur table: 1565
epoch: 1000
next table: 2061
cur table: 2066
epoch: 1000
next table: 1553
cur table: 1582
epoch: 1000
next table: 2063
cur table: 2061
epoch: 1000
next table: 1559
cur table: 1553
epoch: 1000
next table: 2061
cur table: 2063
epoch: 1000
next table: 1561
cur table: 1559
epoch: 1000
next table: 2062
cur table: 2061
epoch: 1000
next table: 1564
cur table: 1561
epoch: 1000
next table: 2061
cur table: 2062
epoch: 1000
next table: 1586
cur table: 1564
epoch: 1000
next table: 2071
cur table: 2061
epoch: 1000
next table: 1598
cur table: 1586
epoch: 1000
next table: 2063
cur table: 2071
epoch: 1000
next table: 1571
cur table: 1598
epoch: 1000
next table: 2068
cur table: 2063
epoch: 1000
next table: 1587
cur table: 1571
epoch: 1000
next table: 2059
cur table: 2068
epoch: 1000
next table: 1573
cur table: 1587
epoch: 1000
next table: 2069
cur table: 2059
epoch: 1000
next table: 1577
cur table: 1573
epoch: 1000
next table: 2064
cur table: 2069
epoch: 1000
next table: 1589
cur table: 1577
epoch: 1000
next table: 2065
cur table: 2064
epoch: 1000
next table: 1560
cur table: 1589
epoch: 1000
next table: 2065
cur table: 2065
epoch: 1000
next table: 1565
cur table: 1560
epoch: 1000
next table: 2065
cur table: 2065
epoch: 1000
next table: 1553
cur table: 1565
epoch: 1000
next table: 2064
cur table: 2065
epoch: 1000
next table: 1583
cur table: 1553
epoch: 1000
next table: 2058
cur table: 2064
epoch: 1000
next table: 1595
cur table: 1583
epoch: 1000
next table: 2056
cur table: 2058
epoch: 1000
next table: 1582
cur table: 1595
epoch: 1000
next table: 2066
cur table: 2056
epoch: 1000
next table: 1584
cur table: 1582
epoch: 1000
next table: 2065
cur table: 2066
epoch: 1000
next table: 1563
cur table: 1584
epoch: 1000
next table: 2065
cur table: 2065
epoch: 1000
next table: 1555
cur table: 1563
epoch: 1000
next table: 2068
cur table: 2065
epoch: 1000
next table: 1595
cur table: 1555
epoch: 1000
next table: 2058
cur table: 2068
epoch: 1000
next table: 1581
cur table: 1595
epoch: 1000
next table: 2065
cur table: 2058
epoch: 1000
next table: 1584
cur table: 1581
epoch: 1000
next table: 2068
cur table: 2065
epoch: 1000
next table: 1568
cur table: 1584
epoch: 1000
next table: 2058
cur table: 2068
epoch: 1000
next table: 1582
cur table: 1568
epoch: 1000
next table: 2071
cur table: 2058
epoch: 1000
next table: 1548
cur table: 1582
epoch: 1000
next table: 2057
cur table: 2071
epoch: 1000
next table: 1596
cur table: 1548
epoch: 1000
next table: 2069
cur table: 2057
epoch: 1000
next table: 1579
cur table: 1596
epoch: 1000
next table: 2063
cur table: 2069
epoch: 1000
next table: 1599
cur table: 1579
epoch: 1000
next table: 2066
cur table: 2063
epoch: 1000
next table: 1579
cur table: 1599
epoch: 1000
next table: 2063
cur table: 2066
epoch: 1000
next table: 1585
cur table: 1579
epoch: 1000
next table: 2070
cur table: 2063
epoch: 1000
next table: 1552
cur table: 1585
epoch: 1000
next table: 2062
cur table: 2070
epoch: 1000
next table: 1606
cur table: 1552
epoch: 1000
next table: 2066
cur table: 2062
epoch: 1000
next table: 1581
cur table: 1606
epoch: 1000
next table: 2063
cur table: 2066
epoch: 1000
next table: 1578
cur table: 1581
epoch: 1000
next table: 2060
cur table: 2063
epoch: 1000
next table: 1596
cur table: 1578
epoch: 1000
next table: 2064
cur table: 2060
epoch: 1000
next table: 1565
cur table: 1596
epoch: 1000
next table: 2064
cur table: 2064
epoch: 1000
next table: 1603
cur table: 1565
epoch: 1000
next table: 2068
cur table: 2064
epoch: 1000
next table: 1565
cur table: 1603
epoch: 1000
next table: 2063
cur table: 2068
epoch: 1000
next table: 1568
cur table: 1565
epoch: 1000
next table: 2060
cur table: 2063
epoch: 1000
next table: 1568
cur table: 1568
epoch: 1000
next table: 2067
cur table: 2060
epoch: 1000
next table: 1576
cur table: 1568
epoch: 1000
next table: 2064
cur table: 2067
epoch: 1000
next table: 1592
cur table: 1576
epoch: 1000
next table: 2063
cur table: 2064
epoch: 1000
next table: 1568
cur table: 1592
epoch: 1000
next table: 2061
cur table: 2063
epoch: 1000
next table: 1561
cur table: 1568
epoch: 1000
next table: 2072
cur table: 2061
epoch: 1000
next table: 1579
cur table: 1561
epoch: 1000
next table: 2063
cur table: 2072
epoch: 1000
next table: 1583
cur table: 1579
epoch: 1000
next table: 2064
cur table: 2063
epoch: 1000
next table: 1563
cur table: 1583
epoch: 1000
next table: 2059
cur table: 2064
epoch: 1000
next table: 1574
cur table: 1563
epoch: 1000
next table: 2072
cur table: 2059
epoch: 1000
next table: 1583
cur table: 1574
epoch: 1000
next table: 2062
cur table: 2072
epoch: 1000
next table: 1593
cur table: 1583
epoch: 1000
next table: 2065
cur table: 2062
epoch: 1000
next table: 1570
cur table: 1593
epoch: 1000
next table: 2064
cur table: 2065
epoch: 1000
next table: 1590
cur table: 1570
epoch: 1000
next table: 2063
cur table: 2064
epoch: 1000
next table: 1574
cur table: 1590
epoch: 1000
next table: 2064
cur table: 2063
epoch: 1000
next table: 1576
cur table: 1574
epoch: 1000
next table: 2064
cur table: 2064
epoch: 1000
next table: 1577
cur table: 1576
epoch: 1000
next table: 2062
cur table: 2064
epoch: 1000
next table: 1562
cur table: 1577
epoch: 1000
next table: 2066
cur table: 2062
epoch: 1000
next table: 1575
cur table: 1562
epoch: 1000
next table: 2060
cur table: 2066
epoch: 1000
next table: 1572
cur table: 1575
epoch: 1000
next table: 2064
cur table: 2060
epoch: 1000
next table: 1562
cur table: 1572
epoch: 1000
next table: 2060
cur table: 2064
epoch: 1000
next table: 1585
cur table: 1562
epoch: 1000
next table: 2063
cur table: 2060
epoch: 1000
next table: 1572
cur table: 1585
epoch: 1000
next table: 2068
cur table: 2063
epoch: 1000
next table: 1579
cur table: 1572
epoch: 1000
next table: 2063
cur table: 2068
epoch: 1000
next table: 1575
cur table: 1579
epoch: 1000
next table: 2059
cur table: 2063
epoch: 1000
next table: 1565
cur table: 1575
epoch: 1000
next table: 2068
cur table: 2059
epoch: 1000
next table: 1572
cur table: 1565
epoch: 1000
next table: 2062
cur table: 2068
epoch: 1000
next table: 1571
cur table: 1572
epoch: 1000
next table: 2065
cur table: 2062
epoch: 1000
next table: 1568
cur table: 1571
epoch: 1000
next table: 2061
cur table: 2065
epoch: 1000
next table: 1574
cur table: 1568
epoch: 1000
next table: 2069
cur table: 2061
epoch: 1000
next table: 1586
cur table: 1574
epoch: 1000
next table: 2063
cur table: 2069
epoch: 1000
next table: 1577
cur table: 1586
epoch: 1000
next table: 2065
cur table: 2063
epoch: 1000
next table: 1568
cur table: 1577
epoch: 1000
next table: 2062
cur table: 2065
epoch: 1000
next table: 1580
cur table: 1568
epoch: 1000
next table: 2058
cur table: 2062
epoch: 1000
next table: 1540
cur table: 1580
epoch: 1000
next table: 2066
cur table: 2058
epoch: 1000
next table: 1582
cur table: 1540
epoch: 1000
next table: 2068
cur table: 2066
epoch: 1000
next table: 1583
cur table: 1582
epoch: 1000
next table: 2059
cur table: 2068
epoch: 1000
next table: 1565
cur table: 1583
epoch: 1000
next table: 2065
cur table: 2059
epoch: 1000
next table: 1601
cur table: 1565
epoch: 1000
next table: 2060
cur table: 2065
epoch: 1000
next table: 1577
cur table: 1601
epoch: 1000
next table: 2065
cur table: 2060
epoch: 1000
next table: 1590
cur table: 1577
epoch: 1000
next table: 2060
cur table: 2065
epoch: 1000
next table: 1574
cur table: 1590
epoch: 1000
next table: 2064
cur table: 2060
epoch: 1000
next table: 1579
cur table: 1574
epoch: 1000
next table: 2066
cur table: 2064
epoch: 1000
next table: 1589
cur table: 1579
epoch: 1000
next table: 2061
cur table: 2066
epoch: 1000
next table: 1599
cur table: 1589
epoch: 1000
next table: 2063
cur table: 2061
epoch: 1000
next table: 1567
cur table: 1599
epoch: 1000
next table: 2069
cur table: 2063
epoch: 1000
next table: 1551
cur table: 1567
epoch: 1000
next table: 2064
cur table: 2069
epoch: 1000
next table: 1555
cur table: 1551
epoch: 1000
next table: 2063
cur table: 2064
epoch: 1000
next table: 1581
cur table: 1555
epoch: 1000
next table: 2065
cur table: 2063
epoch: 1000
next table: 1571
cur table: 1581
epoch: 1000
next table: 2063
cur table: 2065
epoch: 1000
next table: 1561
cur table: 1571
epoch: 1000
next table: 2062
cur table: 2063
epoch: 1000
next table: 1575
cur table: 1561
epoch: 1000
next table: 2067
cur table: 2062
epoch: 1000
next table: 1554
cur table: 1575
epoch: 1000
next table: 2062
cur table: 2067
epoch: 1000
next table: 1584
cur table: 1554
epoch: 1000
next table: 2064
cur table: 2062
epoch: 1000
next table: 1570
cur table: 1584
epoch: 1000
next table: 2065
cur table: 2064
epoch: 1000
next table: 1575
cur table: 1570
epoch: 1000
next table: 2065
cur table: 2065
epoch: 1000
next table: 1572
cur table: 1575
epoch: 1000
next table: 2064
cur table: 2065
epoch: 1000
next table: 1572
cur table: 1572
epoch: 1000
next table: 2064
cur table: 2064
epoch: 1000
next table: 1573
cur table: 1572
epoch: 1000
next table: 2061
cur table: 2064
epoch: 1000
next table: 1560
cur table: 1573
epoch: 1000
next table: 2066
cur table: 2061
epoch: 1000
next table: 1569
cur table: 1560
epoch: 1000
next table: 2062
cur table: 2066
epoch: 1000
next table: 1591
cur table: 1569
epoch: 1000
next table: 2064
cur table: 2062
epoch: 1000
next table: 1573
cur table: 1591
epoch: 1000
next table: 2066
cur table: 2064
epoch: 1000
next table: 1596
cur table: 1573
epoch: 1000
next table: 2065
cur table: 2066
epoch: 1000
next table: 1584
cur table: 1596
epoch: 1000
next table: 2064
cur table: 2065
epoch: 1000
next table: 1555
cur table: 1584
epoch: 1000
next table: 2065
cur table: 2064
epoch: 1000
next table: 1576
cur table: 1555
epoch: 1000
next table: 2064
cur table: 2065
epoch: 1000
next table: 1571
cur table: 1576
epoch: 1000
next table: 2067
cur table: 2064
epoch: 1000
next table: 1581
cur table: 1571
epoch: 1000
next table: 2055
cur table: 2067
epoch: 1000
next table: 1582
cur table: 1581
epoch: 1000
next table: 2064
cur table: 2055
epoch: 1000
next table: 1560
cur table: 1582
epoch: 1000
next table: 2062
cur table: 2064
epoch: 1000
next table: 1580
cur table: 1560
epoch: 1000
next table: 2070
cur table: 2062
epoch: 1000
next table: 1580
cur table: 1580
epoch: 1000
next table: 2057
cur table: 2070
epoch: 1000
next table: 1595
cur table: 1580
epoch: 1000
next table: 2068
cur table: 2057
epoch: 1000
next table: 1581
cur table: 1595
epoch: 1000
next table: 2062
cur table: 2068
epoch: 1000
next table: 1584
cur table: 1581
epoch: 1000
next table: 2073
cur table: 2062
epoch: 1000
next table: 1596
cur table: 1584
epoch: 1000
next table: 2059
cur table: 2073
epoch: 1000
next table: 1550
cur table: 1596
epoch: 1000
next table: 2063
cur table: 2059
epoch: 1000
next table: 1597
cur table: 1550
epoch: 1000
next table: 2064
cur table: 2063
epoch: 1000
next table: 1565
cur table: 1597
epoch: 1000
next table: 2061
cur table: 2064
epoch: 1000
next table: 1568
cur table: 1565
epoch: 1000
next table: 2071
cur table: 2061
epoch: 1000
next table: 1597
cur table: 1568
epoch: 1000
next table: 2057
cur table: 2071
epoch: 1000
next table: 1571
cur table: 1597
epoch: 1000
next table: 2054
cur table: 2057
epoch: 1000
next table: 1565
cur table: 1571
epoch: 1000
next table: 2062
cur table: 2054
epoch: 1000
next table: 1573
cur table: 1565
epoch: 1000
next table: 2066
cur table: 2062
epoch: 1000
next table: 1592
cur table: 1573
epoch: 1000
next table: 2060
cur table: 2066
epoch: 1000
next table: 1584
cur table: 1592
epoch: 1000
next table: 2064
cur table: 2060
epoch: 1000
next table: 1556
cur table: 1584
epoch: 1000
next table: 2064
cur table: 2064
epoch: 1000
next table: 1583
cur table: 1556
epoch: 1000
next table: 2072
cur table: 2064
epoch: 1000
next table: 1577
cur table: 1583
epoch: 1000
next table: 2051
cur table: 2072
epoch: 1000
next table: 1585
cur table: 1577
epoch: 1000
next table: 2062
cur table: 2051
epoch: 1000
next table: 1557
cur table: 1585
epoch: 1000
next table: 2064
cur table: 2062
epoch: 1000
next table: 1544
cur table: 1557
epoch: 1000
next table: 2059
cur table: 2064
epoch: 1000
next table: 1586
cur table: 1544
epoch: 1000
next table: 2065
cur table: 2059
epoch: 1000
next table: 1564
cur table: 1586
epoch: 1000
next table: 2063
cur table: 2065
epoch: 1000
next table: 1587
cur table: 1564
epoch: 1000
next table: 2062
cur table: 2063
epoch: 1000
next table: 1576
cur table: 1587
epoch: 1000
next table: 2065
cur table: 2062
epoch: 1000
next table: 1568
cur table: 1576
epoch: 1000
next table: 2068
cur table: 2065
epoch: 1000
next table: 1575
cur table: 1568
epoch: 1000
next table: 2062
cur table: 2068
epoch: 1000
next table: 1610
cur table: 1575
epoch: 1000
next table: 2060
cur table: 2062
epoch: 1000
next table: 1572
cur table: 1610
epoch: 1000
next table: 2064
cur table: 2060
epoch: 1000
next table: 1592
cur table: 1572
epoch: 1000
next table: 2065
cur table: 2064
epoch: 1000
next table: 1556
cur table: 1592
epoch: 1000
next table: 2064
cur table: 2065
epoch: 1000
next table: 1611
cur table: 1556
epoch: 1000
next table: 2063
cur table: 2064
epoch: 1000
next table: 1598
cur table: 1611
epoch: 1000
next table: 2064
cur table: 2063
epoch: 1000
next table: 1549
cur table: 1598
epoch: 1000
next table: 2065
cur table: 2064
epoch: 1000
next table: 1576
cur table: 1549
epoch: 1000
next table: 2065
cur table: 2065
epoch: 1000
next table: 1557
cur table: 1576
epoch: 1000
next table: 2065
cur table: 2065
epoch: 1000
next table: 1591
cur table: 1557
epoch: 1000
next table: 2068
cur table: 2065
epoch: 1000
next table: 1582
cur table: 1591
epoch: 1000
next table: 2058
cur table: 2068
epoch: 1000
next table: 1553
cur table: 1582
epoch: 1000
next table: 2069
cur table: 2058
epoch: 1000
next table: 1560
cur table: 1553
epoch: 1000
next table: 2061
cur table: 2069
epoch: 1000
next table: 1569
cur table: 1560
epoch: 1000
next table: 2066
cur table: 2061
epoch: 1000
next table: 1587
cur table: 1569
epoch: 1000
next table: 2052
cur table: 2066
epoch: 1000
next table: 1574
cur table: 1587
epoch: 1000
next table: 2066
cur table: 2052
epoch: 1000
next table: 1587
cur table: 1574
epoch: 1000
next table: 2059
cur table: 2066
epoch: 1000
next table: 1567
cur table: 1587
epoch: 1000
next table: 2066
cur table: 2059
epoch: 1000
next table: 1602
cur table: 1567
epoch: 1000
next table: 2063
cur table: 2066
epoch: 1000
next table: 1576
cur table: 1602
epoch: 1000
next table: 2061
cur table: 2063
epoch: 1000
next table: 1587
cur table: 1576
epoch: 1000
next table: 2060
cur table: 2061
epoch: 1000
next table: 1569
cur table: 1587
epoch: 1000
next table: 2067
cur table: 2060
epoch: 1000
next table: 1573
cur table: 1569
epoch: 1000
next table: 2065
cur table: 2067
epoch: 1000
next table: 1589
cur table: 1573
epoch: 1000
next table: 2066
cur table: 2065
epoch: 1000
next table: 1578
cur table: 1589
epoch: 1000
next table: 2062
cur table: 2066
epoch: 1000
next table: 1582
cur table: 1578
epoch: 1000
next table: 2064
cur table: 2062
epoch: 1000
next table: 1556
cur table: 1582
epoch: 1000
next table: 2064
cur table: 2064
epoch: 1000
next table: 1554
cur table: 1556
epoch: 1000
next table: 2065
cur table: 2064
epoch: 1000
next table: 1576
cur table: 1554
epoch: 1000
next table: 2063
cur table: 2065
epoch: 1000
next table: 1573
cur table: 1576
epoch: 1000
next table: 2063
cur table: 2063
epoch: 1000
next table: 1562
cur table: 1573
epoch: 1000
next table: 2060
cur table: 2063
epoch: 1000
next table: 1574
cur table: 1562
epoch: 1000
next table: 2067
cur table: 2060
epoch: 1000
next table: 1589
cur table: 1574
epoch: 1000
next table: 2060
cur table: 2067
epoch: 1000
next table: 1592
cur table: 1589
epoch: 1000
next table: 2060
cur table: 2060
epoch: 1000
next table: 1591
cur table: 1592
epoch: 1000
next table: 2065
cur table: 2060
epoch: 1000
next table: 1560
cur table: 1591
epoch: 1000
next table: 2060
cur table: 2065
epoch: 1000
next table: 1558
cur table: 1560
epoch: 1000
next table: 2060
cur table: 2060
epoch: 1000
next table: 1575
cur table: 1558
epoch: 1000
next table: 2062
cur table: 2060
epoch: 1000
next table: 1563
cur table: 1575
epoch: 1000
next table: 2051
cur table: 2062
Heartbeat CPU 0 instructions: 20000003 cycles: 6626428 heartbeat IPC: 3.01818 cumulative IPC: 3.01822 (Simulation time: 0 hr 5 min 54 sec) 
epoch: 1000
next table: 1562
cur table: 1563
epoch: 1000
next table: 2069
cur table: 2051
epoch: 1000
next table: 1563
cur table: 1562
epoch: 1000
next table: 2065
cur table: 2069
epoch: 1000
next table: 1575
cur table: 1563
epoch: 1000
next table: 2062
cur table: 2065
epoch: 1000
next table: 1585
cur table: 1575
epoch: 1000
next table: 2059
cur table: 2062
epoch: 1000
next table: 1556
cur table: 1585
epoch: 1000
next table: 2067
cur table: 2059
epoch: 1000
next table: 1583
cur table: 1556
epoch: 1000
next table: 2051
cur table: 2067
epoch: 1000
next table: 1553
cur table: 1583
epoch: 1000
next table: 2066
cur table: 2051
epoch: 1000
next table: 1593
cur table: 1553
epoch: 1000
next table: 2057
cur table: 2066
epoch: 1000
next table: 1569
cur table: 1593
epoch: 1000
next table: 2058
cur table: 2057
epoch: 1000
next table: 1555
cur table: 1569
epoch: 1000
next table: 2058
cur table: 2058
epoch: 1000
next table: 1582
cur table: 1555
epoch: 1000
next table: 2068
cur table: 2058
epoch: 1000
next table: 1576
cur table: 1582
epoch: 1000
next table: 2055
cur table: 2068
epoch: 1000
next table: 1568
cur table: 1576
epoch: 1000
next table: 2067
cur table: 2055
epoch: 1000
next table: 1582
cur table: 1568
epoch: 1000
next table: 2060
cur table: 2067
epoch: 1000
next table: 1554
cur table: 1582
epoch: 1000
next table: 2065
cur table: 2060
epoch: 1000
next table: 1578
cur table: 1554
epoch: 1000
next table: 2061
cur table: 2065
epoch: 1000
next table: 1578
cur table: 1578
epoch: 1000
next table: 2070
cur table: 2061
epoch: 1000
next table: 1574
cur table: 1578
epoch: 1000
next table: 2063
cur table: 2070
epoch: 1000
next table: 1579
cur table: 1574
epoch: 1000
next table: 2066
cur table: 2063
epoch: 1000
next table: 1580
cur table: 1579
epoch: 1000
next table: 2060
cur table: 2066
epoch: 1000
next table: 1582
cur table: 1580
epoch: 1000
next table: 2065
cur table: 2060
epoch: 1000
next table: 1560
cur table: 1582
epoch: 1000
next table: 2058
cur table: 2065
epoch: 1000
next table: 1576
cur table: 1560
epoch: 1000
next table: 2067
cur table: 2058
epoch: 1000
next table: 1550
cur table: 1576
epoch: 1000
next table: 2067
cur table: 2067
epoch: 1000
next table: 1564
cur table: 1550
epoch: 1000
next table: 2064
cur table: 2067
epoch: 1000
next table: 1583
cur table: 1564
epoch: 1000
next table: 2063
cur table: 2064
epoch: 1000
next table: 1557
cur table: 1583
epoch: 1000
next table: 2059
cur table: 2063
epoch: 1000
next table: 1580
cur table: 1557
epoch: 1000
next table: 2063
cur table: 2059
epoch: 1000
next table: 1567
cur table: 1580
epoch: 1000
next table: 2062
cur table: 2063
epoch: 1000
next table: 1583
cur table: 1567
epoch: 1000
next table: 2066
cur table: 2062
epoch: 1000
next table: 1566
cur table: 1583
epoch: 1000
next table: 2062
cur table: 2066
epoch: 1000
next table: 1561
cur table: 1566
epoch: 1000
next table: 2054
cur table: 2062
epoch: 1000
next table: 1546
cur table: 1561
epoch: 1000
next table: 2067
cur table: 2054
epoch: 1000
next table: 1554
cur table: 1546
epoch: 1000
next table: 2064
cur table: 2067
epoch: 1000
next table: 1571
cur table: 1554
epoch: 1000
next table: 2063
cur table: 2064
epoch: 1000
next table: 1549
cur table: 1571
epoch: 1000
next table: 2064
cur table: 2063
epoch: 1000
next table: 1583
cur table: 1549
epoch: 1000
next table: 2065
cur table: 2064
epoch: 1000
next table: 1570
cur table: 1583
epoch: 1000
next table: 2061
cur table: 2065
epoch: 1000
next table: 1577
cur table: 1570
epoch: 1000
next table: 2065
cur table: 2061
epoch: 1000
next table: 1576
cur table: 1577
epoch: 1000
next table: 2061
cur table: 2065
epoch: 1000
next table: 1555
cur table: 1576
epoch: 1000
next table: 2070
cur table: 2061
epoch: 1000
next table: 1540
cur table: 1555
epoch: 1000
next table: 2061
cur table: 2070
epoch: 1000
next table: 1559
cur table: 1540
epoch: 1000
next table: 2067
cur table: 2061
epoch: 1000
next table: 1581
cur table: 1559
epoch: 1000
next table: 2056
cur table: 2067
epoch: 1000
next table: 1589
cur table: 1581
epoch: 1000
next table: 2056
cur table: 2056
epoch: 1000
next table: 1585
cur table: 1589
epoch: 1000
next table: 2062
cur table: 2056
epoch: 1000
next table: 1579
cur table: 1585
epoch: 1000
next table: 2068
cur table: 2062
epoch: 1000
next table: 1562
cur table: 1579
epoch: 1000
next table: 2059
cur table: 2068
epoch: 1000
next table: 1582
cur table: 1562
epoch: 1000
next table: 2066
cur table: 2059
epoch: 1000
next table: 1590
cur table: 1582
epoch: 1000
next table: 2058
cur table: 2066
epoch: 1000
next table: 1576
cur table: 1590
epoch: 1000
next table: 2065
cur table: 2058
epoch: 1000
next table: 1591
cur table: 1576
epoch: 1000
next table: 2065
cur table: 2065
epoch: 1000
next table: 1585
cur table: 1591
epoch: 1000
next table: 2066
cur table: 2065
epoch: 1000
next table: 1582
cur table: 1585
epoch: 1000
next table: 2058
cur table: 2066
epoch: 1000
next table: 1586
cur table: 1582
epoch: 1000
next table: 2064
cur table: 2058
epoch: 1000
next table: 1567
cur table: 1586
epoch: 1000
next table: 2060
cur table: 2064
epoch: 1000
next table: 1590
cur table: 1567
epoch: 1000
next table: 2069
cur table: 2060
epoch: 1000
next table: 1584
cur table: 1590
epoch: 1000
next table: 2053
cur table: 2069
epoch: 1000
next table: 1553
cur table: 1584
epoch: 1000
next table: 2065
cur table: 2053
epoch: 1000
next table: 1565
cur table: 1553
epoch: 1000
next table: 2066
cur table: 2065
epoch: 1000
next table: 1590
cur table: 1565
epoch: 1000
next table: 2068
cur table: 2066
epoch: 1000
next table: 1585
cur table: 1590
epoch: 1000
next table: 2066
cur table: 2068
epoch: 1000
next table: 1580
cur table: 1585
epoch: 1000
next table: 2057
cur table: 2066
epoch: 1000
next table: 1565
cur table: 1580
epoch: 1000
next table: 2058
cur table: 2057
epoch: 1000
next table: 1578
cur table: 1565
epoch: 1000
next table: 2057
cur table: 2058
epoch: 1000
next table: 1571
cur table: 1578
epoch: 1000
next table: 2060
cur table: 2057
epoch: 1000
next table: 1598
cur table: 1571
epoch: 1000
next table: 2055
cur table: 2060
epoch: 1000
next table: 1586
cur table: 1598
epoch: 1000
next table: 2064
cur table: 2055
epoch: 1000
next table: 1591
cur table: 1586
epoch: 1000
next table: 2064
cur table: 2064
epoch: 1000
next table: 1575
cur table: 1591
epoch: 1000
next table: 2061
cur table: 2064
epoch: 1000
next table: 1564
cur table: 1575
epoch: 1000
next table: 2068
cur table: 2061
epoch: 1000
next table: 1588
cur table: 1564
epoch: 1000
next table: 2058
cur table: 2068
epoch: 1000
next table: 1555
cur table: 1588
epoch: 1000
next table: 2071
cur table: 2058
epoch: 1000
next table: 1571
cur table: 1555
epoch: 1000
next table: 2062
cur table: 2071
epoch: 1000
next table: 1555
cur table: 1571
epoch: 1000
next table: 2056
cur table: 2062
epoch: 1000
next table: 1563
cur table: 1555
epoch: 1000
next table: 2065
cur table: 2056
epoch: 1000
next table: 1570
cur table: 1563
epoch: 1000
next table: 2059
cur table: 2065
epoch: 1000
next table: 1554
cur table: 1570
epoch: 1000
next table: 2064
cur table: 2059
epoch: 1000
next table: 1573
cur table: 1554
epoch: 1000
next table: 2062
cur table: 2064
epoch: 1000
next table: 1557
cur table: 1573
epoch: 1000
next table: 2060
cur table: 2062
epoch: 1000
next table: 1562
cur table: 1557
epoch: 1000
next table: 2070
cur table: 2060
epoch: 1000
next table: 1574
cur table: 1562
epoch: 1000
next table: 2061
cur table: 2070
epoch: 1000
next table: 1533
cur table: 1574
epoch: 1000
next table: 2066
cur table: 2061
epoch: 1000
next table: 1568
cur table: 1533
epoch: 1000
next table: 2057
cur table: 2066
epoch: 1000
next table: 1591
cur table: 1568
epoch: 1000
next table: 2053
cur table: 2057
epoch: 1000
next table: 1571
cur table: 1591
epoch: 1000
next table: 2064
cur table: 2053
epoch: 1000
next table: 1580
cur table: 1571
epoch: 1000
next table: 2058
cur table: 2064
epoch: 1000
next table: 1552
cur table: 1580
epoch: 1000
next table: 2065
cur table: 2058
epoch: 1000
next table: 1598
cur table: 1552
epoch: 1000
next table: 2068
cur table: 2065
epoch: 1000
next table: 1572
cur table: 1598
epoch: 1000
next table: 2061
cur table: 2068
epoch: 1000
next table: 1566
cur table: 1572
epoch: 1000
next table: 2069
cur table: 2061
epoch: 1000
next table: 1563
cur table: 1566
epoch: 1000
next table: 2064
cur table: 2069
epoch: 1000
next table: 1575
cur table: 1563
epoch: 1000
next table: 2062
cur table: 2064
epoch: 1000
next table: 1563
cur table: 1575
epoch: 1000
next table: 2069
cur table: 2062
epoch: 1000
next table: 1586
cur table: 1563
epoch: 1000
next table: 2054
cur table: 2069
epoch: 1000
next table: 1562
cur table: 1586
epoch: 1000
next table: 2062
cur table: 2054
epoch: 1000
next table: 1564
cur table: 1562
epoch: 1000
next table: 2063
cur table: 2062
epoch: 1000
next table: 1566
cur table: 1564
epoch: 1000
next table: 2063
cur table: 2063
epoch: 1000
next table: 1584
cur table: 1566
epoch: 1000
next table: 2069
cur table: 2063
epoch: 1000
next table: 1585
cur table: 1584
epoch: 1000
next table: 2058
cur table: 2069
epoch: 1000
next table: 1584
cur table: 1585
epoch: 1000
next table: 2071
cur table: 2058
epoch: 1000
next table: 1572
cur table: 1584
epoch: 1000
next table: 2051
cur table: 2071
epoch: 1000
next table: 1568
cur table: 1572
epoch: 1000
next table: 2069
cur table: 2051
epoch: 1000
next table: 1590
cur table: 1568
epoch: 1000
next table: 2057
cur table: 2069
epoch: 1000
next table: 1571
cur table: 1590
epoch: 1000
next table: 2065
cur table: 2057
epoch: 1000
next table: 1588
cur table: 1571
epoch: 1000
next table: 2064
cur table: 2065
epoch: 1000
next table: 1570
cur table: 1588
epoch: 1000
next table: 2064
cur table: 2064
epoch: 1000
next table: 1584
cur table: 1570
epoch: 1000
next table: 2065
cur table: 2064
epoch: 1000
next table: 1570
cur table: 1584
epoch: 1000
next table: 2065
cur table: 2065
epoch: 1000
next table: 1599
cur table: 1570
epoch: 1000
next table: 2062
cur table: 2065
epoch: 1000
next table: 1548
cur table: 1599
epoch: 1000
next table: 2067
cur table: 2062
epoch: 1000
next table: 1582
cur table: 1548
epoch: 1000
next table: 2059
cur table: 2067
epoch: 1000
next table: 1582
cur table: 1582
epoch: 1000
next table: 2068
cur table: 2059
epoch: 1000
next table: 1576
cur table: 1582
epoch: 1000
next table: 2062
cur table: 2068
epoch: 1000
next table: 1592
cur table: 1576
epoch: 1000
next table: 2061
cur table: 2062
epoch: 1000
next table: 1571
cur table: 1592
epoch: 1000
next table: 2064
cur table: 2061
epoch: 1000
next table: 1589
cur table: 1571
epoch: 1000
next table: 2063
cur table: 2064
epoch: 1000
next table: 1560
cur table: 1589
epoch: 1000
next table: 2065
cur table: 2063
epoch: 1000
next table: 1592
cur table: 1560
epoch: 1000
next table: 2061
cur table: 2065
epoch: 1000
next table: 1558
cur table: 1592
epoch: 1000
next table: 2064
cur table: 2061
epoch: 1000
next table: 1543
cur table: 1558
epoch: 1000
next table: 2062
cur table: 2064
epoch: 1000
next table: 1575
cur table: 1543
epoch: 1000
next table: 2066
cur table: 2062
epoch: 1000
next table: 1558
cur table: 1575
epoch: 1000
next table: 2064
cur table: 2066
epoch: 1000
next table: 1589
cur table: 1558
epoch: 1000
next table: 2057
cur table: 2064
epoch: 1000
next table: 1554
cur table: 1589
epoch: 1000
next table: 2065
cur table: 2057
epoch: 1000
next table: 1588
cur table: 1554
epoch: 1000
next table: 2065
cur table: 2065
epoch: 1000
next table: 1580
cur table: 1588
epoch: 1000
next table: 2068
cur table: 2065
epoch: 1000
next table: 1559
cur table: 1580
epoch: 1000
next table: 2063
cur table: 2068
epoch: 1000
next table: 1567
cur table: 1559
epoch: 1000
next table: 2068
cur table: 2063
epoch: 1000
next table: 1573
cur table: 1567
epoch: 1000
next table: 2056
cur table: 2068
epoch: 1000
next table: 1573
cur table: 1573
epoch: 1000
next table: 2068
cur table: 2056
epoch: 1000
next table: 1583
cur table: 1573
epoch: 1000
next table: 2053
cur table: 2068
epoch: 1000
next table: 1573
cur table: 1583
epoch: 1000
next table: 2066
cur table: 2053
epoch: 1000
next table: 1584
cur table: 1573
epoch: 1000
next table: 2058
cur table: 2066
epoch: 1000
next table: 1576
cur table: 1584
epoch: 1000
next table: 2066
cur table: 2058
epoch: 1000
next table: 1582
cur table: 1576
epoch: 1000
next table: 2061
cur table: 2066
epoch: 1000
next table: 1588
cur table: 1582
epoch: 1000
next table: 2064
cur table: 2061
epoch: 1000
next table: 1560
cur table: 1588
epoch: 1000
next table: 2068
cur table: 2064
epoch: 1000
next table: 1562
cur table: 1560
epoch: 1000
next table: 2069
cur table: 2068
epoch: 1000
next table: 1576
cur table: 1562
epoch: 1000
next table: 2057
cur table: 2069
epoch: 1000
next table: 1589
cur table: 1576
epoch: 1000
next table: 2065
cur table: 2057
epoch: 1000
next table: 1587
cur table: 1589
epoch: 1000
next table: 2065
cur table: 2065
epoch: 1000
next table: 1537
cur table: 1587
epoch: 1000
next table: 2064
cur table: 2065
epoch: 1000
next table: 1589
cur table: 1537
epoch: 1000
next table: 2067
cur table: 2064
epoch: 1000
next table: 1553
cur table: 1589
epoch: 1000
next table: 2059
cur table: 2067
epoch: 1000
next table: 1582
cur table: 1553
epoch: 1000
next table: 2067
cur table: 2059
epoch: 1000
next table: 1572
cur table: 1582
epoch: 1000
next table: 2067
cur table: 2067
epoch: 1000
next table: 1562
cur table: 1572
epoch: 1000
next table: 2059
cur table: 2067
epoch: 1000
next table: 1565
cur table: 1562
epoch: 1000
next table: 2065
cur table: 2059
epoch: 1000
next table: 1576
cur table: 1565
epoch: 1000
next table: 2059
cur table: 2065
epoch: 1000
next table: 1570
cur table: 1576
epoch: 1000
next table: 2063
cur table: 2059
epoch: 1000
next table: 1587
cur table: 1570
epoch: 1000
next table: 2051
cur table: 2063
epoch: 1000
next table: 1559
cur table: 1587
epoch: 1000
next table: 2061
cur table: 2051
epoch: 1000
next table: 1551
cur table: 1559
epoch: 1000
next table: 2061
cur table: 2061
epoch: 1000
next table: 1553
cur table: 1551
epoch: 1000
next table: 2063
cur table: 2061
epoch: 1000
next table: 1571
cur table: 1553
epoch: 1000
next table: 2059
cur table: 2063
epoch: 1000
next table: 1578
cur table: 1571
epoch: 1000
next table: 2066
cur table: 2059
epoch: 1000
next table: 1580
cur table: 1578
epoch: 1000
next table: 2064
cur table: 2066
epoch: 1000
next table: 1589
cur table: 1580
epoch: 1000
next table: 2064
cur table: 2064
epoch: 1000
next table: 1572
cur table: 1589
epoch: 1000
next table: 2060
cur table: 2064
epoch: 1000
next table: 1583
cur table: 1572
epoch: 1000
next table: 2070
cur table: 2060
epoch: 1000
next table: 1574
cur table: 1583
epoch: 1000
next table: 2060
cur table: 2070
epoch: 1000
next table: 1569
cur table: 1574
epoch: 1000
next table: 2065
cur table: 2060
epoch: 1000
next table: 1581
cur table: 1569
epoch: 1000
next table: 2060
cur table: 2065
epoch: 1000
next table: 1563
cur table: 1581
epoch: 1000
next table: 2068
cur table: 2060
epoch: 1000
next table: 1539
cur table: 1563
epoch: 1000
next table: 2065
cur table: 2068
epoch: 1000
next table: 1585
cur table: 1539
epoch: 1000
next table: 2065
cur table: 2065
epoch: 1000
next table: 1564
cur table: 1585
epoch: 1000
next table: 2050
cur table: 2065
epoch: 1000
next table: 1592
cur table: 1564
epoch: 1000
next table: 2063
cur table: 2050
epoch: 1000
next table: 1562
cur table: 1592
epoch: 1000
next table: 2059
cur table: 2063
epoch: 1000
next table: 1575
cur table: 1562
epoch: 1000
next table: 2071
cur table: 2059
epoch: 1000
next table: 1583
cur table: 1575
epoch: 1000
next table: 2058
cur table: 2071
epoch: 1000
next table: 1574
cur table: 1583
epoch: 1000
next table: 2061
cur table: 2058
epoch: 1000
next table: 1558
cur table: 1574
epoch: 1000
next table: 2062
cur table: 2061
epoch: 1000
next table: 1554
cur table: 1558
epoch: 1000
next table: 2063
cur table: 2062
epoch: 1000
next table: 1573
cur table: 1554
epoch: 1000
next table: 2065
cur table: 2063
epoch: 1000
next table: 1591
cur table: 1573
epoch: 1000
next table: 2060
cur table: 2065
epoch: 1000
next table: 1573
cur table: 1591
epoch: 1000
next table: 2064
cur table: 2060
epoch: 1000
next table: 1581
cur table: 1573
epoch: 1000
next table: 2063
cur table: 2064
epoch: 1000
next table: 1582
cur table: 1581
epoch: 1000
next table: 2059
cur table: 2063
epoch: 1000
next table: 1579
cur table: 1582
epoch: 1000
next table: 2069
cur table: 2059
epoch: 1000
next table: 1580
cur table: 1579
epoch: 1000
next table: 2063
cur table: 2069
epoch: 1000
next table: 1576
cur table: 1580
epoch: 1000
next table: 2066
cur table: 2063
epoch: 1000
next table: 1574
cur table: 1576
epoch: 1000
next table: 2066
cur table: 2066
epoch: 1000
next table: 1571
cur table: 1574
epoch: 1000
next table: 2065
cur table: 2066
epoch: 1000
next table: 1587
cur table: 1571
epoch: 1000
next table: 2063
cur table: 2065
epoch: 1000
next table: 1576
cur table: 1587
epoch: 1000
next table: 2062
cur table: 2063
epoch: 1000
next table: 1573
cur table: 1576
epoch: 1000
next table: 2056
cur table: 2062
epoch: 1000
next table: 1584
cur table: 1573
epoch: 1000
next table: 2068
cur table: 2056
epoch: 1000
next table: 1589
cur table: 1584
epoch: 1000
next table: 2063
cur table: 2068
epoch: 1000
next table: 1566
cur table: 1589
epoch: 1000
next table: 2062
cur table: 2063
Heartbeat CPU 0 instructions: 30000001 cycles: 9940354 heartbeat IPC: 3.01757 cumulative IPC: 3.018 (Simulation time: 0 hr 8 min 44 sec) 
epoch: 1000
next table: 1587
cur table: 1566
epoch: 1000
next table: 2066
cur table: 2062
epoch: 1000
next table: 1564
cur table: 1587
epoch: 1000
next table: 2061
cur table: 2066
epoch: 1000
next table: 1591
cur table: 1564
epoch: 1000
next table: 2065
cur table: 2061
epoch: 1000
next table: 1603
cur table: 1591
epoch: 1000
next table: 2068
cur table: 2065
epoch: 1000
next table: 1568
cur table: 1603
epoch: 1000
next table: 2063
cur table: 2068
epoch: 1000
next table: 1604
cur table: 1568
epoch: 1000
next table: 2066
cur table: 2063
epoch: 1000
next table: 1556
cur table: 1604
epoch: 1000
next table: 2061
cur table: 2066
epoch: 1000
next table: 1610
cur table: 1556
epoch: 1000
next table: 2069
cur table: 2061
epoch: 1000
next table: 1555
cur table: 1610
epoch: 1000
next table: 2059
cur table: 2069
epoch: 1000
next table: 1599
cur table: 1555
epoch: 1000
next table: 2067
cur table: 2059
epoch: 1000
next table: 1582
cur table: 1599
epoch: 1000
next table: 2059
cur table: 2067
epoch: 1000
next table: 1574
cur table: 1582
epoch: 1000
next table: 2063
cur table: 2059
epoch: 1000
next table: 1577
cur table: 1574
epoch: 1000
next table: 2062
cur table: 2063
epoch: 1000
next table: 1571
cur table: 1577
epoch: 1000
next table: 2064
cur table: 2062
epoch: 1000
next table: 1592
cur table: 1571
epoch: 1000
next table: 2061
cur table: 2064
epoch: 1000
next table: 1575
cur table: 1592
epoch: 1000
next table: 2066
cur table: 2061
epoch: 1000
next table: 1553
cur table: 1575
epoch: 1000
next table: 2059
cur table: 2066
epoch: 1000
next table: 1580
cur table: 1553
epoch: 1000
next table: 2069
cur table: 2059
epoch: 1000
next table: 1567
cur table: 1580
epoch: 1000
next table: 2062
cur table: 2069
epoch: 1000
next table: 1587
cur table: 1567
epoch: 1000
next table: 2068
cur table: 2062
epoch: 1000
next table: 1576
cur table: 1587
epoch: 1000
next table: 2063
cur table: 2068
epoch: 1000
next table: 1589
cur table: 1576
epoch: 1000
next table: 2067
cur table: 2063
epoch: 1000
next table: 1590
cur table: 1589
epoch: 1000
next table: 2061
cur table: 2067
epoch: 1000
next table: 1550
cur table: 1590
epoch: 1000
next table: 2067
cur table: 2061
epoch: 1000
next table: 1579
cur table: 1550
epoch: 1000
next table: 2062
cur table: 2067
epoch: 1000
next table: 1568
cur table: 1579
epoch: 1000
next table: 2062
cur table: 2062
epoch: 1000
next table: 1562
cur table: 1568
epoch: 1000
next table: 2067
cur table: 2062
epoch: 1000
next table: 1552
cur table: 1562
epoch: 1000
next table: 2061
cur table: 2067
epoch: 1000
next table: 1569
cur table: 1552
epoch: 1000
next table: 2059
cur table: 2061
epoch: 1000
next table: 1599
cur table: 1569
epoch: 1000
next table: 2069
cur table: 2059
epoch: 1000
next table: 1575
cur table: 1599
epoch: 1000
next table: 2058
cur table: 2069
epoch: 1000
next table: 1568
cur table: 1575
epoch: 1000
next table: 2062
cur table: 2058
epoch: 1000
next table: 1565
cur table: 1568
epoch: 1000
next table: 2061
cur table: 2062
epoch: 1000
next table: 1539
cur table: 1565
epoch: 1000
next table: 2063
cur table: 2061
epoch: 1000
next table: 1600
cur table: 1539
epoch: 1000
next table: 2060
cur table: 2063
epoch: 1000
next table: 1590
cur table: 1600
epoch: 1000
next table: 2064
cur table: 2060
epoch: 1000
next table: 1563
cur table: 1590
epoch: 1000
next table: 2060
cur table: 2064
epoch: 1000
next table: 1597
cur table: 1563
epoch: 1000
next table: 2066
cur table: 2060
epoch: 1000
next table: 1581
cur table: 1597
epoch: 1000
next table: 2060
cur table: 2066
epoch: 1000
next table: 1585
cur table: 1581
epoch: 1000
next table: 2065
cur table: 2060
epoch: 1000
next table: 1605
cur table: 1585
epoch: 1000
next table: 2061
cur table: 2065
epoch: 1000
next table: 1590
cur table: 1605
epoch: 1000
next table: 2062
cur table: 2061
epoch: 1000
next table: 1605
cur table: 1590
epoch: 1000
next table: 2060
cur table: 2062
epoch: 1000
next table: 1561
cur table: 1605
epoch: 1000
next table: 2071
cur table: 2060
epoch: 1000
next table: 1601
cur table: 1561
epoch: 1000
next table: 2058
cur table: 2071
epoch: 1000
next table: 1582
cur table: 1601
epoch: 1000
next table: 2065
cur table: 2058
epoch: 1000
next table: 1570
cur table: 1582
epoch: 1000
next table: 2061
cur table: 2065
epoch: 1000
next table: 1595
cur table: 1570
epoch: 1000
next table: 2070
cur table: 2061
epoch: 1000
next table: 1559
cur table: 1595
epoch: 1000
next table: 2063
cur table: 2070
epoch: 1000
next table: 1590
cur table: 1559
epoch: 1000
next table: 2064
cur table: 2063
epoch: 1000
next table: 1566
cur table: 1590
epoch: 1000
next table: 2062
cur table: 2064
epoch: 1000
next table: 1571
cur table: 1566
epoch: 1000
next table: 2064
cur table: 2062
epoch: 1000
next table: 1562
cur table: 1571
epoch: 1000
next table: 2064
cur table: 2064
epoch: 1000
next table: 1573
cur table: 1562
epoch: 1000
next table: 2054
cur table: 2064
epoch: 1000
next table: 1545
cur table: 1573
epoch: 1000
next table: 2065
cur table: 2054
epoch: 1000
next table: 1590
cur table: 1545
epoch: 1000
next table: 2065
cur table: 2065
epoch: 1000
next table: 1557
cur table: 1590
epoch: 1000
next table: 2054
cur table: 2065
epoch: 1000
next table: 1603
cur table: 1557
epoch: 1000
next table: 2061
cur table: 2054
epoch: 1000
next table: 1571
cur table: 1603
epoch: 1000
next table: 2060
cur table: 2061
epoch: 1000
next table: 1596
cur table: 1571
epoch: 1000
next table: 2059
cur table: 2060
epoch: 1000
next table: 1560
cur table: 1596
epoch: 1000
next table: 2059
cur table: 2059
epoch: 1000
next table: 1593
cur table: 1560
epoch: 1000
next table: 2067
cur table: 2059
epoch: 1000
next table: 1603
cur table: 1593
epoch: 1000
next table: 2062
cur table: 2067
epoch: 1000
next table: 1559
cur table: 1603
epoch: 1000
next table: 2068
cur table: 2062
epoch: 1000
next table: 1572
cur table: 1559
epoch: 1000
next table: 2064
cur table: 2068
epoch: 1000
next table: 1560
cur table: 1572
epoch: 1000
next table: 2065
cur table: 2064
epoch: 1000
next table: 1592
cur table: 1560
epoch: 1000
next table: 2061
cur table: 2065
epoch: 1000
next table: 1572
cur table: 1592
epoch: 1000
next table: 2063
cur table: 2061
epoch: 1000
next table: 1570
cur table: 1572
epoch: 1000
next table: 2060
cur table: 2063
epoch: 1000
next table: 1554
cur table: 1570
epoch: 1000
next table: 2061
cur table: 2060
epoch: 1000
next table: 1577
cur table: 1554
epoch: 1000
next table: 2059
cur table: 2061
epoch: 1000
next table: 1563
cur table: 1577
epoch: 1000
next table: 2064
cur table: 2059
epoch: 1000
next table: 1586
cur table: 1563
epoch: 1000
next table: 2064
cur table: 2064
epoch: 1000
next table: 1576
cur table: 1586
epoch: 1000
next table: 2055
cur table: 2064
epoch: 1000
next table: 1578
cur table: 1576
epoch: 1000
next table: 2070
cur table: 2055
epoch: 1000
next table: 1568
cur table: 1578
epoch: 1000
next table: 2062
cur table: 2070
epoch: 1000
next table: 1558
cur table: 1568
epoch: 1000
next table: 2061
cur table: 2062
epoch: 1000
next table: 1582
cur table: 1558
epoch: 1000
next table: 2067
cur table: 2061
epoch: 1000
next table: 1560
cur table: 1582
epoch: 1000
next table: 2063
cur table: 2067
epoch: 1000
next table: 1579
cur table: 1560
epoch: 1000
next table: 2057
cur table: 2063
epoch: 1000
next table: 1590
cur table: 1579
epoch: 1000
next table: 2061
cur table: 2057
epoch: 1000
next table: 1568
cur table: 1590
epoch: 1000
next table: 2067
cur table: 2061
epoch: 1000
next table: 1590
cur table: 1568
epoch: 1000
next table: 2065
cur table: 2067
epoch: 1000
next table: 1553
cur table: 1590
epoch: 1000
next table: 2068
cur table: 2065
epoch: 1000
next table: 1586
cur table: 1553
epoch: 1000
next table: 2056
cur table: 2068
epoch: 1000
next table: 1591
cur table: 1586
epoch: 1000
next table: 2067
cur table: 2056
epoch: 1000
next table: 1565
cur table: 1591
epoch: 1000
next table: 2059
cur table: 2067
epoch: 1000
next table: 1593
cur table: 1565
epoch: 1000
next table: 2060
cur table: 2059
epoch: 1000
next table: 1580
cur table: 1593
epoch: 1000
next table: 2059
cur table: 2060
epoch: 1000
next table: 1608
cur table: 1580
epoch: 1000
next table: 2064
cur table: 2059
epoch: 1000
next table: 1584
cur table: 1608
epoch: 1000
next table: 2068
cur table: 2064
epoch: 1000
next table: 1577
cur table: 1584
epoch: 1000
next table: 2061
cur table: 2068
epoch: 1000
next table: 1575
cur table: 1577
epoch: 1000
next table: 2070
cur table: 2061
epoch: 1000
next table: 1573
cur table: 1575
epoch: 1000
next table: 2058
cur table: 2070
epoch: 1000
next table: 1582
cur table: 1573
epoch: 1000
next table: 2065
cur table: 2058
epoch: 1000
next table: 1533
cur table: 1582
epoch: 1000
next table: 2067
cur table: 2065
epoch: 1000
next table: 1567
cur table: 1533
epoch: 1000
next table: 2068
cur table: 2067
epoch: 1000
next table: 1589
cur table: 1567
epoch: 1000
next table: 2059
cur table: 2068
epoch: 1000
next table: 1572
cur table: 1589
epoch: 1000
next table: 2062
cur table: 2059
epoch: 1000
next table: 1604
cur table: 1572
epoch: 1000
next table: 2063
cur table: 2062
epoch: 1000
next table: 1534
cur table: 1604
epoch: 1000
next table: 2064
cur table: 2063
epoch: 1000
next table: 1554
cur table: 1534
epoch: 1000
next table: 2059
cur table: 2064
epoch: 1000
next table: 1569
cur table: 1554
epoch: 1000
next table: 2065
cur table: 2059
epoch: 1000
next table: 1564
cur table: 1569
epoch: 1000
next table: 2063
cur table: 2065
epoch: 1000
next table: 1572
cur table: 1564
epoch: 1000
next table: 2054
cur table: 2063
epoch: 1000
next table: 1584
cur table: 1572
epoch: 1000
next table: 2058
cur table: 2054
epoch: 1000
next table: 1569
cur table: 1584
epoch: 1000
next table: 2064
cur table: 2058
epoch: 1000
next table: 1607
cur table: 1569
epoch: 1000
next table: 2064
cur table: 2064
epoch: 1000
next table: 1593
cur table: 1607
epoch: 1000
next table: 2069
cur table: 2064
epoch: 1000
next table: 1547
cur table: 1593
epoch: 1000
next table: 2057
cur table: 2069
epoch: 1000
next table: 1569
cur table: 1547
epoch: 1000
next table: 2064
cur table: 2057
epoch: 1000
next table: 1569
cur table: 1569
epoch: 1000
next table: 2065
cur table: 2064
epoch: 1000
next table: 1607
cur table: 1569
epoch: 1000
next table: 2066
cur table: 2065
epoch: 1000
next table: 1573
cur table: 1607
epoch: 1000
next table: 2062
cur table: 2066
epoch: 1000
next table: 1560
cur table: 1573
epoch: 1000
next table: 2068
cur table: 2062
epoch: 1000
next table: 1577
cur table: 1560
epoch: 1000
next table: 2060
cur table: 2068
epoch: 1000
next table: 1570
cur table: 1577
epoch: 1000
next table: 2059
cur table: 2060
epoch: 1000
next table: 1583
cur table: 1570
epoch: 1000
next table: 2056
cur table: 2059
epoch: 1000
next table: 1574
cur table: 1583
epoch: 1000
next table: 2067
cur table: 2056
epoch: 1000
next table: 1557
cur table: 1574
epoch: 1000
next table: 2063
cur table: 2067
epoch: 1000
next table: 1576
cur table: 1557
epoch: 1000
next table: 2069
cur table: 2063
epoch: 1000
next table: 1580
cur table: 1576
epoch: 1000
next table: 2059
cur table: 2069
epoch: 1000
next table: 1579
cur table: 1580
epoch: 1000
next table: 2069
cur table: 2059
epoch: 1000
next table: 1605
cur table: 1579
epoch: 1000
next table: 2060
cur table: 2069
epoch: 1000
next table: 1585
cur table: 1605
epoch: 1000
next table: 2059
cur table: 2060
epoch: 1000
next table: 1561
cur table: 1585
epoch: 1000
next table: 2062
cur table: 2059
epoch: 1000
next table: 1591
cur table: 1561
epoch: 1000
next table: 2060
cur table: 2062
epoch: 1000
next table: 1583
cur table: 1591
epoch: 1000
next table: 2063
cur table: 2060
epoch: 1000
next table: 1577
cur table: 1583
epoch: 1000
next table: 2065
cur table: 2063
epoch: 1000
next table: 1594
cur table: 1577
epoch: 1000
next table: 2061
cur table: 2065
epoch: 1000
next table: 1591
cur table: 1594
epoch: 1000
next table: 2068
cur table: 2061
epoch: 1000
next table: 1577
cur table: 1591
epoch: 1000
next table: 2059
cur table: 2068
epoch: 1000
next table: 1607
cur table: 1577
epoch: 1000
next table: 2065
cur table: 2059
epoch: 1000
next table: 1572
cur table: 1607
epoch: 1000
next table: 2049
cur table: 2065
epoch: 1000
next table: 1608
cur table: 1572
epoch: 1000
next table: 2065
cur table: 2049
epoch: 1000
next table: 1586
cur table: 1608
epoch: 1000
next table: 2071
cur table: 2065
epoch: 1000
next table: 1570
cur table: 1586
epoch: 1000
next table: 2060
cur table: 2071
epoch: 1000
next table: 1577
cur table: 1570
epoch: 1000
next table: 2069
cur table: 2060
epoch: 1000
next table: 1550
cur table: 1577
epoch: 1000
next table: 2063
cur table: 2069
epoch: 1000
next table: 1600
cur table: 1550
epoch: 1000
next table: 2064
cur table: 2063
epoch: 1000
next table: 1562
cur table: 1600
epoch: 1000
next table: 2067
cur table: 2064
epoch: 1000
next table: 1583
cur table: 1562
epoch: 1000
next table: 2063
cur table: 2067
epoch: 1000
next table: 1552
cur table: 1583
epoch: 1000
next table: 2066
cur table: 2063
epoch: 1000
next table: 1605
cur table: 1552
epoch: 1000
next table: 2063
cur table: 2066
epoch: 1000
next table: 1572
cur table: 1605
epoch: 1000
next table: 2066
cur table: 2063
epoch: 1000
next table: 1569
cur table: 1572
epoch: 1000
next table: 2067
cur table: 2066
epoch: 1000
next table: 1578
cur table: 1569
epoch: 1000
next table: 2062
cur table: 2067
epoch: 1000
next table: 1554
cur table: 1578
epoch: 1000
next table: 2063
cur table: 2062
epoch: 1000
next table: 1593
cur table: 1554
epoch: 1000
next table: 2066
cur table: 2063
epoch: 1000
next table: 1586
cur table: 1593
epoch: 1000
next table: 2054
cur table: 2066
epoch: 1000
next table: 1592
cur table: 1586
epoch: 1000
next table: 2063
cur table: 2054
epoch: 1000
next table: 1570
cur table: 1592
epoch: 1000
next table: 2059
cur table: 2063
epoch: 1000
next table: 1547
cur table: 1570
epoch: 1000
next table: 2059
cur table: 2059
epoch: 1000
next table: 1583
cur table: 1547
epoch: 1000
next table: 2061
cur table: 2059
epoch: 1000
next table: 1590
cur table: 1583
epoch: 1000
next table: 2067
cur table: 2061
epoch: 1000
next table: 1569
cur table: 1590
epoch: 1000
next table: 2062
cur table: 2067
epoch: 1000
next table: 1572
cur table: 1569
epoch: 1000
next table: 2069
cur table: 2062
epoch: 1000
next table: 1566
cur table: 1572
epoch: 1000
next table: 2063
cur table: 2069
epoch: 1000
next table: 1604
cur table: 1566
epoch: 1000
next table: 2066
cur table: 2063
epoch: 1000
next table: 1585
cur table: 1604
epoch: 1000
next table: 2054
cur table: 2066
epoch: 1000
next table: 1572
cur table: 1585
epoch: 1000
next table: 2070
cur table: 2054
epoch: 1000
next table: 1587
cur table: 1572
epoch: 1000
next table: 2058
cur table: 2070
epoch: 1000
next table: 1560
cur table: 1587
epoch: 1000
next table: 2068
cur table: 2058
epoch: 1000
next table: 1592
cur table: 1560
epoch: 1000
next table: 2066
cur table: 2068
epoch: 1000
next table: 1577
cur table: 1592
epoch: 1000
next table: 2062
cur table: 2066
epoch: 1000
next table: 1581
cur table: 1577
epoch: 1000
next table: 2064
cur table: 2062
epoch: 1000
next table: 1574
cur table: 1581
epoch: 1000
next table: 2061
cur table: 2064
epoch: 1000
next table: 1589
cur table: 1574
epoch: 1000
next table: 2059
cur table: 2061
epoch: 1000
next table: 1575
cur table: 1589
epoch: 1000
next table: 2058
cur table: 2059
epoch: 1000
next table: 1597
cur table: 1575
epoch: 1000
next table: 2066
cur table: 2058
epoch: 1000
next table: 1581
cur table: 1597
epoch: 1000
next table: 2065
cur table: 2066
epoch: 1000
next table: 1561
cur table: 1581
epoch: 1000
next table: 2055
cur table: 2065
epoch: 1000
next table: 1559
cur table: 1561
epoch: 1000
next table: 2070
cur table: 2055
epoch: 1000
next table: 1580
cur table: 1559
epoch: 1000
next table: 2066
cur table: 2070
epoch: 1000
next table: 1540
cur table: 1580
epoch: 1000
next table: 2063
cur table: 2066
epoch: 1000
next table: 1557
cur table: 1540
epoch: 1000
next table: 2061
cur table: 2063
epoch: 1000
next table: 1575
cur table: 1557
epoch: 1000
next table: 2058
cur table: 2061
epoch: 1000
next table: 1579
cur table: 1575
epoch: 1000
next table: 2067
cur table: 2058
epoch: 1000
next table: 1583
cur table: 1579
epoch: 1000
next table: 2056
cur table: 2067
epoch: 1000
next table: 1578
cur table: 1583
epoch: 1000
next table: 2064
cur table: 2056
epoch: 1000
next table: 1582
cur table: 1578
epoch: 1000
next table: 2067
cur table: 2064
epoch: 1000
next table: 1603
cur table: 1582
epoch: 1000
next table: 2052
cur table: 2067
epoch: 1000
next table: 1560
cur table: 1603
epoch: 1000
next table: 2073
cur table: 2052
epoch: 1000
next table: 1573
cur table: 1560
epoch: 1000
next table: 2059
cur table: 2073
epoch: 1000
next table: 1565
cur table: 1573
epoch: 1000
next table: 2052
cur table: 2059
epoch: 1000
next table: 1567
cur table: 1565
epoch: 1000
next table: 2055
cur table: 2052
epoch: 1000
next table: 1581
cur table: 1567
epoch: 1000
next table: 2069
cur table: 2055
epoch: 1000
next table: 1547
cur table: 1581
epoch: 1000
next table: 2060
cur table: 2069
epoch: 1000
next table: 1584
cur table: 1547
epoch: 1000
next table: 2060
cur table: 2060
epoch: 1000
next table: 1592
cur table: 1584
epoch: 1000
next table: 2055
cur table: 2060
epoch: 1000
next table: 1583
cur table: 1592
epoch: 1000
next table: 2063
cur table: 2055
Heartbeat CPU 0 instructions: 40000002 cycles: 13253875 heartbeat IPC: 3.01794 cumulative IPC: 3.01799 (Simulation time: 0 hr 11 min 36 sec) 
epoch: 1000
next table: 1593
cur table: 1583
epoch: 1000
next table: 2061
cur table: 2063
epoch: 1000
next table: 1536
cur table: 1593
epoch: 1000
next table: 2061
cur table: 2061
epoch: 1000
next table: 1568
cur table: 1536
epoch: 1000
next table: 2063
cur table: 2061
epoch: 1000
next table: 1561
cur table: 1568
epoch: 1000
next table: 2067
cur table: 2063
epoch: 1000
next table: 1570
cur table: 1561
epoch: 1000
next table: 2064
cur table: 2067
epoch: 1000
next table: 1574
cur table: 1570
epoch: 1000
next table: 2064
cur table: 2064
epoch: 1000
next table: 1573
cur table: 1574
epoch: 1000
next table: 2060
cur table: 2064
epoch: 1000
next table: 1571
cur table: 1573
epoch: 1000
next table: 2062
cur table: 2060
epoch: 1000
next table: 1585
cur table: 1571
epoch: 1000
next table: 2065
cur table: 2062
epoch: 1000
next table: 1559
cur table: 1585
epoch: 1000
next table: 2066
cur table: 2065
epoch: 1000
next table: 1573
cur table: 1559
epoch: 1000
next table: 2056
cur table: 2066
epoch: 1000
next table: 1543
cur table: 1573
epoch: 1000
next table: 2060
cur table: 2056
epoch: 1000
next table: 1573
cur table: 1543
epoch: 1000
next table: 2063
cur table: 2060
epoch: 1000
next table: 1576
cur table: 1573
epoch: 1000
next table: 2062
cur table: 2063
epoch: 1000
next table: 1578
cur table: 1576
epoch: 1000
next table: 2060
cur table: 2062
epoch: 1000
next table: 1558
cur table: 1578
epoch: 1000
next table: 2063
cur table: 2060
epoch: 1000
next table: 1564
cur table: 1558
epoch: 1000
next table: 2064
cur table: 2063
epoch: 1000
next table: 1585
cur table: 1564
epoch: 1000
next table: 2057
cur table: 2064
epoch: 1000
next table: 1587
cur table: 1585
epoch: 1000
next table: 2066
cur table: 2057
epoch: 1000
next table: 1585
cur table: 1587
epoch: 1000
next table: 2061
cur table: 2066
epoch: 1000
next table: 1587
cur table: 1585
epoch: 1000
next table: 2067
cur table: 2061
epoch: 1000
next table: 1549
cur table: 1587
epoch: 1000
next table: 2070
cur table: 2067
epoch: 1000
next table: 1566
cur table: 1549
epoch: 1000
next table: 2057
cur table: 2070
epoch: 1000
next table: 1561
cur table: 1566
epoch: 1000
next table: 2063
cur table: 2057
epoch: 1000
next table: 1598
cur table: 1561
epoch: 1000
next table: 2064
cur table: 2063
epoch: 1000
next table: 1539
cur table: 1598
epoch: 1000
next table: 2056
cur table: 2064
epoch: 1000
next table: 1580
cur table: 1539
epoch: 1000
next table: 2060
cur table: 2056
epoch: 1000
next table: 1577
cur table: 1580
epoch: 1000
next table: 2063
cur table: 2060
epoch: 1000
next table: 1576
cur table: 1577
epoch: 1000
next table: 2060
cur table: 2063
epoch: 1000
next table: 1604
cur table: 1576
epoch: 1000
next table: 2067
cur table: 2060
epoch: 1000
next table: 1579
cur table: 1604
epoch: 1000
next table: 2054
cur table: 2067
epoch: 1000
next table: 1590
cur table: 1579
epoch: 1000
next table: 2066
cur table: 2054
epoch: 1000
next table: 1560
cur table: 1590
epoch: 1000
next table: 2063
cur table: 2066
epoch: 1000
next table: 1558
cur table: 1560
epoch: 1000
next table: 2063
cur table: 2063
epoch: 1000
next table: 1587
cur table: 1558
epoch: 1000
next table: 2067
cur table: 2063
epoch: 1000
next table: 1590
cur table: 1587
epoch: 1000
next table: 2059
cur table: 2067
epoch: 1000
next table: 1597
cur table: 1590
epoch: 1000
next table: 2064
cur table: 2059
epoch: 1000
next table: 1571
cur table: 1597
epoch: 1000
next table: 2063
cur table: 2064
epoch: 1000
next table: 1582
cur table: 1571
epoch: 1000
next table: 2058
cur table: 2063
epoch: 1000
next table: 1596
cur table: 1582
epoch: 1000
next table: 2067
cur table: 2058
epoch: 1000
next table: 1587
cur table: 1596
epoch: 1000
next table: 2065
cur table: 2067
epoch: 1000
next table: 1592
cur table: 1587
epoch: 1000
next table: 2064
cur table: 2065
epoch: 1000
next table: 1581
cur table: 1592
epoch: 1000
next table: 2062
cur table: 2064
epoch: 1000
next table: 1559
cur table: 1581
epoch: 1000
next table: 2064
cur table: 2062
epoch: 1000
next table: 1581
cur table: 1559
epoch: 1000
next table: 2066
cur table: 2064
epoch: 1000
next table: 1597
cur table: 1581
epoch: 1000
next table: 2060
cur table: 2066
epoch: 1000
next table: 1573
cur table: 1597
epoch: 1000
next table: 2061
cur table: 2060
epoch: 1000
next table: 1554
cur table: 1573
epoch: 1000
next table: 2071
cur table: 2061
epoch: 1000
next table: 1549
cur table: 1554
epoch: 1000
next table: 2053
cur table: 2071
epoch: 1000
next table: 1580
cur table: 1549
epoch: 1000
next table: 2072
cur table: 2053
epoch: 1000
next table: 1573
cur table: 1580
epoch: 1000
next table: 2050
cur table: 2072
epoch: 1000
next table: 1562
cur table: 1573
epoch: 1000
next table: 2072
cur table: 2050
epoch: 1000
next table: 1568
cur table: 1562
epoch: 1000
next table: 2063
cur table: 2072
epoch: 1000
next table: 1563
cur table: 1568
epoch: 1000
next table: 2052
cur table: 2063
epoch: 1000
next table: 1579
cur table: 1563
epoch: 1000
next table: 2064
cur table: 2052
epoch: 1000
next table: 1581
cur table: 1579
epoch: 1000
next table: 2062
cur table: 2064
epoch: 1000
next table: 1568
cur table: 1581
epoch: 1000
next table: 2065
cur table: 2062
epoch: 1000
next table: 1586
cur table: 1568
epoch: 1000
next table: 2061
cur table: 2065
epoch: 1000
next table: 1596
cur table: 1586
epoch: 1000
next table: 2061
cur table: 2061
epoch: 1000
next table: 1574
cur table: 1596
epoch: 1000
next table: 2066
cur table: 2061
epoch: 1000
next table: 1561
cur table: 1574
epoch: 1000
next table: 2059
cur table: 2066
epoch: 1000
next table: 1580
cur table: 1561
epoch: 1000
next table: 2054
cur table: 2059
epoch: 1000
next table: 1568
cur table: 1580
epoch: 1000
next table: 2059
cur table: 2054
epoch: 1000
next table: 1586
cur table: 1568
epoch: 1000
next table: 2063
cur table: 2059
epoch: 1000
next table: 1576
cur table: 1586
epoch: 1000
next table: 2062
cur table: 2063
epoch: 1000
next table: 1573
cur table: 1576
epoch: 1000
next table: 2070
cur table: 2062
epoch: 1000
next table: 1561
cur table: 1573
epoch: 1000
next table: 2054
cur table: 2070
epoch: 1000
next table: 1569
cur table: 1561
epoch: 1000
next table: 2065
cur table: 2054
epoch: 1000
next table: 1545
cur table: 1569
epoch: 1000
next table: 2057
cur table: 2065
epoch: 1000
next table: 1565
cur table: 1545
epoch: 1000
next table: 2060
cur table: 2057
epoch: 1000
next table: 1559
cur table: 1565
epoch: 1000
next table: 2061
cur table: 2060
epoch: 1000
next table: 1594
cur table: 1559
epoch: 1000
next table: 2066
cur table: 2061
epoch: 1000
next table: 1582
cur table: 1594
epoch: 1000
next table: 2064
cur table: 2066
epoch: 1000
next table: 1575
cur table: 1582
epoch: 1000
next table: 2066
cur table: 2064
epoch: 1000
next table: 1576
cur table: 1575
epoch: 1000
next table: 2061
cur table: 2066
epoch: 1000
next table: 1569
cur table: 1576
epoch: 1000
next table: 2068
cur table: 2061
epoch: 1000
next table: 1604
cur table: 1569
epoch: 1000
next table: 2066
cur table: 2068
epoch: 1000
next table: 1593
cur table: 1604
epoch: 1000
next table: 2061
cur table: 2066
epoch: 1000
next table: 1572
cur table: 1593
epoch: 1000
next table: 2061
cur table: 2061
epoch: 1000
next table: 1551
cur table: 1572
epoch: 1000
next table: 2063
cur table: 2061
epoch: 1000
next table: 1557
cur table: 1551
epoch: 1000
next table: 2065
cur table: 2063
epoch: 1000
next table: 1556
cur table: 1557
epoch: 1000
next table: 2063
cur table: 2065
epoch: 1000
next table: 1580
cur table: 1556
epoch: 1000
next table: 2056
cur table: 2063
epoch: 1000
next table: 1575
cur table: 1580
epoch: 1000
next table: 2061
cur table: 2056
epoch: 1000
next table: 1591
cur table: 1575
epoch: 1000
next table: 2068
cur table: 2061
epoch: 1000
next table: 1582
cur table: 1591
epoch: 1000
next table: 2057
cur table: 2068
epoch: 1000
next table: 1586
cur table: 1582
epoch: 1000
next table: 2061
cur table: 2057
epoch: 1000
next table: 1591
cur table: 1586
epoch: 1000
next table: 2069
cur table: 2061
epoch: 1000
next table: 1564
cur table: 1591
epoch: 1000
next table: 2062
cur table: 2069
epoch: 1000
next table: 1553
cur table: 1564
epoch: 1000
next table: 2065
cur table: 2062
epoch: 1000
next table: 1607
cur table: 1553
epoch: 1000
next table: 2061
cur table: 2065
epoch: 1000
next table: 1567
cur table: 1607
epoch: 1000
next table: 2066
cur table: 2061
epoch: 1000
next table: 1598
cur table: 1567
epoch: 1000
next table: 2064
cur table: 2066
epoch: 1000
next table: 1552
cur table: 1598
epoch: 1000
next table: 2064
cur table: 2064
epoch: 1000
next table: 1601
cur table: 1552
epoch: 1000
next table: 2065
cur table: 2064
epoch: 1000
next table: 1591
cur table: 1601
epoch: 1000
next table: 2062
cur table: 2065
epoch: 1000
next table: 1559
cur table: 1591
epoch: 1000
next table: 2059
cur table: 2062
epoch: 1000
next table: 1588
cur table: 1559
epoch: 1000
next table: 2070
cur table: 2059
epoch: 1000
next table: 1570
cur table: 1588
epoch: 1000
next table: 2055
cur table: 2070
epoch: 1000
next table: 1588
cur table: 1570
epoch: 1000
next table: 2068
cur table: 2055
epoch: 1000
next table: 1593
cur table: 1588
epoch: 1000
next table: 2063
cur table: 2068
epoch: 1000
next table: 1572
cur table: 1593
epoch: 1000
next table: 2067
cur table: 2063
epoch: 1000
next table: 1594
cur table: 1572
epoch: 1000
next table: 2058
cur table: 2067
epoch: 1000
next table: 1572
cur table: 1594
epoch: 1000
next table: 2069
cur table: 2058
epoch: 1000
next table: 1590
cur table: 1572
epoch: 1000
next table: 2056
cur table: 2069
epoch: 1000
next table: 1582
cur table: 1590
epoch: 1000
next table: 2067
cur table: 2056
epoch: 1000
next table: 1584
cur table: 1582
epoch: 1000
next table: 2058
cur table: 2067
epoch: 1000
next table: 1573
cur table: 1584
epoch: 1000
next table: 2070
cur table: 2058
epoch: 1000
next table: 1574
cur table: 1573
epoch: 1000
next table: 2062
cur table: 2070
epoch: 1000
next table: 1591
cur table: 1574
epoch: 1000
next table: 2068
cur table: 2062
epoch: 1000
next table: 1561
cur table: 1591
epoch: 1000
next table: 2066
cur table: 2068
epoch: 1000
next table: 1570
cur table: 1561
epoch: 1000
next table: 2061
cur table: 2066
epoch: 1000
next table: 1557
cur table: 1570
epoch: 1000
next table: 2061
cur table: 2061
epoch: 1000
next table: 1577
cur table: 1557
epoch: 1000
next table: 2065
cur table: 2061
epoch: 1000
next table: 1575
cur table: 1577
epoch: 1000
next table: 2063
cur table: 2065
epoch: 1000
next table: 1564
cur table: 1575
epoch: 1000
next table: 2064
cur table: 2063
epoch: 1000
next table: 1565
cur table: 1564
epoch: 1000
next table: 2067
cur table: 2064
epoch: 1000
next table: 1580
cur table: 1565
epoch: 1000
next table: 2066
cur table: 2067
epoch: 1000
next table: 1585
cur table: 1580
epoch: 1000
next table: 2063
cur table: 2066
epoch: 1000
next table: 1577
cur table: 1585
epoch: 1000
next table: 2063
cur table: 2063
epoch: 1000
next table: 1583
cur table: 1577
epoch: 1000
next table: 2062
cur table: 2063
epoch: 1000
next table: 1568
cur table: 1583
epoch: 1000
next table: 2068
cur table: 2062
epoch: 1000
next table: 1598
cur table: 1568
epoch: 1000
next table: 2055
cur table: 2068
epoch: 1000
next table: 1550
cur table: 1598
epoch: 1000
next table: 2063
cur table: 2055
epoch: 1000
next table: 1564
cur table: 1550
epoch: 1000
next table: 2062
cur table: 2063
epoch: 1000
next table: 1545
cur table: 1564
epoch: 1000
next table: 2055
cur table: 2062
epoch: 1000
next table: 1584
cur table: 1545
epoch: 1000
next table: 2064
cur table: 2055
epoch: 1000
next table: 1583
cur table: 1584
epoch: 1000
next table: 2060
cur table: 2064
epoch: 1000
next table: 1568
cur table: 1583
epoch: 1000
next table: 2062
cur table: 2060
epoch: 1000
next table: 1589
cur table: 1568
epoch: 1000
next table: 2071
cur table: 2062
epoch: 1000
next table: 1573
cur table: 1589
epoch: 1000
next table: 2057
cur table: 2071
epoch: 1000
next table: 1583
cur table: 1573
epoch: 1000
next table: 2066
[...]
next table: 1467
cur table: 1469
epoch: 1000
next table: 2067
cur table: 2068
epoch: 1000
next table: 1447
cur table: 1467
epoch: 1000
next table: 2070
cur table: 2067
epoch: 1000
next table: 1478
cur table: 1447
epoch: 1000
next table: 2057
cur table: 2070
epoch: 1000
next table: 1482
cur table: 1478
epoch: 1000
next table: 2068
cur table: 2057
epoch: 1000
next table: 1444
cur table: 1482
epoch: 1000
next table: 2057
cur table: 2068
epoch: 1000
next table: 1439
cur table: 1444
epoch: 1000
next table: 2067
cur table: 2057
epoch: 1000
next table: 1445
cur table: 1439
epoch: 1000
next table: 2067
cur table: 2067
epoch: 1000
next table: 1480
cur table: 1445
epoch: 1000
next table: 2055
cur table: 2067
epoch: 1000
next table: 1471
cur table: 1480
epoch: 1000
next table: 2066
cur table: 2055
epoch: 1000
next table: 1466
cur table: 1471
epoch: 1000
next table: 2061
cur table: 2066
epoch: 1000
next table: 1464
cur table: 1466
epoch: 1000
next table: 2068
cur table: 2061
epoch: 1000
next table: 1493
cur table: 1464
epoch: 1000
next table: 2063
cur table: 2068
epoch: 1000
next table: 1470
cur table: 1493
epoch: 1000
next table: 2067
cur table: 2063
epoch: 1000
next table: 1473
cur table: 1470
epoch: 1000
next table: 2070
cur table: 2067
epoch: 1000
next table: 1489
cur table: 1473
epoch: 1000
next table: 2052
cur table: 2070
epoch: 1000
next table: 1464
cur table: 1489
epoch: 1000
next table: 2078
cur table: 2052
epoch: 1000
next table: 1435
cur table: 1464
epoch: 1000
next table: 2046
cur table: 2078
epoch: 1000
next table: 1457
cur table: 1435
epoch: 1000
next table: 2075
cur table: 2046
epoch: 1000
next table: 1448
cur table: 1457
epoch: 1000
next table: 2063
cur table: 2075
epoch: 1000
next table: 1469
cur table: 1448
epoch: 1000
next table: 2067
cur table: 2063
epoch: 1000
next table: 1427
cur table: 1469
epoch: 1000
next table: 2056
cur table: 2067
epoch: 1000
next table: 1497
cur table: 1427
epoch: 1000
next table: 2066
cur table: 2056
epoch: 1000
next table: 1451
cur table: 1497
epoch: 1000
next table: 2061
cur table: 2066
epoch: 1000
next table: 1477
cur table: 1451
epoch: 1000
next table: 2067
cur table: 2061
epoch: 1000
next table: 1460
cur table: 1477
epoch: 1000
next table: 2059
cur table: 2067
epoch: 1000
next table: 1477
cur table: 1460
epoch: 1000
next table: 2065
cur table: 2059
epoch: 1000
next table: 1445
cur table: 1477
Heartbeat CPU 0 instructions: 100000001 cycles: 73109087 heartbeat IPC: 0.882829 cumulative IPC: 0.884296 (Simulation time: 0 hr 25 min 45 sec) 
Finished CPU 0 instructions: 50000000 cycles: 56542126 cumulative IPC: 0.884296 (Simulation time: 0 hr 25 min 45 sec) 

ChampSim completed all CPUs

Region of Interest Statistics

CPU 0 cumulative IPC: 0.884296 instructions: 50000000 cycles: 56542126
ITLB TOTAL     ACCESS:    6356420  HIT:    6356420  MISS:          0  HIT %:        100  MISS %:          0   MPKI: 0
ITLB LOAD TRANSLATION ACCESS:    6356420  HIT:    6356420  MISS:          0  HIT %:        100  MISS %:          0   MPKI: 0
ITLB PREFETCH  REQUESTED:          0  ISSUED:          0  USEFUL:          0  USELESS:          0
ITLB USEFUL LOAD PREFETCHES:          0 PREFETCH ISSUED TO LOWER LEVEL:          0  ACCURACY: -nan
ITLB TIMELY PREFETCHES:          0 LATE PREFETCHES: 0 DROPPED PREFETCHES: 0
ITLB PREFETCHES SAME FILL-ORIGIN LEVEL: 0 DIFFERENT FILL-ORIGIN LEVEL: 0
ITLB AVERAGE MISS LATENCY: -nan cycles
ITLB RQ	ACCESS:    8462954	FORWARD:          0	MERGED:    2106534	TO_CACHE:    6356420

Revised Interactions: positive negative neutral
ITLB_interactions 0 0 0 -nan -nan -nan
DTLB TOTAL     ACCESS:   16365263  HIT:   16330337  MISS:      34926  HIT %:    99.7866  MISS %:   0.213415   MPKI: 0.69852
DTLB LOAD TRANSLATION ACCESS:   16365263  HIT:   16330337  MISS:      34926  HIT %:    99.7866  MISS %:   0.213415   MPKI: 0.69852
DTLB PREFETCH  REQUESTED:          0  ISSUED:          0  USEFUL:          0  USELESS:          0
DTLB USEFUL LOAD PREFETCHES:          0 PREFETCH ISSUED TO LOWER LEVEL:          0  ACCURACY: -nan
DTLB TIMELY PREFETCHES:          0 LATE PREFETCHES: 0 DROPPED PREFETCHES: 0
DTLB PREFETCHES SAME FILL-ORIGIN LEVEL: 0 DIFFERENT FILL-ORIGIN LEVEL: 0
DTLB AVERAGE MISS LATENCY: 220.073 cycles
DTLB RQ	ACCESS:   19030194	FORWARD:          0	MERGED:    2659817	TO_CACHE:   16370377

Revised Interactions: positive negative neutral
DTLB_interactions 0 0 0 -nan -nan -nan
STLB TOTAL     ACCESS:      34926  HIT:      20074  MISS:      14852  HIT %:    57.4758  MISS %:    42.5242   MPKI: 0.29704
STLB LOAD TRANSLATION ACCESS:      34926  HIT:      20074  MISS:      14852  HIT %:    57.4758  MISS %:    42.5242   MPKI: 0.29704
STLB PREFETCH  REQUESTED:          0  ISSUED:          0  USEFUL:          0  USELESS:          0
STLB USEFUL LOAD PREFETCHES:          0 PREFETCH ISSUED TO LOWER LEVEL:          0  ACCURACY: -nan
STLB TIMELY PREFETCHES:          0 LATE PREFETCHES: 0 DROPPED PREFETCHES: 0
STLB PREFETCHES SAME FILL-ORIGIN LEVEL: 0 DIFFERENT FILL-ORIGIN LEVEL: 0
STLB AVERAGE MISS LATENCY: 471.109 cycles
STLB RQ	ACCESS:      34926	FORWARD:          0	MERGED:          0	TO_CACHE:      34926

Revised Interactions: positive negative neutral
STLB_interactions 0 0 0 -nan -nan -nan
STLB Hit, L1D data hit: 0
STLB Hit, L2C data hit: 0
STLB Hit, LLC data hit: 0
STLB Hit, LLC data miss: 0
STLB STLB hints to L2: 0
L1D TOTAL     ACCESS:   18881160  HIT:   17881561  MISS:     999599  HIT %:    94.7058  MISS %:    5.29416   MPKI: 19.992
L1D LOAD      ACCESS:   16072323  HIT:   15097086  MISS:     975237  HIT %:    93.9322  MISS %:     6.0678   MPKI: 19.5047
L1D RFO       ACCESS:    2808837  HIT:    2784475  MISS:      24362  HIT %:    99.1327  MISS %:   0.867334   MPKI: 0.48724
L1D PREFETCH  REQUESTED:          0  ISSUED:          0  USEFUL:          0  USELESS:          0
L1D USEFUL LOAD PREFETCHES:          0 PREFETCH ISSUED TO LOWER LEVEL:          0  ACCURACY: -nan
L1D TIMELY PREFETCHES:          0 LATE PREFETCHES: 0 DROPPED PREFETCHES: 0
L1D PREFETCHES SAME FILL-ORIGIN LEVEL: 0 DIFFERENT FILL-ORIGIN LEVEL: 0
L1D AVERAGE MISS LATENCY: 52.6464 cycles
L1D RQ	ACCESS:   21232054	FORWARD:          0	MERGED:    4951418	TO_CACHE:   16213503
L1D WQ	ACCESS:    2816716	FORWARD:      67133	MERGED:         25	TO_CACHE:    2816691

Revised Interactions: positive negative neutral
L1D_interactions 0 0 0 -nan -nan -nan
L1D UNIQUE REGIONS ACCESSED: 0
L1D REGIONS CONFLICTS: 0
L1D Cross Page Prefetch Requests: 0
L1D Same Page Prefetch Requests: 0
L1D ROI Sum of L1D PQ occupancy: 0
L1D PREFETCHES PUSHED FROM L2C: 0
L1I TOTAL     ACCESS:    8462954  HIT:    8462954  MISS:          0  HIT %:        100  MISS %:          0   MPKI: 0
L1I LOAD      ACCESS:    8462954  HIT:    8462954  MISS:          0  HIT %:        100  MISS %:          0   MPKI: 0
L1I PREFETCH  REQUESTED:          0  ISSUED:          0  USEFUL:          0  USELESS:          0
L1I USEFUL LOAD PREFETCHES:          0 PREFETCH ISSUED TO LOWER LEVEL:          0  ACCURACY: -nan
L1I TIMELY PREFETCHES:          0 LATE PREFETCHES: 0 DROPPED PREFETCHES: 0
L1I PREFETCHES SAME FILL-ORIGIN LEVEL: 0 DIFFERENT FILL-ORIGIN LEVEL: 0
L1I AVERAGE MISS LATENCY: -nan cycles
L1I RQ	ACCESS:   11737580	FORWARD:          0	MERGED:    3274626	TO_CACHE:    8462954

Revised Interactions: positive negative neutral
L1I_interactions 0 0 0 -nan -nan -nan
BTB TOTAL     ACCESS:    1208719  HIT:    1208714  MISS:          5  HIT %:    99.9996  MISS %: 0.000413661   MPKI: 0.0001
BTB BRANCH_DIRECT_JUMP	ACCESS:          0  HIT:          0  MISS:          0
BTB BRANCH_INDIRECT	ACCESS:          0  HIT:          0  MISS:          0
BTB BRANCH_CONDITIONAL	ACCESS:    1208719  HIT:    1208714  MISS:          5
BTB BRANCH_DIRECT_CALL	ACCESS:          0  HIT:          0  MISS:          0
BTB BRANCH_INDIRECT_CALL	ACCESS:          0  HIT:          0  MISS:          0
BTB BRANCH_RETURN	ACCESS:          0  HIT:          0  MISS:          0
BTB BRANCH_OTHER ACCESS:          0  HIT:          0  MISS:          0

L2C TOTAL     ACCESS:    1617622  HIT:     663459  MISS:     954163  HIT %:    41.0145  MISS %:    58.9855   MPKI: 19.0833
L2C LOAD      ACCESS:     975238  HIT:     454729  MISS:     520509  HIT %:    46.6275  MISS %:    53.3725   MPKI: 10.4102
L2C DATA LOAD MPKI: 10.4102
L2C INSTRUCTION LOAD MPKI: 0
L2C RFO       ACCESS:      24362  HIT:          0  MISS:      24362  HIT %:          0  MISS %:        100   MPKI: 0.48724
L2C PREFETCH  ACCESS:     578430  HIT:     171700  MISS:     406730  HIT %:    29.6838  MISS %:    70.3162   MPKI: 8.1346
L2C DATA PREFETCH MPKI: 8.1346
L2C INSTRUCTION PREFETCH MPKI: 0
L2C WRITEBACK ACCESS:      24738  HIT:      24135  MISS:        603  HIT %:    97.5625  MISS %:    2.43755   MPKI: 0.01206
L2C LOAD TRANSLATION ACCESS:      14854  HIT:      12895  MISS:       1959  HIT %:    86.8116  MISS %:    13.1884   MPKI: 0.03918
L2C PREFETCH  REQUESTED:    3737820  ISSUED:    2734388  USEFUL:     406598  USELESS:        132
L2C USEFUL LOAD PREFETCHES:     406598 PREFETCH ISSUED TO LOWER LEVEL:    2507942  ACCURACY: 16.2124
L2C TIMELY PREFETCHES:     406598 LATE PREFETCHES: 105315 DROPPED PREFETCHES: 0
L2C PREFETCHES SAME FILL-ORIGIN LEVEL: 512049 DIFFERENT FILL-ORIGIN LEVEL: 1995893
L2C AVERAGE MISS LATENCY: 57.6911 cycles
L2C RQ	ACCESS:    1014457	FORWARD:          0	MERGED:          0	TO_CACHE:    1014457
L2C WQ	ACCESS:      24738	FORWARD:          0	MERGED:          0	TO_CACHE:      24738
L2C PQ	ACCESS:    2734388	FORWARD:          0	MERGED:      24737	TO_CACHE:    2709651

Revised Interactions: positive negative neutral
L2C_interactions 405607 89 427 99.8729 0.0219145 0.105141
L2C Instructions Evicting Data 0
L2C Translations Evicting Data 1958
L2C Data Evicting Data 949652
L2C Instructions Evicting Instructions 0
L2C Translations Evicting Instructions 0
L2C Data Evicting Instructions 0
L2C Instructions Evicting Translations 0
L2C Translations Evicting Translations 1
L2C Data Evicting Translations 1949
L2C Dense regions hint from L2: 0
PSCL5 TOTAL     ACCESS:      14852  HIT:      14852  MISS:          0  HIT %:        100  MISS %:          0   MPKI: 0
PSCL5 LOAD TRANSLATION ACCESS:      14852  HIT:      14852  MISS:          0  HIT %:        100  MISS %:          0   MPKI: 0
PSCL5 PREFETCH  REQUESTED:          0  ISSUED:          0  USEFUL:          0  USELESS:          0
PSCL5 USEFUL LOAD PREFETCHES:          0 PREFETCH ISSUED TO LOWER LEVEL:          0  ACCURACY: -nan
PSCL5 TIMELY PREFETCHES:          0 LATE PREFETCHES: 0 DROPPED PREFETCHES: 0
PSCL5 PREFETCHES SAME FILL-ORIGIN LEVEL: 0 DIFFERENT FILL-ORIGIN LEVEL: 0

Revised Interactions: positive negative neutral
PSCL5_interactions 0 0 0 -nan -nan -nan
PSCL4 TOTAL     ACCESS:      14852  HIT:      14852  MISS:          0  HIT %:        100  MISS %:          0   MPKI: 0
PSCL4 LOAD TRANSLATION ACCESS:      14852  HIT:      14852  MISS:          0  HIT %:        100  MISS %:          0   MPKI: 0
PSCL4 PREFETCH  REQUESTED:          0  ISSUED:          0  USEFUL:          0  USELESS:          0
PSCL4 USEFUL LOAD PREFETCHES:          0 PREFETCH ISSUED TO LOWER LEVEL:          0  ACCURACY: -nan
PSCL4 TIMELY PREFETCHES:          0 LATE PREFETCHES: 0 DROPPED PREFETCHES: 0
PSCL4 PREFETCHES SAME FILL-ORIGIN LEVEL: 0 DIFFERENT FILL-ORIGIN LEVEL: 0

Revised Interactions: positive negative neutral
PSCL4_interactions 0 0 0 -nan -nan -nan
PSCL3 TOTAL     ACCESS:      14852  HIT:      14852  MISS:          0  HIT %:        100  MISS %:          0   MPKI: 0
PSCL3 LOAD TRANSLATION ACCESS:      14852  HIT:      14852  MISS:          0  HIT %:        100  MISS %:          0   MPKI: 0
PSCL3 PREFETCH  REQUESTED:          0  ISSUED:          0  USEFUL:          0  USELESS:          0
PSCL3 USEFUL LOAD PREFETCHES:          0 PREFETCH ISSUED TO LOWER LEVEL:          0  ACCURACY: -nan
PSCL3 TIMELY PREFETCHES:          0 LATE PREFETCHES: 0 DROPPED PREFETCHES: 0
PSCL3 PREFETCHES SAME FILL-ORIGIN LEVEL: 0 DIFFERENT FILL-ORIGIN LEVEL: 0

Revised Interactions: positive negative neutral
PSCL3_interactions 0 0 0 -nan -nan -nan
PSCL2 TOTAL     ACCESS:      14852  HIT:      14821  MISS:         31  HIT %:    99.7913  MISS %:   0.208726   MPKI: 0.00062
PSCL2 LOAD TRANSLATION ACCESS:      14852  HIT:      14821  MISS:         31  HIT %:    99.7913  MISS %:   0.208726   MPKI: 0.00062
PSCL2 PREFETCH  REQUESTED:          0  ISSUED:          0  USEFUL:          0  USELESS:          0
PSCL2 USEFUL LOAD PREFETCHES:          0 PREFETCH ISSUED TO LOWER LEVEL:          0  ACCURACY: -nan
PSCL2 TIMELY PREFETCHES:          0 LATE PREFETCHES: 0 DROPPED PREFETCHES: 0
PSCL2 PREFETCHES SAME FILL-ORIGIN LEVEL: 0 DIFFERENT FILL-ORIGIN LEVEL: 0

Revised Interactions: positive negative neutral
PSCL2_interactions 0 0 0 -nan -nan -nan
LLC TOTAL     ACCESS:    2640970  HIT:    1663260  MISS:     977710  HIT %:    62.9791  MISS %:    37.0209   MPKI: 19.5542
LLC LOAD      ACCESS:     415197  HIT:     287598  MISS:     127599  HIT %:    69.2678  MISS %:    30.7322   MPKI: 2.55198
LLC RFO       ACCESS:      24362  HIT:          0  MISS:      24362  HIT %:          0  MISS %:        100   MPKI: 0.48724
LLC PREFETCH  ACCESS:    2175097  HIT:    1375558  MISS:     799539  HIT %:    63.2412  MISS %:    36.7588   MPKI: 15.9908
LLC WRITEBACK ACCESS:      24355  HIT:         79  MISS:      24276  HIT %:   0.324369  MISS %:    99.6756   MPKI: 0.48552
LLC LOAD TRANSLATION ACCESS:       1959  HIT:         25  MISS:       1934  HIT %:    1.27616  MISS %:    98.7238   MPKI: 0.03868
LLC PREFETCH  REQUESTED:          0  ISSUED:          0  USEFUL:     287346  USELESS:     511958
LLC USEFUL LOAD PREFETCHES:     287346 PREFETCH ISSUED TO LOWER LEVEL:     807210  ACCURACY: 35.5974
LLC TIMELY PREFETCHES:     287346 LATE PREFETCHES: 7665 DROPPED PREFETCHES: 0
LLC PREFETCHES SAME FILL-ORIGIN LEVEL: 762316 DIFFERENT FILL-ORIGIN LEVEL: 0
LLC AVERAGE MISS LATENCY: 183.91 cycles
LLC RQ	ACCESS:     441518	FORWARD:          0	MERGED:          0	TO_CACHE:     441518
LLC WQ	ACCESS:      24355	FORWARD:          0	MERGED:          0	TO_CACHE:      24355
LLC PQ	ACCESS:    2507942	FORWARD:          0	MERGED:       3603	TO_CACHE:    2504339

Revised Interactions: positive negative neutral
LLC_interactions 286993 511320 76807 32.7947 58.4286 8.77674
LLC Dense regions hint to LLC: 0

RAW hits: 257968
Loads Generated: 21490025
Loads sent to L1D: 21232054
Stores Generated: 2816716
Stores sent to L1D: 2816716
Major fault: 0 Minor fault: 28543
Allocated PAGES: 28543
 All Calls: 1950500
 Critical Calls: 1950500
------------------
Depth Distribution
------------------
depth 0: 0
depth 1: 1474083
depth 2: 1292900
depth 3: 1184071
depth 4: 830337
depth 5: 23959
depth 6: 0
depth 7: 0
depth 8: 0
depth 9: 0
depth 10: 0
depth 11: 0
depth 12: 0
depth 13: 0
depth 14: 0
depth 15: 0
depth 16: 0
depth 17: 0
depth 18: 0
depth 19: 0
depth 20: 0
depth 21: 0
depth 22: 0
depth 23: 0
depth 24: 0
depth 25: 0
depth 26: 0
depth 27: 0
depth 28: 0
depth 29: 0
Total: 4805350
-----------------------------
-----------------------------
	Captured at Filter
-----------------------------
depth 0: 0
depth 1: 13409
depth 2: 12239
depth 3: 12009
depth 4: 8673
depth 5: 323
depth 6: 0
depth 7: 0
depth 8: 0
depth 9: 0
depth 10: 0
depth 11: 0
depth 12: 0
depth 13: 0
depth 14: 0
depth 15: 0
depth 16: 0
depth 17: 0
depth 18: 0
depth 19: 0
depth 20: 0
depth 21: 0
depth 22: 0
depth 23: 0
depth 24: 0
depth 25: 0
depth 26: 0
depth 27: 0
depth 28: 0
depth 29: 0
-----------------------------
-----------------------------
		Lost at Page
-----------------------------
depth 0: 0
depth 1: 30477
depth 2: 60915
depth 3: 91340
depth 4: 88367
depth 5: 4822
depth 6: 0
depth 7: 0
depth 8: 0
depth 9: 0
depth 10: 0
depth 11: 0
depth 12: 0
depth 13: 0
depth 14: 0
depth 15: 0
depth 16: 0
depth 17: 0
depth 18: 0
depth 19: 0
depth 20: 0
depth 21: 0
depth 22: 0
depth 23: 0
depth 24: 0
depth 25: 0
depth 26: 0
depth 27: 0
depth 28: 0
depth 29: 0
-----------------------------
-----------------------------
	Lost due to PQ Size
-----------------------------
2200173
-----------------------------
ST read accesses: 960783
ST write accesses: 14458
PT read accesses: 24454412
PT write accesses: 1441065
FILTER read accesses: 5692648
FILTER write accesses: 2082673
GHR read accesses: 446578
GHR write accesses: 154647
GHR counter read accesses: 21517782
GHR counter write accesses: 2245189
ST tag read accesses: 382855806
ST tag write accesses: 11628616

DRAM Statistics
 CHANNEL 0
 RQ ROW_BUFFER_HIT:     681240  ROW_BUFFER_MISS:     272194
 DBUS_CONGESTED:        223
 WQ ROW_BUFFER_HIT:        777  ROW_BUFFER_MISS:      23568  FULL:          0

 AVG_CONGESTED_CYCLE: 2
 All warmup complete: 2
Channel 0 Bank busy for read cycles: 0
Channel 0 Bank busy for write cycles: 0
Channel 0
Rank 0
0banks busy for read cycles: 26519006
0banks busy for write cycles: 14679
1banks busy for read cycles: 8509400
1banks busy for write cycles: 1554164
2banks busy for read cycles: 5561747
2banks busy for write cycles: 640149
3banks busy for read cycles: 5000642
3banks busy for write cycles: 248498
4banks busy for read cycles: 3891750
4banks busy for write cycles: 66570
5banks busy for read cycles: 2852104
5banks busy for write cycles: 16043
6banks busy for read cycles: 1245053
6banks busy for write cycles: 4479
7banks busy for read cycles: 372606
7banks busy for write cycles: 751
8banks busy for read cycles: 44486
8banks busy for write cycles: 0

CPU 0 Branch Prediction Accuracy: 81.2317% MPKI: 4.6848 Average ROB Occupancy at Mispredict: 66.115
Branch types
NOT_BRANCH: 48751635 97.5033%
BRANCH_DIRECT_JUMP: 0 0%
BRANCH_INDIRECT: 0 0%
BRANCH_CONDITIONAL: 1248064 2.49613%
BRANCH_DIRECT_CALL: 0 0%
BRANCH_INDIRECT_CALL: 0 0%
BRANCH_RETURN: 0 0%
BRANCH_OTHER: 0 0%

@sumon_overall_L1D         0         0         0         0         0         0         0
@Sumon_Early_by_class_L1D         0         0         0         0
@Sumon_Late_by_class_L1D         0         0         0         0

@Sumon_Early_by_cycle_L1D         0         0         0         0         0         0         0         0         0         0         0         0
@Sumon_Late_by_cycle_L1D         0         0         0         0         0         0
@Sumon_Early_stream_L1D         0         0         0         0         0         0         0         0         0         0         0         0
@Sumon_Early_CS_L1D         0         0         0         0         0         0         0         0         0         0         0         0
@Sumon_Early_CPLX_L1D         0         0         0         0         0         0         0         0         0         0         0         0
@Sumon_Late_stream_L1D         0         0         0         0         0         0
@Sumon_Late_CS_L1D         0         0         0         0         0         0
@Sumon_Late_CPLX_L1D         0         0         0         0         0         0
@sumon_overall_L2C    406598    105315         0       132    406730   2734388   3737820
@Sumon_Early_by_class_L2C         0         0         0         0
@Sumon_Late_by_class_L2C         0         0         0         0

@Sumon_Early_by_cycle_L2C    100241     45651     51337     45999     40811     95528     27027         0         0         0         0         4
@Sumon_Late_by_cycle_L2C     56834     28296      5996      5723      8466         0
@Sumon_Early_stream_L2C         0         0         0         0         0         0         0         0         0         0         0         0
@Sumon_Early_CS_L2C         0         0         0         0         0         0         0         0         0         0         0         0
@Sumon_Early_CPLX_L2C         0         0         0         0         0         0         0         0         0         0         0         0
@Sumon_Late_stream_L2C         0         0         0         0         0         0
@Sumon_Late_CS_L2C         0         0         0         0         0         0
@Sumon_Late_CPLX_L2C         0         0         0         0         0         0
DRAM PAGES: 1048576
Allocated PAGES: 28543
