Initialize SIGNATURE TABLE
ST_SET: 1
ST_WAY: 256
ST_TAG_BIT: 16
ST_TAG_MASK: ffff

Initialize PATTERN TABLE
PT_SET: 512
PT_WAY: 4
SIG_DELTA_BIT: 7
C_SIG_BIT: 4
C_DELTA_BIT: 4

Initialize PREFETCH FILTER
FILTER_SET: 1024

*** ChampSim Multicore Out-of-Order Simulator ***

Warmup Instructions: 50000000
Simulation Instructions: 50000000
Number of CPUs: 1
LLC sets: 2048
LLC ways: 16
Off-chip DRAM Size: 4096 MB Channels: 1 Width: 64-bit Data Rate: 6400 MT/s
CPU 0 runs ../../biswa/SPEC2017Traces/605.mcf_s-665B.champsimtrace.xz
.xz
CPU 0 Bimodal branch predictor
BTB has LRU replacement policy
ITLB has LRU replacement policy
DTLB has LRU replacement policy
STLB has LRU replacement policy
L1I has LRU replacement policy
L1D has LRU replacement policy
ST_WAYS: 256
PT_SETS: 512
Initialize DRRIP state for L2C
Initialize SRRIP state
epoch: 1000
next table: 2955
cur table: 10930
epoch: 1000
next table: 2499
cur table: 2955
epoch: 1000
next table: 2346
cur table: 2499
epoch: 1000
next table: 2262
cur table: 2346
epoch: 1000
next table: 2242
cur table: 2262
epoch: 1000
next table: 2166
cur table: 2242
epoch: 1000
next table: 3115
cur table: 2166
epoch: 1000
next table: 4630
cur table: 3115
epoch: 1000
next table: 2145
cur table: 4630
epoch: 1000
next table: 7950
cur table: 11596
epoch: 1000
next table: 2166
cur table: 2145
epoch: 1000
next table: 2224
cur table: 2166
epoch: 1000
next table: 2235
cur table: 2224
epoch: 1000
next table: 2194
cur table: 2235
epoch: 1000
next table: 2260
cur table: 2194
epoch: 1000
next table: 2255
cur table: 2260
epoch: 1000
next table: 6451
cur table: 7950
epoch: 1000
next table: 2184
cur table: 2255
epoch: 1000
next table: 2178
cur table: 2184
epoch: 1000
next table: 2194
cur table: 2178
epoch: 1000
next table: 2139
cur table: 2194
epoch: 1000
next table: 2658
cur table: 2139
epoch: 1000
next table: 6029
cur table: 6451
epoch: 1000
next table: 5178
cur table: 2658
epoch: 1000
next table: 2197
cur table: 5178
epoch: 1000
next table: 2137
cur table: 2197
epoch: 1000
next table: 2201
cur table: 2137
epoch: 1000
next table: 5101
cur table: 6029
epoch: 1000
next table: 2230
cur table: 2201
epoch: 1000
next table: 2174
cur table: 2230
epoch: 1000
next table: 2254
cur table: 2174
epoch: 1000
next table: 2275
cur table: 2254
epoch: 1000
next table: 4845
cur table: 5101
epoch: 1000
next table: 2224
cur table: 2275
epoch: 1000
next table: 2187
cur table: 2224
epoch: 1000
next table: 2208
cur table: 2187
epoch: 1000
next table: 2158
cur table: 2208
epoch: 1000
next table: 2309
cur table: 2158
epoch: 1000
next table: 5233
cur table: 4845
epoch: 1000
next table: 5593
cur table: 2309
epoch: 1000
next table: 2197
cur table: 5593
epoch: 1000
next table: 2130
cur table: 2197
epoch: 1000
next table: 2187
cur table: 2130
epoch: 1000
next table: 4531
cur table: 5233
epoch: 1000
next table: 2240
cur table: 2187
epoch: 1000
next table: 2218
cur table: 2240
epoch: 1000
next table: 2245
cur table: 2218
epoch: 1000
next table: 4131
cur table: 4531
epoch: 1000
next table: 2278
cur table: 2245
epoch: 1000
next table: 2256
cur table: 2278
epoch: 1000
next table: 2178
cur table: 2256
epoch: 1000
next table: 3887
cur table: 4131
epoch: 1000
next table: 2196
cur table: 2178
epoch: 1000
next table: 2158
cur table: 2196
epoch: 1000
next table: 2286
cur table: 2158
epoch: 1000
next table: 4036
cur table: 3887
epoch: 1000
next table: 5440
cur table: 2286
epoch: 1000
next table: 2678
cur table: 5440
epoch: 1000
next table: 2101
cur table: 2678
epoch: 1000
next table: 3190
cur table: 4036
epoch: 1000
next table: 2173
cur table: 2101
epoch: 1000
next table: 2204
cur table: 2173
epoch: 1000
next table: 3286
cur table: 3190
epoch: 1000
next table: 2229
cur table: 2204
epoch: 1000
next table: 2203
cur table: 2229
epoch: 1000
next table: 2269
cur table: 2203
epoch: 1000
next table: 3357
cur table: 3286
epoch: 1000
next table: 2253
cur table: 2269
epoch: 1000
next table: 2207
cur table: 2253
epoch: 1000
next table: 3199
cur table: 3357
epoch: 1000
next table: 2180
cur table: 2207
epoch: 1000
next table: 2210
cur table: 2180
epoch: 1000
next table: 3158
cur table: 3199
epoch: 1000
next table: 2152
cur table: 2210
epoch: 1000
next table: 3254
cur table: 2152
epoch: 1000
next table: 4711
cur table: 3254
epoch: 1000
next table: 3963
cur table: 3158
epoch: 1000
next table: 2123
cur table: 4711
epoch: 1000
next table: 2142
cur table: 2123
epoch: 1000
next table: 2809
cur table: 3963
epoch: 1000
next table: 2206
cur table: 2142
epoch: 1000
next table: 2237
cur table: 2206
epoch: 1000
next table: 2986
cur table: 2809
epoch: 1000
next table: 2218
cur table: 2237
epoch: 1000
next table: 2272
cur table: 2218
epoch: 1000
next table: 2274
cur table: 2272
epoch: 1000
next table: 3041
cur table: 2986
epoch: 1000
next table: 2222
cur table: 2274
epoch: 1000
next table: 2171
cur table: 2222
epoch: 1000
next table: 2936
cur table: 3041
epoch: 1000
next table: 2221
cur table: 2171
epoch: 1000
next table: 2176
cur table: 2221
epoch: 1000
next table: 2931
cur table: 2936
epoch: 1000
next table: 3022
cur table: 2176
epoch: 1000
next table: 5150
cur table: 3022
epoch: 1000
next table: 2120
cur table: 5150
epoch: 1000
next table: 3700
cur table: 2931
epoch: 1000
next table: 2135
cur table: 2120
epoch: 1000
next table: 2232
cur table: 2135
epoch: 1000
next table: 2758
cur table: 3700
epoch: 1000
next table: 2224
cur table: 2232
epoch: 1000
next table: 2202
cur table: 2224
epoch: 1000
next table: 2906
cur table: 2758
epoch: 1000
next table: 2268
cur table: 2202
epoch: 1000
next table: 2276
cur table: 2268
epoch: 1000
next table: 2949
cur table: 2906
epoch: 1000
next table: 2237
cur table: 2276
epoch: 1000
next table: 2189
cur table: 2237
epoch: 1000
next table: 2870
cur table: 2949
epoch: 1000
next table: 2235
cur table: 2189
epoch: 1000
next table: 2162
cur table: 2235
epoch: 1000
next table: 2879
cur table: 2870
epoch: 1000
next table: 3272
cur table: 2162
epoch: 1000
next table: 4586
cur table: 3272
epoch: 1000
next table: 3597
cur table: 2879
epoch: 1000
next table: 2139
cur table: 4586
epoch: 1000
next table: 2128
cur table: 2139
epoch: 1000
next table: 2712
cur table: 3597
epoch: 1000
next table: 2236
cur table: 2128
epoch: 1000
next table: 2229
cur table: 2236
epoch: 1000
next table: 2809
cur table: 2712
epoch: 1000
next table: 2200
cur table: 2229
epoch: 1000
next table: 2283
cur table: 2200
epoch: 1000
next table: 2938
cur table: 2809
epoch: 1000
next table: 2306
cur table: 2283
epoch: 1000
next table: 2243
cur table: 2306
epoch: 1000
next table: 2875
cur table: 2938
epoch: 1000
next table: 2188
cur table: 2243
epoch: 1000
next table: 2230
cur table: 2188
epoch: 1000
next table: 2982
cur table: 2875
epoch: 1000
next table: 2155
cur table: 2230
epoch: 1000
next table: 3028
cur table: 2155
epoch: 1000
next table: 5574
cur table: 3028
epoch: 1000
next table: 3647
cur table: 2982
epoch: 1000
next table: 2122
cur table: 5574
epoch: 1000
next table: 2148
cur table: 2122
epoch: 1000
next table: 2715
cur table: 3647
epoch: 1000
next table: 2228
cur table: 2148
epoch: 1000
next table: 2232
cur table: 2228
epoch: 1000
next table: 2835
cur table: 2715
epoch: 1000
next table: 2190
cur table: 2232
epoch: 1000
next table: 2266
cur table: 2190
epoch: 1000
next table: 2940
cur table: 2835
epoch: 1000
next table: 2295
cur table: 2266
epoch: 1000
next table: 2219
cur table: 2295
epoch: 1000
next table: 2866
cur table: 2940
epoch: 1000
next table: 2196
cur table: 2219
epoch: 1000
next table: 2214
cur table: 2196
epoch: 1000
next table: 2903
cur table: 2866
epoch: 1000
next table: 2145
cur table: 2214
epoch: 1000
next table: 2815
cur table: 2145
epoch: 1000
next table: 4959
cur table: 2815
epoch: 1000
next table: 3746
cur table: 2903
epoch: 1000
next table: 2117
cur table: 4959
epoch: 1000
next table: 2131
cur table: 2117
epoch: 1000
next table: 2664
cur table: 3746
epoch: 1000
next table: 2234
cur table: 2131
epoch: 1000
next table: 2237
cur table: 2234
epoch: 1000
next table: 2699
cur table: 2664
epoch: 1000
next table: 2186
cur table: 2237
epoch: 1000
next table: 2225
cur table: 2186
epoch: 1000
next table: 2899
cur table: 2699
epoch: 1000
next table: 2263
cur table: 2225
epoch: 1000
next table: 2235
cur table: 2263
epoch: 1000
next table: 2812
cur table: 2899
epoch: 1000
next table: 2200
cur table: 2235
epoch: 1000
next table: 2207
cur table: 2200
epoch: 1000
next table: 2830
cur table: 2812
epoch: 1000
next table: 2174
cur table: 2207
epoch: 1000
next table: 2794
cur table: 2174
epoch: 1000
next table: 3728
cur table: 2830
epoch: 1000
next table: 5038
cur table: 2794
epoch: 1000
next table: 2119
cur table: 5038
epoch: 1000
next table: 2570
cur table: 3728
epoch: 1000
next table: 2169
cur table: 2119
epoch: 1000
next table: 2211
cur table: 2169
epoch: 1000
next table: 2630
cur table: 2570
epoch: 1000
next table: 2248
cur table: 2211
epoch: 1000
next table: 2198
cur table: 2248
epoch: 1000
next table: 2864
cur table: 2630
epoch: 1000
next table: 2261
cur table: 2198
epoch: 1000
next table: 2293
cur table: 2261
epoch: 1000
next table: 2888
cur table: 2864
epoch: 1000
next table: 2216
cur table: 2293
epoch: 1000
next table: 2220
cur table: 2216
epoch: 1000
next table: 2771
cur table: 2888
epoch: 1000
next table: 2237
cur table: 2220
epoch: 1000
next table: 2155
cur table: 2237
epoch: 1000
next table: 2827
cur table: 2771
epoch: 1000
next table: 2744
cur table: 2155
epoch: 1000
next table: 5419
cur table: 2744
epoch: 1000
next table: 3482
cur table: 2827
epoch: 1000
next table: 2117
cur table: 5419
epoch: 1000
next table: 2155
cur table: 2117
epoch: 1000
next table: 2627
cur table: 3482
epoch: 1000
next table: 2210
cur table: 2155
epoch: 1000
next table: 2232
cur table: 2210
epoch: 1000
next table: 2747
cur table: 2627
epoch: 1000
next table: 2207
cur table: 2232
epoch: 1000
next table: 2279
cur table: 2207
epoch: 1000
next table: 2818
cur table: 2747
epoch: 1000
next table: 2282
cur table: 2279
epoch: 1000
next table: 2209
cur table: 2282
epoch: 1000
next table: 2795
cur table: 2818
epoch: 1000
next table: 2188
cur table: 2209
epoch: 1000
next table: 2241
cur table: 2188
epoch: 1000
next table: 2856
cur table: 2795
epoch: 1000
next table: 2147
cur table: 2241
epoch: 1000
next table: 2850
cur table: 2147
epoch: 1000
next table: 5097
cur table: 2850
epoch: 1000
next table: 3446
cur table: 2856
epoch: 1000
next table: 2497
cur table: 5097
epoch: 1000
next table: 2680
cur table: 3446
epoch: 1000
next table: 2111
cur table: 2497
epoch: 1000
next table: 2179
cur table: 2111
epoch: 1000
next table: 2648
cur table: 2680
epoch: 1000
next table: 2216
cur table: 2179
epoch: 1000
next table: 2196
cur table: 2216
epoch: 1000
next table: 2759
cur table: 2648
epoch: 1000
next table: 2218
cur table: 2196
epoch: 1000
next table: 2267
cur table: 2218
epoch: 1000
next table: 2879
cur table: 2759
epoch: 1000
next table: 2245
cur table: 2267
epoch: 1000
next table: 2216
cur table: 2245
epoch: 1000
next table: 2754
cur table: 2879
epoch: 1000
next table: 2201
cur table: 2216
epoch: 1000
next table: 2218
cur table: 2201
epoch: 1000
next table: 2790
cur table: 2754
epoch: 1000
next table: 2173
cur table: 2218
epoch: 1000
next table: 4439
cur table: 2173
epoch: 1000
next table: 3337
cur table: 2790
epoch: 1000
next table: 3417
cur table: 4439
epoch: 1000
next table: 2686
cur table: 3417
epoch: 1000
next table: 2635
cur table: 3337
epoch: 1000
next table: 2135
cur table: 2686
epoch: 1000
next table: 2220
cur table: 2135
epoch: 1000
next table: 2659
cur table: 2635
epoch: 1000
next table: 2228
cur table: 2220
epoch: 1000
next table: 2202
cur table: 2228
epoch: 1000
next table: 2725
cur table: 2659
epoch: 1000
next table: 2247
cur table: 2202
epoch: 1000
next table: 2283
cur table: 2247
epoch: 1000
next table: 2872
cur table: 2725
epoch: 1000
next table: 2234
cur table: 2283
epoch: 1000
next table: 2191
cur table: 2234
epoch: 1000
next table: 2841
cur table: 2872
epoch: 1000
next table: 2229
cur table: 2191
epoch: 1000
next table: 2161
cur table: 2229
epoch: 1000
next table: 2861
cur table: 2841
epoch: 1000
next table: 2487
cur table: 2161
epoch: 1000
next table: 5556
cur table: 2487
epoch: 1000
next table: 3516
cur table: 2861
epoch: 1000
next table: 2200
cur table: 5556
epoch: 1000
next table: 2134
cur table: 2200
epoch: 1000
next table: 2654
cur table: 3516
epoch: 1000
next table: 2207
cur table: 2134
epoch: 1000
next table: 2256
cur table: 2207
epoch: 1000
next table: 2678
cur table: 2654
epoch: 1000
next table: 2226
cur table: 2256
epoch: 1000
next table: 2256
cur table: 2226
epoch: 1000
next table: 2768
cur table: 2678
epoch: 1000
next table: 2298
cur table: 2256
epoch: 1000
next table: 2240
cur table: 2298
epoch: 1000
next table: 2785
cur table: 2768
epoch: 1000
next table: 2204
cur table: 2240
epoch: 1000
next table: 2237
cur table: 2204
epoch: 1000
next table: 2814
cur table: 2785
epoch: 1000
next table: 2178
cur table: 2237
epoch: 1000
next table: 2445
cur table: 2178
epoch: 1000
next table: 3335
cur table: 2814
epoch: 1000
next table: 5762
cur table: 2445
epoch: 1000
next table: 2196
cur table: 5762
epoch: 1000
next table: 3055
cur table: 3335
epoch: 1000
next table: 2122
cur table: 2196
epoch: 1000
next table: 2207
cur table: 2122
epoch: 1000
next table: 2715
cur table: 3055
epoch: 1000
next table: 2244
cur table: 2207
epoch: 1000
next table: 2206
cur table: 2244
epoch: 1000
next table: 2768
cur table: 2715
epoch: 1000
next table: 2237
cur table: 2206
epoch: 1000
next table: 2280
cur table: 2237
epoch: 1000
next table: 2893
cur table: 2768
epoch: 1000
next table: 2244
cur table: 2280
epoch: 1000
next table: 2199
cur table: 2244
epoch: 1000
next table: 2782
cur table: 2893
epoch: 1000
next table: 2251
cur table: 2199
epoch: 1000
next table: 2187
cur table: 2251
epoch: 1000
next table: 2882
cur table: 2782
epoch: 1000
next table: 2274
cur table: 2187
epoch: 1000
next table: 5687
cur table: 2274
epoch: 1000
next table: 2224
cur table: 5687
epoch: 1000
next table: 3503
cur table: 2882
epoch: 1000
next table: 2124
cur table: 2224
epoch: 1000
next table: 2651
cur table: 3503
epoch: 1000
next table: 2242
cur table: 2124
epoch: 1000
next table: 2256
cur table: 2242
epoch: 1000
next table: 2729
cur table: 2651
epoch: 1000
next table: 2197
cur table: 2256
epoch: 1000
next table: 2247
cur table: 2197
epoch: 1000
next table: 2887
cur table: 2729
epoch: 1000
next table: 2297
cur table: 2247
epoch: 1000
next table: 2254
cur table: 2297
epoch: 1000
next table: 2790
cur table: 2887
epoch: 1000
next table: 2181
cur table: 2254
epoch: 1000
next table: 2232
cur table: 2181
epoch: 1000
next table: 2889
cur table: 2790
epoch: 1000
next table: 2194
cur table: 2232
epoch: 1000
next table: 2233
cur table: 2194
epoch: 1000
next table: 5732
cur table: 2233
epoch: 1000
next table: 3672
cur table: 2889
epoch: 1000
next table: 2247
cur table: 5732
epoch: 1000
next table: 2103
cur table: 2247
epoch: 1000
next table: 2634
cur table: 3672
epoch: 1000
next table: 2212
cur table: 2103
epoch: 1000
next table: 2249
cur table: 2212
epoch: 1000
next table: 2713
cur table: 2634
epoch: 1000
next table: 2215
cur table: 2249
epoch: 1000
next table: 2257
cur table: 2215
epoch: 1000
next table: 2871
cur table: 2713
epoch: 1000
next table: 2294
cur table: 2257
epoch: 1000
next table: 2252
cur table: 2294
epoch: 1000
next table: 2935
cur table: 2871
epoch: 1000
next table: 2197
cur table: 2252
epoch: 1000
next table: 2235
cur table: 2197
epoch: 1000
next table: 2939
cur table: 2935
epoch: 1000
next table: 2172
cur table: 2235
epoch: 1000
next table: 2181
cur table: 2172
epoch: 1000
next table: 6091
cur table: 2181
epoch: 1000
next table: 3555
cur table: 2939
epoch: 1000
next table: 2247
cur table: 6091
epoch: 1000
next table: 2120
cur table: 2247
epoch: 1000
next table: 2881
cur table: 3555
epoch: 1000
next table: 2205
cur table: 2120
epoch: 1000
next table: 2670
cur table: 2881
epoch: 1000
next table: 2242
cur table: 2205
epoch: 1000
next table: 2212
cur table: 2242
epoch: 1000
next table: 2835
cur table: 2670
epoch: 1000
next table: 2216
cur table: 2212
epoch: 1000
next table: 2284
cur table: 2216
epoch: 1000
next table: 2906
cur table: 2835
epoch: 1000
next table: 2237
cur table: 2284
epoch: 1000
next table: 2209
cur table: 2237
epoch: 1000
next table: 2899
cur table: 2906
epoch: 1000
next table: 2237
cur table: 2209
epoch: 1000
next table: 2201
cur table: 2237
epoch: 1000
next table: 2915
cur table: 2899
epoch: 1000
next table: 2168
cur table: 2201
epoch: 1000
next table: 5727
cur table: 2168
epoch: 1000
next table: 2347
cur table: 5727
epoch: 1000
next table: 3412
cur table: 2915
epoch: 1000
next table: 2108
cur table: 2347
epoch: 1000
next table: 2191
cur table: 2108
epoch: 1000
next table: 2607
cur table: 3412
epoch: 1000
next table: 2255
cur table: 2191
epoch: 1000
next table: 2206
cur table: 2255
epoch: 1000
next table: 2738
cur table: 2607
epoch: 1000
next table: 2215
cur table: 2206
epoch: 1000
next table: 2269
cur table: 2215
epoch: 1000
next table: 2893
cur table: 2738
epoch: 1000
next table: 2258
cur table: 2269
epoch: 1000
next table: 2196
cur table: 2258
epoch: 1000
next table: 2850
cur table: 2893
epoch: 1000
next table: 2204
cur table: 2196
epoch: 1000
next table: 2184
cur table: 2204
epoch: 1000
next table: 2853
cur table: 2850
epoch: 1000
next table: 2152
cur table: 2184
epoch: 1000
next table: 4991
cur table: 2152
Heartbeat CPU 0 instructions: 10000000 cycles: 3305666 heartbeat IPC: 3.02511 cumulative IPC: 3.02511 (Simulation time: 0 hr 3 min 10 sec) 
epoch: 1000
next table: 3616
cur table: 2853
epoch: 1000
next table: 2977
cur table: 4991
epoch: 1000
next table: 2087
cur table: 2977
epoch: 1000
next table: 2654
cur table: 3616
epoch: 1000
next table: 2175
cur table: 2087
epoch: 1000
next table: 2266
cur table: 2175
epoch: 1000
next table: 2648
cur table: 2654
epoch: 1000
next table: 2187
cur table: 2266
epoch: 1000
next table: 2218
cur table: 2187
epoch: 1000
next table: 2861
cur table: 2648
epoch: 1000
next table: 2271
cur table: 2218
epoch: 1000
next table: 2266
cur table: 2271
epoch: 1000
next table: 2933
cur table: 2861
epoch: 1000
next table: 2204
cur table: 2266
epoch: 1000
next table: 2209
cur table: 2204
epoch: 1000
next table: 2916
cur table: 2933
epoch: 1000
next table: 2208
cur table: 2209
epoch: 1000
next table: 2157
cur table: 2208
epoch: 1000
next table: 4932
cur table: 2157
epoch: 1000
next table: 3482
cur table: 2916
epoch: 1000
next table: 3639
cur table: 4932
epoch: 1000
next table: 2120
cur table: 3639
epoch: 1000
next table: 2968
cur table: 3482
epoch: 1000
next table: 2168
cur table: 2120
epoch: 1000
next table: 2272
cur table: 2168
epoch: 1000
next table: 2724
cur table: 2968
epoch: 1000
next table: 2205
cur table: 2272
epoch: 1000
next table: 2195
cur table: 2205
epoch: 1000
next table: 2867
cur table: 2724
epoch: 1000
next table: 2292
cur table: 2195
epoch: 1000
next table: 2265
cur table: 2292
epoch: 1000
next table: 3020
cur table: 2867
epoch: 1000
next table: 2231
cur table: 2265
epoch: 1000
next table: 2210
cur table: 2231
epoch: 1000
next table: 2891
cur table: 3020
epoch: 1000
next table: 2228
cur table: 2210
epoch: 1000
next table: 2173
cur table: 2228
epoch: 1000
next table: 2886
cur table: 2891
epoch: 1000
next table: 3518
cur table: 2173
epoch: 1000
next table: 4678
cur table: 3518
epoch: 1000
next table: 3581
cur table: 2886
epoch: 1000
next table: 2124
cur table: 4678
epoch: 1000
next table: 2186
cur table: 2124
epoch: 1000
next table: 2630
cur table: 3581
epoch: 1000
next table: 2233
cur table: 2186
epoch: 1000
next table: 2217
cur table: 2233
epoch: 1000
next table: 2775
cur table: 2630
epoch: 1000
next table: 2190
cur table: 2217
epoch: 1000
next table: 2251
cur table: 2190
epoch: 1000
next table: 2925
cur table: 2775
epoch: 1000
next table: 2267
cur table: 2251
epoch: 1000
next table: 2221
cur table: 2267
epoch: 1000
next table: 2961
cur table: 2925
epoch: 1000
next table: 2203
cur table: 2221
epoch: 1000
next table: 2267
cur table: 2203
epoch: 1000
next table: 2913
cur table: 2961
epoch: 1000
next table: 2167
cur table: 2267
epoch: 1000
next table: 2890
cur table: 2167
epoch: 1000
next table: 5542
cur table: 2890
epoch: 1000
next table: 3305
cur table: 2913
epoch: 1000
next table: 2655
cur table: 5542
epoch: 1000
next table: 2112
cur table: 2655
epoch: 1000
next table: 2626
cur table: 3305
epoch: 1000
next table: 2209
cur table: 2112
epoch: 1000
next table: 2623
cur table: 2626
epoch: 1000
next table: 2238
cur table: 2209
epoch: 1000
next table: 2182
cur table: 2238
epoch: 1000
next table: 2860
cur table: 2623
epoch: 1000
next table: 2211
cur table: 2182
epoch: 1000
next table: 2283
cur table: 2211
epoch: 1000
next table: 3023
cur table: 2860
epoch: 1000
next table: 2259
cur table: 2283
epoch: 1000
next table: 2190
cur table: 2259
epoch: 1000
next table: 2201
cur table: 2190
epoch: 1000
next table: 2936
cur table: 3023
epoch: 1000
next table: 2214
cur table: 2201
epoch: 1000
next table: 2163
cur table: 2214
epoch: 1000
next table: 2919
cur table: 2936
epoch: 1000
next table: 3948
cur table: 2163
epoch: 1000
next table: 4451
cur table: 3948
epoch: 1000
next table: 3580
cur table: 2919
epoch: 1000
next table: 2115
cur table: 4451
epoch: 1000
next table: 2169
cur table: 2115
epoch: 1000
next table: 2585
cur table: 3580
epoch: 1000
next table: 2268
cur table: 2169
epoch: 1000
next table: 2218
cur table: 2268
epoch: 1000
next table: 2760
cur table: 2585
epoch: 1000
next table: 2209
cur table: 2218
epoch: 1000
next table: 2289
cur table: 2209
epoch: 1000
next table: 2989
cur table: 2760
epoch: 1000
next table: 2260
cur table: 2289
epoch: 1000
next table: 2219
cur table: 2260
epoch: 1000
next table: 2880
cur table: 2989
epoch: 1000
next table: 2170
cur table: 2219
epoch: 1000
next table: 2230
cur table: 2170
epoch: 1000
next table: 2874
cur table: 2880
epoch: 1000
next table: 2144
cur table: 2230
epoch: 1000
next table: 3024
cur table: 2144
epoch: 1000
next table: 5601
cur table: 3024
epoch: 1000
next table: 3681
cur table: 2874
epoch: 1000
next table: 2114
cur table: 5601
epoch: 1000
next table: 2496
cur table: 3681
epoch: 1000
next table: 2169
cur table: 2114
epoch: 1000
next table: 2246
cur table: 2169
epoch: 1000
next table: 2666
cur table: 2496
epoch: 1000
next table: 2220
cur table: 2246
epoch: 1000
next table: 2202
cur table: 2220
epoch: 1000
next table: 2886
cur table: 2666
epoch: 1000
next table: 2254
cur table: 2202
epoch: 1000
next table: 2292
cur table: 2254
epoch: 1000
next table: 2865
cur table: 2886
epoch: 1000
next table: 2217
cur table: 2292
epoch: 1000
next table: 2213
cur table: 2217
epoch: 1000
next table: 2896
cur table: 2865
epoch: 1000
next table: 2208
cur table: 2213
epoch: 1000
next table: 2165
cur table: 2208
epoch: 1000
next table: 2621
cur table: 2165
epoch: 1000
next table: 3477
cur table: 2896
epoch: 1000
next table: 5524
cur table: 2621
epoch: 1000
next table: 2161
cur table: 5524
epoch: 1000
next table: 2912
cur table: 3477
epoch: 1000
next table: 2147
cur table: 2161
epoch: 1000
next table: 2255
cur table: 2147
epoch: 1000
next table: 2627
cur table: 2912
epoch: 1000
next table: 2226
cur table: 2255
epoch: 1000
next table: 2202
cur table: 2226
epoch: 1000
next table: 2845
cur table: 2627
epoch: 1000
next table: 2260
cur table: 2202
epoch: 1000
next table: 2271
cur table: 2260
epoch: 1000
next table: 2929
cur table: 2845
epoch: 1000
next table: 2268
cur table: 2271
epoch: 1000
next table: 2193
cur table: 2268
epoch: 1000
next table: 2926
cur table: 2929
epoch: 1000
next table: 2235
cur table: 2193
epoch: 1000
next table: 2164
cur table: 2235
epoch: 1000
next table: 2915
cur table: 2926
epoch: 1000
next table: 2440
cur table: 2164
epoch: 1000
next table: 5929
cur table: 2440
epoch: 1000
next table: 2205
cur table: 5929
epoch: 1000
next table: 3585
cur table: 2915
epoch: 1000
next table: 2130
cur table: 2205
epoch: 1000
next table: 2237
cur table: 2130
epoch: 1000
next table: 2658
cur table: 3585
epoch: 1000
next table: 2253
cur table: 2237
epoch: 1000
next table: 2781
cur table: 2658
epoch: 1000
next table: 2198
cur table: 2253
epoch: 1000
next table: 2242
cur table: 2198
epoch: 1000
next table: 2280
cur table: 2242
epoch: 1000
next table: 2905
cur table: 2781
epoch: 1000
next table: 2279
cur table: 2280
epoch: 1000
next table: 2185
cur table: 2279
epoch: 1000
next table: 2908
cur table: 2905
epoch: 1000
next table: 2231
cur table: 2185
epoch: 1000
next table: 2168
cur table: 2231
epoch: 1000
next table: 2896
cur table: 2908
epoch: 1000
next table: 2339
cur table: 2168
epoch: 1000
next table: 6087
cur table: 2339
epoch: 1000
next table: 3577
cur table: 2896
epoch: 1000
next table: 2226
cur table: 6087
epoch: 1000
next table: 2114
cur table: 2226
epoch: 1000
next table: 2624
cur table: 3577
epoch: 1000
next table: 2176
cur table: 2114
epoch: 1000
next table: 2278
cur table: 2176
epoch: 1000
next table: 2706
cur table: 2624
epoch: 1000
next table: 2192
cur table: 2278
epoch: 1000
next table: 2217
cur table: 2192
epoch: 1000
next table: 2874
cur table: 2706
epoch: 1000
next table: 2264
cur table: 2217
epoch: 1000
next table: 2263
cur table: 2264
epoch: 1000
next table: 2866
cur table: 2874
epoch: 1000
next table: 2227
cur table: 2263
epoch: 1000
next table: 2214
cur table: 2227
epoch: 1000
next table: 2815
cur table: 2866
epoch: 1000
next table: 2205
cur table: 2214
epoch: 1000
next table: 2162
cur table: 2205
epoch: 1000
next table: 3343
cur table: 2815
epoch: 1000
next table: 5568
cur table: 2162
epoch: 1000
next table: 2526
cur table: 5568
epoch: 1000
next table: 2903
cur table: 3343
epoch: 1000
next table: 2832
cur table: 2526
epoch: 1000
next table: 2130
cur table: 2832
epoch: 1000
next table: 2546
cur table: 2903
epoch: 1000
next table: 2210
cur table: 2130
epoch: 1000
next table: 2244
cur table: 2210
epoch: 1000
next table: 2684
cur table: 2546
epoch: 1000
next table: 2181
cur table: 2244
epoch: 1000
next table: 2212
cur table: 2181
epoch: 1000
next table: 2886
cur table: 2684
epoch: 1000
next table: 2291
cur table: 2212
epoch: 1000
next table: 2256
cur table: 2291
epoch: 1000
next table: 2846
cur table: 2886
epoch: 1000
next table: 2201
cur table: 2256
epoch: 1000
next table: 2196
cur table: 2201
epoch: 1000
next table: 2816
cur table: 2846
epoch: 1000
next table: 2184
cur table: 2196
epoch: 1000
next table: 2167
cur table: 2184
epoch: 1000
next table: 3408
cur table: 2816
epoch: 1000
next table: 6013
cur table: 2167
epoch: 1000
next table: 2800
cur table: 6013
epoch: 1000
next table: 2889
cur table: 3408
epoch: 1000
next table: 2112
cur table: 2800
epoch: 1000
next table: 2188
cur table: 2112
epoch: 1000
next table: 2575
cur table: 2889
epoch: 1000
next table: 2259
cur table: 2188
epoch: 1000
next table: 2211
cur table: 2259
epoch: 1000
next table: 2680
cur table: 2575
epoch: 1000
next table: 2182
cur table: 2211
epoch: 1000
next table: 2241
cur table: 2182
epoch: 1000
next table: 2834
cur table: 2680
epoch: 1000
next table: 2288
cur table: 2241
epoch: 1000
next table: 2212
cur table: 2288
epoch: 1000
next table: 2823
cur table: 2834
epoch: 1000
next table: 2199
cur table: 2212
epoch: 1000
next table: 2207
cur table: 2199
epoch: 1000
next table: 2769
cur table: 2823
epoch: 1000
next table: 2168
cur table: 2207
epoch: 1000
next table: 2659
cur table: 2168
epoch: 1000
next table: 3367
cur table: 2769
epoch: 1000
next table: 5727
cur table: 2659
epoch: 1000
next table: 2701
cur table: 5727
epoch: 1000
next table: 2943
cur table: 3367
epoch: 1000
next table: 2097
cur table: 2701
epoch: 1000
next table: 2172
cur table: 2097
epoch: 1000
next table: 2636
cur table: 2943
epoch: 1000
next table: 2265
cur table: 2172
epoch: 1000
next table: 2175
cur table: 2265
epoch: 1000
next table: 2744
cur table: 2636
epoch: 1000
next table: 2196
cur table: 2175
epoch: 1000
next table: 2286
cur table: 2196
epoch: 1000
next table: 2884
cur table: 2744
epoch: 1000
next table: 2261
cur table: 2286
epoch: 1000
next table: 2223
cur table: 2261
epoch: 1000
next table: 2828
cur table: 2884
epoch: 1000
next table: 2208
cur table: 2223
epoch: 1000
next table: 2220
cur table: 2208
epoch: 1000
next table: 2811
cur table: 2828
epoch: 1000
next table: 2150
cur table: 2220
epoch: 1000
next table: 3476
cur table: 2150
epoch: 1000
next table: 3433
cur table: 2811
epoch: 1000
next table: 4970
cur table: 3476
epoch: 1000
next table: 2737
cur table: 4970
epoch: 1000
next table: 2878
cur table: 3433
epoch: 1000
next table: 2129
cur table: 2737
epoch: 1000
next table: 2197
cur table: 2129
epoch: 1000
next table: 2658
cur table: 2878
epoch: 1000
next table: 2251
cur table: 2197
epoch: 1000
next table: 2197
cur table: 2251
epoch: 1000
next table: 2715
cur table: 2658
epoch: 1000
next table: 2213
cur table: 2197
epoch: 1000
next table: 2260
cur table: 2213
epoch: 1000
next table: 2857
cur table: 2715
epoch: 1000
next table: 2228
cur table: 2260
epoch: 1000
next table: 2199
cur table: 2228
epoch: 1000
next table: 2756
cur table: 2857
epoch: 1000
next table: 2201
cur table: 2199
epoch: 1000
next table: 2820
cur table: 2756
epoch: 1000
next table: 2167
cur table: 2201
epoch: 1000
next table: 2132
cur table: 2167
epoch: 1000
next table: 4925
cur table: 2132
epoch: 1000
next table: 3406
cur table: 2820
epoch: 1000
next table: 3613
cur table: 4925
epoch: 1000
next table: 2196
cur table: 3613
epoch: 1000
next table: 2892
cur table: 3406
epoch: 1000
next table: 2129
cur table: 2196
epoch: 1000
next table: 2199
cur table: 2129
epoch: 1000
next table: 2672
cur table: 2892
epoch: 1000
next table: 2257
cur table: 2199
epoch: 1000
next table: 2190
cur table: 2257
epoch: 1000
next table: 2798
cur table: 2672
epoch: 1000
next table: 2241
cur table: 2190
epoch: 1000
next table: 2289
cur table: 2241
epoch: 1000
next table: 2882
cur table: 2798
epoch: 1000
next table: 2253
cur table: 2289
epoch: 1000
next table: 2176
cur table: 2253
epoch: 1000
next table: 2842
cur table: 2882
epoch: 1000
next table: 2211
cur table: 2176
epoch: 1000
next table: 2147
cur table: 2211
epoch: 1000
next table: 2908
cur table: 2842
epoch: 1000
next table: 2251
cur table: 2147
epoch: 1000
next table: 5697
cur table: 2251
epoch: 1000
next table: 2727
cur table: 5697
epoch: 1000
next table: 3674
cur table: 2908
epoch: 1000
next table: 2115
cur table: 2727
epoch: 1000
next table: 2608
cur table: 3674
epoch: 1000
next table: 2185
cur table: 2115
epoch: 1000
next table: 2231
cur table: 2185
epoch: 1000
next table: 2672
cur table: 2608
epoch: 1000
next table: 2201
cur table: 2231
epoch: 1000
next table: 2207
cur table: 2201
epoch: 1000
next table: 2830
cur table: 2672
epoch: 1000
next table: 2264
cur table: 2207
epoch: 1000
next table: 2257
cur table: 2264
epoch: 1000
next table: 2867
cur table: 2830
epoch: 1000
next table: 2215
cur table: 2257
epoch: 1000
next table: 2200
cur table: 2215
epoch: 1000
next table: 2822
cur table: 2867
epoch: 1000
next table: 2220
cur table: 2200
epoch: 1000
next table: 2155
cur table: 2220
epoch: 1000
next table: 3193
cur table: 2822
epoch: 1000
next table: 3001
cur table: 2155
epoch: 1000
next table: 5706
cur table: 3001
epoch: 1000
next table: 2841
cur table: 5706
epoch: 1000
next table: 3230
cur table: 3193
epoch: 1000
next table: 2111
cur table: 2841
epoch: 1000
next table: 2637
cur table: 3230
epoch: 1000
next table: 2160
cur table: 2111
epoch: 1000
next table: 2229
cur table: 2160
epoch: 1000
next table: 2694
cur table: 2637
epoch: 1000
next table: 2199
cur table: 2229
epoch: 1000
next table: 2221
cur table: 2199
epoch: 1000
next table: 2905
cur table: 2694
epoch: 1000
next table: 2274
cur table: 2221
epoch: 1000
next table: 2249
cur table: 2274
epoch: 1000
next table: 2879
cur table: 2905
epoch: 1000
next table: 2192
cur table: 2249
epoch: 1000
next table: 2220
cur table: 2192
epoch: 1000
next table: 2794
cur table: 2879
epoch: 1000
next table: 2208
cur table: 2220
epoch: 1000
next table: 2162
cur table: 2208
epoch: 1000
next table: 4717
cur table: 2162
epoch: 1000
next table: 3390
cur table: 2794
epoch: 1000
next table: 3716
cur table: 4717
epoch: 1000
next table: 2725
cur table: 3716
epoch: 1000
next table: 3027
cur table: 3390
epoch: 1000
next table: 2137
cur table: 2725
epoch: 1000
next table: 2219
cur table: 2137
epoch: 1000
next table: 2671
cur table: 3027
epoch: 1000
next table: 2237
cur table: 2219
epoch: 1000
next table: 2201
cur table: 2237
epoch: 1000
next table: 2789
cur table: 2671
epoch: 1000
next table: 2233
cur table: 2201
epoch: 1000
next table: 2266
cur table: 2233
epoch: 1000
next table: 2889
cur table: 2789
epoch: 1000
next table: 2232
cur table: 2266
epoch: 1000
next table: 2167
cur table: 2232
epoch: 1000
next table: 2835
cur table: 2889
epoch: 1000
next table: 2209
cur table: 2167
epoch: 1000
next table: 2170
cur table: 2209
epoch: 1000
next table: 2866
cur table: 2835
epoch: 1000
next table: 2122
cur table: 2170
epoch: 1000
next table: 5954
cur table: 2122
epoch: 1000
next table: 3656
cur table: 2866
epoch: 1000
next table: 3013
cur table: 5954
epoch: 1000
next table: 2114
cur table: 3013
epoch: 1000
next table: 2668
cur table: 3656
epoch: 1000
next table: 2165
cur table: 2114
epoch: 1000
next table: 2211
cur table: 2165
epoch: 1000
next table: 2663
cur table: 2668
epoch: 1000
next table: 2223
cur table: 2211
epoch: 1000
next table: 2199
cur table: 2223
epoch: 1000
next table: 2768
cur table: 2663
epoch: 1000
next table: 2238
cur table: 2199
epoch: 1000
next table: 2290
cur table: 2238
epoch: 1000
next table: 2875
cur table: 2768
epoch: 1000
next table: 2261
cur table: 2290
epoch: 1000
next table: 2184
cur table: 2261
epoch: 1000
next table: 2794
cur table: 2875
epoch: 1000
next table: 2209
cur table: 2184
epoch: 1000
next table: 2163
cur table: 2209
epoch: 1000
next table: 2892
cur table: 2794
epoch: 1000
next table: 2528
cur table: 2163
epoch: 1000
next table: 5985
cur table: 2528
epoch: 1000
next table: 3617
cur table: 2892
epoch: 1000
next table: 2777
cur table: 5985
epoch: 1000
next table: 2105
cur table: 2777
epoch: 1000
next table: 2580
cur table: 3617
epoch: 1000
next table: 2189
cur table: 2105
epoch: 1000
next table: 2255
cur table: 2189
epoch: 1000
next table: 2657
cur table: 2580
epoch: 1000
next table: 2221
cur table: 2255
epoch: 1000
next table: 2217
cur table: 2221
epoch: 1000
next table: 2866
cur table: 2657
epoch: 1000
next table: 2273
cur table: 2217
epoch: 1000
next table: 2244
cur table: 2273
epoch: 1000
next table: 2870
cur table: 2866
epoch: 1000
next table: 2208
cur table: 2244
epoch: 1000
next table: 2186
cur table: 2208
epoch: 1000
next table: 2819
cur table: 2870
epoch: 1000
next table: 2224
cur table: 2186
epoch: 1000
next table: 2142
cur table: 2224
epoch: 1000
next table: 3546
cur table: 2142
epoch: 1000
next table: 3494
cur table: 2819
epoch: 1000
next table: 4587
cur table: 3546
epoch: 1000
next table: 2774
cur table: 4587
epoch: 1000
next table: 3151
cur table: 3494
epoch: 1000
next table: 2107
cur table: 2774
epoch: 1000
next table: 2185
cur table: 2107
epoch: 1000
next table: 2668
cur table: 3151
epoch: 1000
next table: 2229
cur table: 2185
epoch: 1000
next table: 2696
cur table: 2668
epoch: 1000
next table: 2200
cur table: 2229
epoch: 1000
next table: 2260
cur table: 2200
epoch: 1000
next table: 2870
cur table: 2696
epoch: 1000
next table: 2285
cur table: 2260
epoch: 1000
next table: 2253
cur table: 2285
epoch: 1000
next table: 2874
cur table: 2870
epoch: 1000
next table: 2199
cur table: 2253
epoch: 1000
next table: 2214
cur table: 2199
Heartbeat CPU 0 instructions: 20000000 cycles: 6611775 heartbeat IPC: 3.0247 cumulative IPC: 3.02491 (Simulation time: 0 hr 6 min 22 sec) 
epoch: 1000
next table: 2180
cur table: 2214
epoch: 1000
next table: 2886
cur table: 2874
epoch: 1000
next table: 2139
cur table: 2180
epoch: 1000
next table: 4945
cur table: 2139
epoch: 1000
next table: 3531
cur table: 2886
epoch: 1000
next table: 3743
cur table: 4945
epoch: 1000
next table: 2184
cur table: 3743
epoch: 1000
next table: 2698
cur table: 3531
epoch: 1000
next table: 2130
cur table: 2184
epoch: 1000
next table: 2235
cur table: 2130
epoch: 1000
next table: 2591
cur table: 2698
epoch: 1000
next table: 2235
cur table: 2235
epoch: 1000
next table: 2196
cur table: 2235
epoch: 1000
next table: 2806
cur table: 2591
epoch: 1000
next table: 2258
cur table: 2196
epoch: 1000
next table: 2271
cur table: 2258
epoch: 1000
next table: 2846
cur table: 2806
epoch: 1000
next table: 2254
cur table: 2271
epoch: 1000
next table: 2216
cur table: 2254
epoch: 1000
next table: 2816
cur table: 2846
epoch: 1000
next table: 2208
cur table: 2216
epoch: 1000
next table: 2168
cur table: 2208
epoch: 1000
next table: 2859
cur table: 2816
epoch: 1000
next table: 2258
cur table: 2168
epoch: 1000
next table: 5932
cur table: 2258
epoch: 1000
next table: 3772
cur table: 2859
epoch: 1000
next table: 2760
cur table: 5932
epoch: 1000
next table: 2107
cur table: 2760
epoch: 1000
next table: 2578
cur table: 3772
epoch: 1000
next table: 2166
cur table: 2107
epoch: 1000
next table: 2246
cur table: 2166
epoch: 1000
next table: 2626
cur table: 2578
epoch: 1000
next table: 2214
cur table: 2246
epoch: 1000
next table: 2214
cur table: 2214
epoch: 1000
next table: 2779
cur table: 2626
epoch: 1000
next table: 2262
cur table: 2214
epoch: 1000
next table: 2265
cur table: 2262
epoch: 1000
next table: 2881
cur table: 2779
epoch: 1000
next table: 2218
cur table: 2265
epoch: 1000
next table: 2192
cur table: 2218
epoch: 1000
next table: 2805
cur table: 2881
epoch: 1000
next table: 2201
cur table: 2192
epoch: 1000
next table: 2175
cur table: 2201
epoch: 1000
next table: 2914
cur table: 2805
epoch: 1000
next table: 2604
cur table: 2175
epoch: 1000
next table: 6015
cur table: 2604
epoch: 1000
next table: 3687
cur table: 2914
epoch: 1000
next table: 2704
cur table: 6015
epoch: 1000
next table: 2105
cur table: 2704
epoch: 1000
next table: 2572
cur table: 3687
epoch: 1000
next table: 2171
cur table: 2105
epoch: 1000
next table: 2276
cur table: 2171
epoch: 1000
next table: 2663
cur table: 2572
epoch: 1000
next table: 2212
cur table: 2276
epoch: 1000
next table: 2237
cur table: 2212
epoch: 1000
next table: 2777
cur table: 2663
epoch: 1000
next table: 2262
cur table: 2237
epoch: 1000
next table: 2229
cur table: 2262
epoch: 1000
next table: 2809
cur table: 2777
epoch: 1000
next table: 2204
cur table: 2229
epoch: 1000
next table: 2202
cur table: 2204
epoch: 1000
next table: 2712
cur table: 2809
epoch: 1000
next table: 2191
cur table: 2202
epoch: 1000
next table: 2134
cur table: 2191
epoch: 1000
next table: 3296
cur table: 2712
epoch: 1000
next table: 5114
cur table: 2134
epoch: 1000
next table: 3276
cur table: 5114
epoch: 1000
next table: 2938
cur table: 3296
epoch: 1000
next table: 2110
cur table: 3276
epoch: 1000
next table: 2180
cur table: 2110
epoch: 1000
next table: 2677
cur table: 2938
epoch: 1000
next table: 2240
cur table: 2180
epoch: 1000
next table: 2213
cur table: 2240
epoch: 1000
next table: 2736
cur table: 2677
epoch: 1000
next table: 2224
cur table: 2213
epoch: 1000
next table: 2308
cur table: 2224
epoch: 1000
next table: 2880
cur table: 2736
epoch: 1000
next table: 2258
cur table: 2308
epoch: 1000
next table: 2219
cur table: 2258
epoch: 1000
next table: 2872
cur table: 2880
epoch: 1000
next table: 2189
cur table: 2219
epoch: 1000
next table: 2223
cur table: 2189
epoch: 1000
next table: 2948
cur table: 2872
epoch: 1000
next table: 2155
cur table: 2223
epoch: 1000
next table: 3665
cur table: 2155
epoch: 1000
next table: 4599
cur table: 3665
epoch: 1000
next table: 3646
cur table: 2948
epoch: 1000
next table: 2109
cur table: 4599
epoch: 1000
next table: 2665
cur table: 3646
epoch: 1000
next table: 2162
cur table: 2109
epoch: 1000
next table: 2250
cur table: 2162
epoch: 1000
next table: 2739
cur table: 2665
epoch: 1000
next table: 2227
cur table: 2250
epoch: 1000
next table: 2194
cur table: 2227
epoch: 1000
next table: 2273
cur table: 2194
epoch: 1000
next table: 2997
cur table: 2739
epoch: 1000
next table: 2292
cur table: 2273
epoch: 1000
next table: 2238
cur table: 2292
epoch: 1000
next table: 2926
cur table: 2997
epoch: 1000
next table: 2193
cur table: 2238
epoch: 1000
next table: 2219
cur table: 2193
epoch: 1000
next table: 2900
cur table: 2926
epoch: 1000
next table: 2157
cur table: 2219
epoch: 1000
next table: 2805
cur table: 2157
epoch: 1000
next table: 3625
cur table: 2900
epoch: 1000
next table: 5053
cur table: 2805
epoch: 1000
next table: 2649
cur table: 5053
epoch: 1000
next table: 2937
cur table: 3625
epoch: 1000
next table: 2095
cur table: 2649
epoch: 1000
next table: 2174
cur table: 2095
epoch: 1000
next table: 2653
cur table: 2937
epoch: 1000
next table: 2231
cur table: 2174
epoch: 1000
next table: 2207
cur table: 2231
epoch: 1000
next table: 2833
cur table: 2653
epoch: 1000
next table: 2243
cur table: 2207
epoch: 1000
next table: 2284
cur table: 2243
epoch: 1000
next table: 2987
cur table: 2833
epoch: 1000
next table: 2273
cur table: 2284
epoch: 1000
next table: 2200
cur table: 2273
epoch: 1000
next table: 2917
cur table: 2987
epoch: 1000
next table: 2182
cur table: 2200
epoch: 1000
next table: 2224
cur table: 2182
epoch: 1000
next table: 2919
cur table: 2917
epoch: 1000
next table: 2138
cur table: 2224
epoch: 1000
next table: 4860
cur table: 2138
epoch: 1000
next table: 3447
cur table: 4860
epoch: 1000
next table: 3480
cur table: 2919
epoch: 1000
next table: 2127
cur table: 3447
epoch: 1000
next table: 2193
cur table: 2127
epoch: 1000
next table: 2637
cur table: 3480
epoch: 1000
next table: 2268
cur table: 2193
epoch: 1000
next table: 2211
cur table: 2268
epoch: 1000
next table: 2740
cur table: 2637
epoch: 1000
next table: 2208
cur table: 2211
epoch: 1000
next table: 2299
cur table: 2208
epoch: 1000
next table: 2923
cur table: 2740
epoch: 1000
next table: 2271
cur table: 2299
epoch: 1000
next table: 2196
cur table: 2271
epoch: 1000
next table: 2925
cur table: 2923
epoch: 1000
next table: 2203
cur table: 2196
epoch: 1000
next table: 2236
cur table: 2203
epoch: 1000
next table: 2850
cur table: 2925
epoch: 1000
next table: 2159
cur table: 2236
epoch: 1000
next table: 3490
cur table: 2159
epoch: 1000
next table: 3630
cur table: 2850
epoch: 1000
next table: 4778
cur table: 3490
epoch: 1000
next table: 2095
cur table: 4778
epoch: 1000
next table: 2688
cur table: 3630
epoch: 1000
next table: 2200
cur table: 2095
epoch: 1000
next table: 2252
cur table: 2200
epoch: 1000
next table: 2669
cur table: 2688
epoch: 1000
next table: 2204
cur table: 2252
epoch: 1000
next table: 2203
cur table: 2204
epoch: 1000
next table: 2854
cur table: 2669
epoch: 1000
next table: 2281
cur table: 2203
epoch: 1000
next table: 2276
cur table: 2281
epoch: 1000
next table: 2881
cur table: 2854
epoch: 1000
next table: 2239
cur table: 2276
epoch: 1000
next table: 2189
cur table: 2239
epoch: 1000
next table: 2850
cur table: 2881
epoch: 1000
next table: 2238
cur table: 2189
epoch: 1000
next table: 2149
cur table: 2238
epoch: 1000
next table: 3437
cur table: 2149
epoch: 1000
next table: 3364
cur table: 2850
epoch: 1000
next table: 4491
cur table: 3437
epoch: 1000
next table: 2125
cur table: 4491
epoch: 1000
next table: 3021
cur table: 3364
epoch: 1000
next table: 2178
cur table: 2125
epoch: 1000
next table: 2685
cur table: 3021
epoch: 1000
next table: 2232
cur table: 2178
epoch: 1000
next table: 2231
cur table: 2232
epoch: 1000
next table: 2772
cur table: 2685
epoch: 1000
next table: 2224
cur table: 2231
epoch: 1000
next table: 2274
cur table: 2224
epoch: 1000
next table: 2270
cur table: 2274
epoch: 1000
next table: 2969
cur table: 2772
epoch: 1000
next table: 2188
cur table: 2270
epoch: 1000
next table: 2182
cur table: 2188
epoch: 1000
next table: 2839
cur table: 2969
epoch: 1000
next table: 2229
cur table: 2182
epoch: 1000
next table: 2170
cur table: 2229
epoch: 1000
next table: 2858
cur table: 2839
epoch: 1000
next table: 2749
cur table: 2170
epoch: 1000
next table: 5368
cur table: 2749
epoch: 1000
next table: 3488
cur table: 2858
epoch: 1000
next table: 2118
cur table: 5368
epoch: 1000
next table: 2154
cur table: 2118
epoch: 1000
next table: 2676
cur table: 3488
epoch: 1000
next table: 2226
cur table: 2154
epoch: 1000
next table: 2238
cur table: 2226
epoch: 1000
next table: 2792
cur table: 2676
epoch: 1000
next table: 2212
cur table: 2238
epoch: 1000
next table: 2261
cur table: 2212
epoch: 1000
next table: 2954
cur table: 2792
epoch: 1000
next table: 2314
cur table: 2261
epoch: 1000
next table: 2238
cur table: 2314
epoch: 1000
next table: 2892
cur table: 2954
epoch: 1000
next table: 2195
cur table: 2238
epoch: 1000
next table: 2251
cur table: 2195
epoch: 1000
next table: 2877
cur table: 2892
epoch: 1000
next table: 2164
cur table: 2251
epoch: 1000
next table: 2559
cur table: 2164
epoch: 1000
next table: 5549
cur table: 2559
epoch: 1000
next table: 3727
cur table: 2877
epoch: 1000
next table: 2667
cur table: 5549
epoch: 1000
next table: 2117
cur table: 2667
epoch: 1000
next table: 2735
cur table: 3727
epoch: 1000
next table: 2185
cur table: 2117
epoch: 1000
next table: 2266
cur table: 2185
epoch: 1000
next table: 2668
cur table: 2735
epoch: 1000
next table: 2230
cur table: 2266
epoch: 1000
next table: 2754
cur table: 2668
epoch: 1000
next table: 2198
cur table: 2230
epoch: 1000
next table: 2250
cur table: 2198
epoch: 1000
next table: 2887
cur table: 2754
epoch: 1000
next table: 2251
cur table: 2250
epoch: 1000
next table: 2202
cur table: 2251
epoch: 1000
next table: 2757
cur table: 2887
epoch: 1000
next table: 2168
cur table: 2202
epoch: 1000
next table: 2222
cur table: 2168
epoch: 1000
next table: 2809
cur table: 2757
epoch: 1000
next table: 2145
cur table: 2222
epoch: 1000
next table: 3420
cur table: 2145
epoch: 1000
next table: 4656
cur table: 3420
epoch: 1000
next table: 3841
cur table: 2809
epoch: 1000
next table: 2690
cur table: 4656
epoch: 1000
next table: 2113
cur table: 2690
epoch: 1000
next table: 2619
cur table: 3841
epoch: 1000
next table: 2178
cur table: 2113
epoch: 1000
next table: 2260
cur table: 2178
epoch: 1000
next table: 2687
cur table: 2619
epoch: 1000
next table: 2196
cur table: 2260
epoch: 1000
next table: 2234
cur table: 2196
epoch: 1000
next table: 2861
cur table: 2687
epoch: 1000
next table: 2269
cur table: 2234
epoch: 1000
next table: 2255
cur table: 2269
epoch: 1000
next table: 2939
cur table: 2861
epoch: 1000
next table: 2184
cur table: 2255
epoch: 1000
next table: 2191
cur table: 2184
epoch: 1000
next table: 2745
cur table: 2939
epoch: 1000
next table: 2214
cur table: 2191
epoch: 1000
next table: 2131
cur table: 2214
epoch: 1000
next table: 3398
cur table: 2745
epoch: 1000
next table: 4995
cur table: 2131
epoch: 1000
next table: 3349
cur table: 4995
epoch: 1000
next table: 2788
cur table: 3349
epoch: 1000
next table: 3187
cur table: 3398
epoch: 1000
next table: 2148
cur table: 2788
epoch: 1000
next table: 2687
cur table: 3187
epoch: 1000
next table: 2204
cur table: 2148
epoch: 1000
next table: 2262
cur table: 2204
epoch: 1000
next table: 2767
cur table: 2687
epoch: 1000
next table: 2204
cur table: 2262
epoch: 1000
next table: 2246
cur table: 2204
epoch: 1000
next table: 2909
cur table: 2767
epoch: 1000
next table: 2272
cur table: 2246
epoch: 1000
next table: 2243
cur table: 2272
epoch: 1000
next table: 2877
cur table: 2909
epoch: 1000
next table: 2176
cur table: 2243
epoch: 1000
next table: 2223
cur table: 2176
epoch: 1000
next table: 2923
cur table: 2877
epoch: 1000
next table: 2180
cur table: 2223
epoch: 1000
next table: 2174
cur table: 2180
epoch: 1000
next table: 6379
cur table: 2174
epoch: 1000
next table: 3721
cur table: 2923
epoch: 1000
next table: 2216
cur table: 6379
epoch: 1000
next table: 2124
cur table: 2216
epoch: 1000
next table: 2583
cur table: 3721
epoch: 1000
next table: 2221
cur table: 2124
epoch: 1000
next table: 2266
cur table: 2221
epoch: 1000
next table: 2696
cur table: 2583
epoch: 1000
next table: 2217
cur table: 2266
epoch: 1000
next table: 2216
cur table: 2217
epoch: 1000
next table: 2921
cur table: 2696
epoch: 1000
next table: 2305
cur table: 2216
epoch: 1000
next table: 2235
cur table: 2305
epoch: 1000
next table: 2861
cur table: 2921
epoch: 1000
next table: 2209
cur table: 2235
epoch: 1000
next table: 2234
cur table: 2209
epoch: 1000
next table: 2879
cur table: 2861
epoch: 1000
next table: 2164
cur table: 2234
epoch: 1000
next table: 2141
cur table: 2164
epoch: 1000
next table: 3436
cur table: 2879
epoch: 1000
next table: 5681
cur table: 2141
epoch: 1000
next table: 2673
cur table: 5681
epoch: 1000
next table: 2132
cur table: 2673
epoch: 1000
next table: 2981
cur table: 3436
epoch: 1000
next table: 2202
cur table: 2132
epoch: 1000
next table: 2674
cur table: 2981
epoch: 1000
next table: 2271
cur table: 2202
epoch: 1000
next table: 2219
cur table: 2271
epoch: 1000
next table: 2882
cur table: 2674
epoch: 1000
next table: 2225
cur table: 2219
epoch: 1000
next table: 2285
cur table: 2225
epoch: 1000
next table: 2833
cur table: 2882
epoch: 1000
next table: 2269
cur table: 2285
epoch: 1000
next table: 2195
cur table: 2269
epoch: 1000
next table: 2848
cur table: 2833
epoch: 1000
next table: 2198
cur table: 2195
epoch: 1000
next table: 2222
cur table: 2198
epoch: 1000
next table: 2858
cur table: 2848
epoch: 1000
next table: 2128
cur table: 2222
epoch: 1000
next table: 3803
cur table: 2128
epoch: 1000
next table: 4812
cur table: 3803
epoch: 1000
next table: 3582
cur table: 2858
epoch: 1000
next table: 2109
cur table: 4812
epoch: 1000
next table: 2169
cur table: 2109
epoch: 1000
next table: 2585
cur table: 3582
epoch: 1000
next table: 2257
cur table: 2169
epoch: 1000
next table: 2236
cur table: 2257
epoch: 1000
next table: 2684
cur table: 2585
epoch: 1000
next table: 2205
cur table: 2236
epoch: 1000
next table: 2286
cur table: 2205
epoch: 1000
next table: 2834
cur table: 2684
epoch: 1000
next table: 2265
cur table: 2286
epoch: 1000
next table: 2203
cur table: 2265
epoch: 1000
next table: 2865
cur table: 2834
epoch: 1000
next table: 2208
cur table: 2203
epoch: 1000
next table: 2818
cur table: 2865
epoch: 1000
next table: 2231
cur table: 2208
epoch: 1000
next table: 2142
cur table: 2231
epoch: 1000
next table: 2847
cur table: 2142
epoch: 1000
next table: 3409
cur table: 2818
epoch: 1000
next table: 5701
cur table: 2847
epoch: 1000
next table: 2112
cur table: 5701
epoch: 1000
next table: 2938
cur table: 3409
epoch: 1000
next table: 2139
cur table: 2112
epoch: 1000
next table: 2254
cur table: 2139
epoch: 1000
next table: 2715
cur table: 2938
epoch: 1000
next table: 2250
cur table: 2254
epoch: 1000
next table: 2222
cur table: 2250
epoch: 1000
next table: 2865
cur table: 2715
epoch: 1000
next table: 2277
cur table: 2222
epoch: 1000
next table: 2278
cur table: 2277
epoch: 1000
next table: 2929
cur table: 2865
epoch: 1000
next table: 2218
cur table: 2278
epoch: 1000
next table: 2185
cur table: 2218
epoch: 1000
next table: 2851
cur table: 2929
epoch: 1000
next table: 2203
cur table: 2185
epoch: 1000
next table: 2142
cur table: 2203
epoch: 1000
next table: 2958
cur table: 2851
epoch: 1000
next table: 2551
cur table: 2142
epoch: 1000
next table: 5680
cur table: 2551
epoch: 1000
next table: 2203
cur table: 5680
epoch: 1000
next table: 3546
cur table: 2958
epoch: 1000
next table: 2116
cur table: 2203
epoch: 1000
next table: 2220
cur table: 2116
epoch: 1000
next table: 2723
cur table: 3546
epoch: 1000
next table: 2282
cur table: 2220
epoch: 1000
next table: 2202
cur table: 2282
epoch: 1000
next table: 2759
cur table: 2723
epoch: 1000
next table: 2247
cur table: 2202
epoch: 1000
next table: 2276
cur table: 2247
epoch: 1000
next table: 2848
cur table: 2759
epoch: 1000
next table: 2243
cur table: 2276
epoch: 1000
next table: 2185
cur table: 2243
epoch: 1000
next table: 2849
cur table: 2848
epoch: 1000
next table: 2213
cur table: 2185
epoch: 1000
next table: 2177
cur table: 2213
epoch: 1000
next table: 2956
cur table: 2849
epoch: 1000
next table: 2191
cur table: 2177
epoch: 1000
next table: 5735
cur table: 2191
epoch: 1000
next table: 3563
cur table: 2956
epoch: 1000
next table: 2242
cur table: 5735
epoch: 1000
next table: 2118
cur table: 2242
epoch: 1000
next table: 2651
cur table: 3563
epoch: 1000
next table: 2239
cur table: 2118
epoch: 1000
next table: 2287
cur table: 2239
epoch: 1000
next table: 2689
cur table: 2651
epoch: 1000
next table: 2199
cur table: 2287
epoch: 1000
next table: 2222
cur table: 2199
epoch: 1000
next table: 2876
cur table: 2689
epoch: 1000
next table: 2285
cur table: 2222
epoch: 1000
next table: 2246
cur table: 2285
epoch: 1000
next table: 2811
cur table: 2876
epoch: 1000
next table: 2206
cur table: 2246
epoch: 1000
next table: 2212
cur table: 2206
epoch: 1000
next table: 2855
cur table: 2811
epoch: 1000
next table: 2158
cur table: 2212
epoch: 1000
next table: 2144
cur table: 2158
Heartbeat CPU 0 instructions: 30000002 cycles: 9912412 heartbeat IPC: 3.02972 cumulative IPC: 3.02651 (Simulation time: 0 hr 9 min 29 sec) 
epoch: 1000
next table: 3352
cur table: 2855
epoch: 1000
next table: 5780
cur table: 2144
epoch: 1000
next table: 2436
cur table: 5780
epoch: 1000
next table: 2938
cur table: 3352
epoch: 1000
next table: 2104
cur table: 2436
epoch: 1000
next table: 2182
cur table: 2104
epoch: 1000
next table: 2626
cur table: 2938
epoch: 1000
next table: 2240
cur table: 2182
epoch: 1000
next table: 2243
cur table: 2240
epoch: 1000
next table: 2785
cur table: 2626
epoch: 1000
next table: 2243
cur table: 2243
epoch: 1000
next table: 2299
cur table: 2243
epoch: 1000
next table: 2863
cur table: 2785
epoch: 1000
next table: 2245
cur table: 2299
epoch: 1000
next table: 2203
cur table: 2245
epoch: 1000
next table: 2861
cur table: 2863
epoch: 1000
next table: 2225
cur table: 2203
epoch: 1000
next table: 2188
cur table: 2225
epoch: 1000
next table: 2916
cur table: 2861
epoch: 1000
next table: 2148
cur table: 2188
epoch: 1000
next table: 5501
cur table: 2148
epoch: 1000
next table: 2982
cur table: 5501
epoch: 1000
next table: 3594
cur table: 2916
epoch: 1000
next table: 2676
cur table: 2982
epoch: 1000
next table: 2537
cur table: 3594
epoch: 1000
next table: 2128
cur table: 2676
epoch: 1000
next table: 2204
cur table: 2128
epoch: 1000
next table: 2586
cur table: 2537
epoch: 1000
next table: 2245
cur table: 2204
epoch: 1000
next table: 2202
cur table: 2245
epoch: 1000
next table: 2772
cur table: 2586
epoch: 1000
next table: 2238
cur table: 2202
epoch: 1000
next table: 2297
cur table: 2238
epoch: 1000
next table: 2842
cur table: 2772
epoch: 1000
next table: 2222
cur table: 2297
epoch: 1000
next table: 2170
cur table: 2222
epoch: 1000
next table: 2852
cur table: 2842
epoch: 1000
next table: 2214
cur table: 2170
epoch: 1000
next table: 2171
cur table: 2214
epoch: 1000
next table: 2912
cur table: 2852
epoch: 1000
next table: 2330
cur table: 2171
epoch: 1000
next table: 6049
cur table: 2330
epoch: 1000
next table: 2215
cur table: 6049
epoch: 1000
next table: 3476
cur table: 2912
epoch: 1000
next table: 2122
cur table: 2215
epoch: 1000
next table: 2662
cur table: 3476
epoch: 1000
next table: 2203
cur table: 2122
epoch: 1000
next table: 2249
cur table: 2203
epoch: 1000
next table: 2689
cur table: 2662
epoch: 1000
next table: 2213
cur table: 2249
epoch: 1000
next table: 2265
cur table: 2213
epoch: 1000
next table: 2855
cur table: 2689
epoch: 1000
next table: 2300
cur table: 2265
epoch: 1000
next table: 2229
cur table: 2300
epoch: 1000
next table: 2856
cur table: 2855
epoch: 1000
next table: 2193
cur table: 2229
epoch: 1000
next table: 2225
cur table: 2193
epoch: 1000
next table: 2985
cur table: 2856
epoch: 1000
next table: 2163
cur table: 2225
epoch: 1000
next table: 2172
cur table: 2163
epoch: 1000
next table: 5699
cur table: 2172
epoch: 1000
next table: 3663
cur table: 2985
epoch: 1000
next table: 2240
cur table: 5699
epoch: 1000
next table: 2138
cur table: 2240
epoch: 1000
next table: 2642
cur table: 3663
epoch: 1000
next table: 2215
cur table: 2138
epoch: 1000
next table: 2276
cur table: 2215
epoch: 1000
next table: 2701
cur table: 2642
epoch: 1000
next table: 2222
cur table: 2276
epoch: 1000
next table: 2246
cur table: 2222
epoch: 1000
next table: 2886
cur table: 2701
epoch: 1000
next table: 2285
cur table: 2246
epoch: 1000
next table: 2238
cur table: 2285
epoch: 1000
next table: 2870
cur table: 2886
epoch: 1000
next table: 2200
cur table: 2238
epoch: 1000
next table: 2221
cur table: 2200
epoch: 1000
next table: 2872
cur table: 2870
epoch: 1000
next table: 2183
cur table: 2221
epoch: 1000
next table: 2131
cur table: 2183
epoch: 1000
next table: 3454
cur table: 2872
epoch: 1000
next table: 5900
cur table: 2131
epoch: 1000
next table: 2366
cur table: 5900
epoch: 1000
next table: 2926
cur table: 3454
epoch: 1000
next table: 2117
cur table: 2366
epoch: 1000
next table: 2191
cur table: 2117
epoch: 1000
next table: 2630
cur table: 2926
epoch: 1000
next table: 2269
cur table: 2191
epoch: 1000
next table: 2226
cur table: 2269
epoch: 1000
next table: 2763
cur table: 2630
epoch: 1000
next table: 2251
cur table: 2226
epoch: 1000
next table: 2291
cur table: 2251
epoch: 1000
next table: 2856
cur table: 2763
epoch: 1000
next table: 2252
cur table: 2291
epoch: 1000
next table: 2204
cur table: 2252
epoch: 1000
next table: 2815
cur table: 2856
epoch: 1000
next table: 2220
cur table: 2204
epoch: 1000
next table: 2174
cur table: 2220
epoch: 1000
next table: 2894
cur table: 2815
epoch: 1000
next table: 2147
cur table: 2174
epoch: 1000
next table: 5323
cur table: 2147
epoch: 1000
next table: 2835
cur table: 5323
epoch: 1000
next table: 3530
cur table: 2894
epoch: 1000
next table: 2102
cur table: 2835
epoch: 1000
next table: 2599
cur table: 3530
epoch: 1000
next table: 2181
cur table: 2102
epoch: 1000
next table: 2244
cur table: 2181
epoch: 1000
next table: 2671
cur table: 2599
epoch: 1000
next table: 2216
cur table: 2244
epoch: 1000
next table: 2228
cur table: 2216
epoch: 1000
next table: 2817
cur table: 2671
epoch: 1000
next table: 2283
cur table: 2228
epoch: 1000
next table: 2256
cur table: 2283
epoch: 1000
next table: 2877
cur table: 2817
epoch: 1000
next table: 2209
cur table: 2256
epoch: 1000
next table: 2188
cur table: 2209
epoch: 1000
next table: 2854
cur table: 2877
epoch: 1000
next table: 2176
cur table: 2188
epoch: 1000
next table: 2163
cur table: 2176
epoch: 1000
next table: 4658
cur table: 2163
epoch: 1000
next table: 3323
cur table: 2854
epoch: 1000
next table: 3888
cur table: 4658
epoch: 1000
next table: 2091
cur table: 3888
epoch: 1000
next table: 2942
cur table: 3323
epoch: 1000
next table: 2188
cur table: 2091
epoch: 1000
next table: 2660
cur table: 2942
epoch: 1000
next table: 2254
cur table: 2188
epoch: 1000
next table: 2198
cur table: 2254
epoch: 1000
next table: 2795
cur table: 2660
epoch: 1000
next table: 2236
cur table: 2198
epoch: 1000
next table: 2283
cur table: 2236
epoch: 1000
next table: 2877
cur table: 2795
epoch: 1000
next table: 2269
cur table: 2283
epoch: 1000
next table: 2210
cur table: 2269
epoch: 1000
next table: 2838
cur table: 2877
epoch: 1000
next table: 2207
cur table: 2210
epoch: 1000
next table: 2198
cur table: 2207
epoch: 1000
next table: 2978
cur table: 2838
epoch: 1000
next table: 2154
cur table: 2198
epoch: 1000
next table: 4249
cur table: 2154
epoch: 1000
next table: 3773
cur table: 4249
epoch: 1000
next table: 3496
cur table: 2978
epoch: 1000
next table: 2108
cur table: 3773
epoch: 1000
next table: 2181
cur table: 2108
epoch: 1000
next table: 2649
cur table: 3496
epoch: 1000
next table: 2257
cur table: 2181
epoch: 1000
next table: 2200
cur table: 2257
epoch: 1000
next table: 2761
cur table: 2649
epoch: 1000
next table: 2214
cur table: 2200
epoch: 1000
next table: 2265
cur table: 2214
epoch: 1000
next table: 2943
cur table: 2761
epoch: 1000
next table: 2250
cur table: 2265
epoch: 1000
next table: 2214
cur table: 2250
epoch: 1000
next table: 2865
cur table: 2943
epoch: 1000
next table: 2206
cur table: 2214
epoch: 1000
next table: 2197
cur table: 2206
epoch: 1000
next table: 2938
cur table: 2865
epoch: 1000
next table: 2150
cur table: 2197
epoch: 1000
next table: 3975
cur table: 2150
epoch: 1000
next table: 3603
cur table: 2938
epoch: 1000
next table: 4002
cur table: 3975
epoch: 1000
next table: 2096
cur table: 4002
epoch: 1000
next table: 2571
cur table: 3603
epoch: 1000
next table: 2180
cur table: 2096
epoch: 1000
next table: 2267
cur table: 2180
epoch: 1000
next table: 2683
cur table: 2571
epoch: 1000
next table: 2229
cur table: 2267
epoch: 1000
next table: 2222
cur table: 2229
epoch: 1000
next table: 2935
cur table: 2683
epoch: 1000
next table: 2271
cur table: 2222
epoch: 1000
next table: 2265
cur table: 2271
epoch: 1000
next table: 2912
cur table: 2935
epoch: 1000
next table: 2211
cur table: 2265
epoch: 1000
next table: 2185
cur table: 2211
epoch: 1000
next table: 2863
cur table: 2912
epoch: 1000
next table: 2224
cur table: 2185
epoch: 1000
next table: 2162
cur table: 2224
epoch: 1000
next table: 4379
cur table: 2162
epoch: 1000
next table: 3410
cur table: 2863
epoch: 1000
next table: 3796
cur table: 4379
epoch: 1000
next table: 2120
cur table: 3796
epoch: 1000
next table: 2936
cur table: 3410
epoch: 1000
next table: 2186
cur table: 2120
epoch: 1000
next table: 2261
cur table: 2186
epoch: 1000
next table: 2674
cur table: 2936
epoch: 1000
next table: 2223
cur table: 2261
epoch: 1000
next table: 2228
cur table: 2223
epoch: 1000
next table: 2848
cur table: 2674
epoch: 1000
next table: 2282
cur table: 2228
epoch: 1000
next table: 2265
cur table: 2282
epoch: 1000
next table: 2942
cur table: 2848
epoch: 1000
next table: 2216
cur table: 2265
epoch: 1000
next table: 2225
cur table: 2216
epoch: 1000
next table: 2858
cur table: 2942
epoch: 1000
next table: 2207
cur table: 2225
epoch: 1000
next table: 2178
cur table: 2207
epoch: 1000
next table: 3407
cur table: 2858
epoch: 1000
next table: 4291
cur table: 2178
epoch: 1000
next table: 3754
cur table: 4291
epoch: 1000
next table: 3152
cur table: 3407
epoch: 1000
next table: 2669
cur table: 3754
epoch: 1000
next table: 2123
cur table: 2669
epoch: 1000
next table: 2586
cur table: 3152
epoch: 1000
next table: 2219
cur table: 2123
epoch: 1000
next table: 2214
cur table: 2219
epoch: 1000
next table: 2660
cur table: 2586
epoch: 1000
next table: 2231
cur table: 2214
epoch: 1000
next table: 2236
cur table: 2231
epoch: 1000
next table: 2911
cur table: 2660
epoch: 1000
next table: 2283
cur table: 2236
epoch: 1000
next table: 2261
cur table: 2283
epoch: 1000
next table: 2825
cur table: 2911
epoch: 1000
next table: 2182
cur table: 2261
epoch: 1000
next table: 2226
cur table: 2182
epoch: 1000
next table: 2879
cur table: 2825
epoch: 1000
next table: 2179
cur table: 2226
epoch: 1000
next table: 2168
cur table: 2179
epoch: 1000
next table: 6134
cur table: 2168
epoch: 1000
next table: 3492
cur table: 2879
epoch: 1000
next table: 2242
cur table: 6134
epoch: 1000
next table: 2703
cur table: 3492
epoch: 1000
next table: 2112
cur table: 2242
epoch: 1000
next table: 2183
cur table: 2112
epoch: 1000
next table: 2680
cur table: 2703
epoch: 1000
next table: 2227
cur table: 2183
epoch: 1000
next table: 2238
cur table: 2227
epoch: 1000
next table: 2764
cur table: 2680
epoch: 1000
next table: 2226
cur table: 2238
epoch: 1000
next table: 2261
cur table: 2226
epoch: 1000
next table: 2926
cur table: 2764
epoch: 1000
next table: 2246
cur table: 2261
epoch: 1000
next table: 2222
cur table: 2246
epoch: 1000
next table: 2799
cur table: 2926
epoch: 1000
next table: 2238
cur table: 2222
epoch: 1000
next table: 2154
cur table: 2238
epoch: 1000
next table: 2845
cur table: 2799
epoch: 1000
next table: 2160
cur table: 2154
epoch: 1000
next table: 5223
cur table: 2160
epoch: 1000
next table: 2970
cur table: 5223
epoch: 1000
next table: 3838
cur table: 2845
epoch: 1000
next table: 2175
cur table: 2970
epoch: 1000
next table: 2117
cur table: 2175
epoch: 1000
next table: 2591
cur table: 3838
epoch: 1000
next table: 2224
cur table: 2117
epoch: 1000
next table: 2219
cur table: 2224
epoch: 1000
next table: 2643
cur table: 2591
epoch: 1000
next table: 2196
cur table: 2219
epoch: 1000
next table: 2255
cur table: 2196
epoch: 1000
next table: 2939
cur table: 2643
epoch: 1000
next table: 2282
cur table: 2255
epoch: 1000
next table: 2222
cur table: 2282
epoch: 1000
next table: 2832
cur table: 2939
epoch: 1000
next table: 2181
cur table: 2222
epoch: 1000
next table: 2191
cur table: 2181
epoch: 1000
next table: 2805
cur table: 2832
epoch: 1000
next table: 2157
cur table: 2191
epoch: 1000
next table: 2366
cur table: 2157
epoch: 1000
next table: 3432
cur table: 2805
epoch: 1000
next table: 6021
cur table: 2366
epoch: 1000
next table: 2235
cur table: 6021
epoch: 1000
next table: 2935
cur table: 3432
epoch: 1000
next table: 2112
cur table: 2235
epoch: 1000
next table: 2217
cur table: 2112
epoch: 1000
next table: 2636
cur table: 2935
epoch: 1000
next table: 2219
cur table: 2217
epoch: 1000
next table: 2203
cur table: 2219
epoch: 1000
next table: 2757
cur table: 2636
epoch: 1000
next table: 2214
cur table: 2203
epoch: 1000
next table: 2282
cur table: 2214
epoch: 1000
next table: 2949
cur table: 2757
epoch: 1000
next table: 2228
cur table: 2282
epoch: 1000
next table: 2196
cur table: 2228
epoch: 1000
next table: 2887
cur table: 2949
epoch: 1000
next table: 2219
cur table: 2196
epoch: 1000
next table: 2183
cur table: 2219
epoch: 1000
next table: 2845
cur table: 2887
epoch: 1000
next table: 2142
cur table: 2183
epoch: 1000
next table: 5693
cur table: 2142
epoch: 1000
next table: 2359
cur table: 5693
epoch: 1000
next table: 3611
cur table: 2845
epoch: 1000
next table: 2107
cur table: 2359
epoch: 1000
next table: 2606
cur table: 3611
epoch: 1000
next table: 2189
cur table: 2107
epoch: 1000
next table: 2209
cur table: 2189
epoch: 1000
next table: 2667
cur table: 2606
epoch: 1000
next table: 2202
cur table: 2209
epoch: 1000
next table: 2217
cur table: 2202
epoch: 1000
next table: 2881
cur table: 2667
epoch: 1000
next table: 2279
cur table: 2217
epoch: 1000
next table: 2264
cur table: 2279
epoch: 1000
next table: 2839
cur table: 2881
epoch: 1000
next table: 2207
cur table: 2264
epoch: 1000
next table: 2209
cur table: 2207
epoch: 1000
next table: 2838
cur table: 2839
epoch: 1000
next table: 2187
cur table: 2209
epoch: 1000
next table: 2158
cur table: 2187
epoch: 1000
next table: 5169
cur table: 2158
epoch: 1000
next table: 3561
cur table: 2838
epoch: 1000
next table: 3054
cur table: 5169
epoch: 1000
next table: 2228
cur table: 3054
epoch: 1000
next table: 3032
cur table: 3561
epoch: 1000
next table: 2122
cur table: 2228
epoch: 1000
next table: 2220
cur table: 2122
epoch: 1000
next table: 2614
cur table: 3032
epoch: 1000
next table: 2242
cur table: 2220
epoch: 1000
next table: 2177
cur table: 2242
epoch: 1000
next table: 2720
cur table: 2614
epoch: 1000
next table: 2233
cur table: 2177
epoch: 1000
next table: 2269
cur table: 2233
epoch: 1000
next table: 2861
cur table: 2720
epoch: 1000
next table: 2258
cur table: 2269
epoch: 1000
next table: 2212
cur table: 2258
epoch: 1000
next table: 2800
cur table: 2861
epoch: 1000
next table: 2215
cur table: 2212
epoch: 1000
next table: 2172
cur table: 2215
epoch: 1000
next table: 2895
cur table: 2800
epoch: 1000
next table: 2344
cur table: 2172
epoch: 1000
next table: 5646
cur table: 2344
epoch: 1000
next table: 3771
cur table: 2895
epoch: 1000
next table: 2221
cur table: 5646
epoch: 1000
next table: 2126
cur table: 2221
epoch: 1000
next table: 2556
cur table: 3771
epoch: 1000
next table: 2197
cur table: 2126
epoch: 1000
next table: 2242
cur table: 2197
epoch: 1000
next table: 2666
cur table: 2556
epoch: 1000
next table: 2227
cur table: 2242
epoch: 1000
next table: 2273
cur table: 2227
epoch: 1000
next table: 2802
cur table: 2666
epoch: 1000
next table: 2372
cur table: 2273
epoch: 1000
next table: 2311
cur table: 2372
epoch: 1000
next table: 2784
cur table: 2802
epoch: 1000
next table: 2253
cur table: 2311
epoch: 1000
next table: 2337
cur table: 2253
epoch: 1000
next table: 2668
cur table: 2784
epoch: 1000
next table: 2266
cur table: 2337
epoch: 1000
next table: 4323
cur table: 2266
epoch: 1000
next table: 3094
cur table: 2668
epoch: 1000
next table: 4329
cur table: 4323
epoch: 1000
next table: 2138
cur table: 4329
epoch: 1000
next table: 2934
cur table: 3094
epoch: 1000
next table: 2163
cur table: 2138
epoch: 1000
next table: 2219
cur table: 2163
epoch: 1000
next table: 2673
cur table: 2934
epoch: 1000
next table: 2224
cur table: 2219
epoch: 1000
next table: 2245
cur table: 2224
epoch: 1000
next table: 2810
cur table: 2673
epoch: 1000
next table: 2269
cur table: 2245
epoch: 1000
next table: 2759
cur table: 2810
epoch: 1000
next table: 2375
cur table: 2269
epoch: 1000
next table: 2259
cur table: 2375
epoch: 1000
next table: 2743
cur table: 2759
epoch: 1000
next table: 2250
cur table: 2259
epoch: 1000
next table: 2304
cur table: 2250
epoch: 1000
next table: 2783
cur table: 2743
epoch: 1000
next table: 2208
cur table: 2304
epoch: 1000
next table: 5393
cur table: 2208
epoch: 1000
next table: 2978
cur table: 5393
epoch: 1000
next table: 3435
cur table: 2783
epoch: 1000
next table: 2121
cur table: 2978
epoch: 1000
next table: 2181
cur table: 2121
epoch: 1000
next table: 2660
cur table: 3435
epoch: 1000
next table: 2239
cur table: 2181
epoch: 1000
next table: 2704
cur table: 2660
epoch: 1000
next table: 2182
cur table: 2239
epoch: 1000
next table: 2222
cur table: 2182
epoch: 1000
next table: 2822
cur table: 2704
epoch: 1000
next table: 2359
cur table: 2222
epoch: 1000
next table: 2329
cur table: 2359
epoch: 1000
next table: 2760
cur table: 2822
epoch: 1000
next table: 2239
cur table: 2329
epoch: 1000
next table: 2282
cur table: 2239
epoch: 1000
next table: 2730
cur table: 2760
epoch: 1000
next table: 2260
cur table: 2282
epoch: 1000
next table: 2202
cur table: 2260
epoch: 1000
next table: 3097
cur table: 2730
epoch: 1000
next table: 5982
cur table: 2202
epoch: 1000
next table: 2278
cur table: 5982
epoch: 1000
next table: 2969
cur table: 3097
epoch: 1000
next table: 2129
cur table: 2278
epoch: 1000
next table: 2195
cur table: 2129
epoch: 1000
next table: 2706
cur table: 2969
epoch: 1000
next table: 2217
cur table: 2195
epoch: 1000
next table: 2176
cur table: 2217
epoch: 1000
next table: 2850
cur table: 2706
epoch: 1000
next table: 2252
cur table: 2176
epoch: 1000
next table: 2346
cur table: 2252
epoch: 1000
next table: 2781
cur table: 2850
epoch: 1000
next table: 2321
cur table: 2346
epoch: 1000
next table: 2245
cur table: 2321
epoch: 1000
next table: 2761
cur table: 2781
epoch: 1000
next table: 2293
cur table: 2245
epoch: 1000
next table: 2252
cur table: 2293
epoch: 1000
next table: 2818
cur table: 2761
epoch: 1000
next table: 2626
cur table: 2252
Heartbeat CPU 0 instructions: 40000003 cycles: 13213767 heartbeat IPC: 3.02906 cumulative IPC: 3.02715 (Simulation time: 0 hr 12 min 31 sec) 
epoch: 1000
next table: 5669
cur table: 2626
epoch: 1000
next table: 2209
cur table: 5669
epoch: 1000
next table: 3435
cur table: 2818
epoch: 1000
next table: 2127
cur table: 2209
epoch: 1000
next table: 2625
cur table: 3435
epoch: 1000
next table: 2215
cur table: 2127
epoch: 1000
next table: 2214
cur table: 2215
epoch: 1000
next table: 2668
cur table: 2625
epoch: 1000
next table: 2185
cur table: 2214
epoch: 1000
next table: 2257
cur table: 2185
epoch: 1000
next table: 2832
cur table: 2668
epoch: 1000
next table: 2333
cur table: 2257
epoch: 1000
next table: 2282
cur table: 2333
epoch: 1000
next table: 2883
cur table: 2832
epoch: 1000
next table: 2214
cur table: 2282
epoch: 1000
next table: 2289
cur table: 2214
epoch: 1000
next table: 2858
cur table: 2883
epoch: 1000
next table: 2253
cur table: 2289
epoch: 1000
next table: 3370
cur table: 2253
epoch: 1000
next table: 4883
cur table: 3370
epoch: 1000
next table: 3482
cur table: 2858
epoch: 1000
next table: 2117
cur table: 4883
epoch: 1000
next table: 2149
cur table: 2117
epoch: 1000
next table: 2683
cur table: 3482
epoch: 1000
next table: 2219
cur table: 2149
epoch: 1000
next table: 2699
cur table: 2683
epoch: 1000
next table: 2213
cur table: 2219
epoch: 1000
next table: 2193
cur table: 2213
epoch: 1000
next table: 2827
cur table: 2699
epoch: 1000
next table: 2278
cur table: 2193
epoch: 1000
next table: 2357
cur table: 2278
epoch: 1000
next table: 2868
cur table: 2827
epoch: 1000
next table: 2245
cur table: 2357
epoch: 1000
next table: 2226
cur table: 2245
epoch: 1000
next table: 2816
cur table: 2868
epoch: 1000
next table: 2280
cur table: 2226
epoch: 1000
next table: 2225
cur table: 2280
epoch: 1000
next table: 4290
cur table: 2225
epoch: 1000
next table: 3288
cur table: 2816
epoch: 1000
next table: 3881
cur table: 4290
epoch: 1000
next table: 2113
cur table: 3881
epoch: 1000
next table: 2953
cur table: 3288
epoch: 1000
next table: 2183
cur table: 2113
epoch: 1000
next table: 2230
cur table: 2183
epoch: 1000
next table: 2624
cur table: 2953
epoch: 1000
next table: 2177
cur table: 2230
epoch: 1000
next table: 2203
cur table: 2177
epoch: 1000
next table: 2777
cur table: 2624
epoch: 1000
next table: 2327
cur table: 2203
epoch: 1000
next table: 2351
cur table: 2327
epoch: 1000
next table: 2817
cur table: 2777
epoch: 1000
next table: 2253
cur table: 2351
epoch: 1000
next table: 2239
cur table: 2253
epoch: 1000
next table: 2848
cur table: 2817
epoch: 1000
next table: 2270
cur table: 2239
epoch: 1000
next table: 2191
cur table: 2270
epoch: 1000
next table: 2879
cur table: 2848
epoch: 1000
next table: 5287
cur table: 2191
epoch: 1000
next table: 2954
cur table: 5287
epoch: 1000
next table: 3721
cur table: 2879
epoch: 1000
next table: 2584
cur table: 2954
epoch: 1000
next table: 2094
cur table: 2584
epoch: 1000
next table: 2602
cur table: 3721
epoch: 1000
next table: 2163
cur table: 2094
epoch: 1000
next table: 2213
cur table: 2163
epoch: 1000
next table: 2571
cur table: 2602
epoch: 1000
next table: 2202
cur table: 2213
epoch: 1000
next table: 2219
cur table: 2202
epoch: 1000
next table: 2841
cur table: 2571
epoch: 1000
next table: 2381
cur table: 2219
epoch: 1000
next table: 2288
cur table: 2381
epoch: 1000
next table: 2779
cur table: 2841
epoch: 1000
next table: 2228
cur table: 2288
epoch: 1000
next table: 2267
cur table: 2228
epoch: 1000
next table: 2773
cur table: 2779
epoch: 1000
next table: 2257
cur table: 2267
epoch: 1000
next table: 2233
cur table: 2257
epoch: 1000
next table: 3232
cur table: 2773
epoch: 1000
next table: 6215
cur table: 2233
epoch: 1000
next table: 2285
cur table: 6215
epoch: 1000
next table: 2927
cur table: 3232
epoch: 1000
next table: 2103
cur table: 2285
epoch: 1000
next table: 2199
cur table: 2103
epoch: 1000
next table: 2627
cur table: 2927
epoch: 1000
next table: 2232
cur table: 2199
epoch: 1000
next table: 2192
cur table: 2232
epoch: 1000
next table: 2726
cur table: 2627
epoch: 1000
next table: 2255
cur table: 2192
epoch: 1000
next table: 2382
cur table: 2255
epoch: 1000
next table: 2773
cur table: 2726
epoch: 1000
next table: 2310
cur table: 2382
epoch: 1000
next table: 2753
cur table: 2773
epoch: 1000
next table: 2212
cur table: 2310
epoch: 1000
next table: 2261
cur table: 2212
epoch: 1000
next table: 2802
cur table: 2753
epoch: 1000
next table: 2229
cur table: 2261
epoch: 1000
next table: 2993
cur table: 2229
epoch: 1000
next table: 5775
cur table: 2993
epoch: 1000
next table: 3530
cur table: 2802
epoch: 1000
next table: 2214
cur table: 5775
epoch: 1000
next table: 2116
cur table: 2214
epoch: 1000
next table: 2574
cur table: 3530
epoch: 1000
next table: 2192
cur table: 2116
epoch: 1000
next table: 2220
cur table: 2192
epoch: 1000
next table: 2718
cur table: 2574
epoch: 1000
next table: 2223
cur table: 2220
epoch: 1000
next table: 2250
cur table: 2223
epoch: 1000
next table: 2805
cur table: 2718
epoch: 1000
next table: 2370
cur table: 2250
epoch: 1000
next table: 2286
cur table: 2370
epoch: 1000
next table: 2825
cur table: 2805
epoch: 1000
next table: 2240
cur table: 2286
epoch: 1000
next table: 2742
cur table: 2825
epoch: 1000
next table: 2281
cur table: 2240
epoch: 1000
next table: 2234
cur table: 2281
epoch: 1000
next table: 3472
cur table: 2234
epoch: 1000
next table: 3151
cur table: 2742
epoch: 1000
next table: 4921
cur table: 3472
epoch: 1000
next table: 2172
cur table: 4921
epoch: 1000
next table: 2952
cur table: 3151
epoch: 1000
next table: 2118
cur table: 2172
epoch: 1000
next table: 2670
cur table: 2952
epoch: 1000
next table: 2221
cur table: 2118
epoch: 1000
next table: 2209
cur table: 2221
epoch: 1000
next table: 2849
cur table: 2670
epoch: 1000
next table: 2204
cur table: 2209
epoch: 1000
next table: 2265
cur table: 2204
epoch: 1000
next table: 2823
cur table: 2849
epoch: 1000
next table: 2397
cur table: 2265
epoch: 1000
next table: 2248
cur table: 2397
epoch: 1000
next table: 2839
cur table: 2823
epoch: 1000
next table: 2202
cur table: 2248
epoch: 1000
next table: 2293
cur table: 2202
epoch: 1000
next table: 2781
cur table: 2839
epoch: 1000
next table: 2227
cur table: 2293
epoch: 1000
next table: 3544
cur table: 2227
epoch: 1000
next table: 5136
cur table: 3544
epoch: 1000
next table: 3443
cur table: 2781
epoch: 1000
next table: 2133
cur table: 5136
epoch: 1000
next table: 2126
cur table: 2133
epoch: 1000
next table: 2570
cur table: 3443
epoch: 1000
next table: 2240
cur table: 2126
epoch: 1000
next table: 2680
cur table: 2570
epoch: 1000
next table: 2213
cur table: 2240
epoch: 1000
next table: 2198
cur table: 2213
epoch: 1000
next table: 2857
cur table: 2680
epoch: 1000
next table: 2294
cur table: 2198
epoch: 1000
next table: 2386
cur table: 2294
epoch: 1000
next table: 2795
cur table: 2857
epoch: 1000
next table: 2257
cur table: 2386
epoch: 1000
next table: 2220
cur table: 2257
epoch: 1000
next table: 2769
cur table: 2795
epoch: 1000
next table: 2276
cur table: 2220
epoch: 1000
next table: 2202
cur table: 2276
epoch: 1000
next table: 4780
cur table: 2202
epoch: 1000
next table: 3159
cur table: 2769
epoch: 1000
next table: 4151
cur table: 4780
epoch: 1000
next table: 2104
cur table: 4151
epoch: 1000
next table: 2905
cur table: 3159
epoch: 1000
next table: 2173
cur table: 2104
epoch: 1000
next table: 2687
cur table: 2905
epoch: 1000
next table: 2241
cur table: 2173
epoch: 1000
next table: 2188
cur table: 2241
epoch: 1000
next table: 2843
cur table: 2687
epoch: 1000
next table: 2205
cur table: 2188
epoch: 1000
next table: 2339
cur table: 2205
epoch: 1000
next table: 2830
cur table: 2843
epoch: 1000
next table: 2321
cur table: 2339
epoch: 1000
next table: 2255
cur table: 2321
epoch: 1000
next table: 2834
cur table: 2830
epoch: 1000
next table: 2254
cur table: 2255
epoch: 1000
next table: 2277
cur table: 2254
epoch: 1000
next table: 2753
cur table: 2834
epoch: 1000
next table: 2205
cur table: 2277
epoch: 1000
next table: 5691
cur table: 2205
epoch: 1000
next table: 3066
cur table: 5691
epoch: 1000
next table: 3354
cur table: 2753
epoch: 1000
next table: 2107
cur table: 3066
epoch: 1000
next table: 2617
cur table: 3354
epoch: 1000
next table: 2178
cur table: 2107
epoch: 1000
next table: 2249
cur table: 2178
epoch: 1000
next table: 2743
cur table: 2617
epoch: 1000
next table: 2204
cur table: 2249
epoch: 1000
next table: 2205
cur table: 2204
epoch: 1000
next table: 2863
cur table: 2743
epoch: 1000
next table: 2373
cur table: 2205
epoch: 1000
next table: 2330
cur table: 2373
epoch: 1000
next table: 2771
cur table: 2863
epoch: 1000
next table: 2212
cur table: 2330
epoch: 1000
next table: 2244
cur table: 2212
epoch: 1000
next table: 2827
cur table: 2771
epoch: 1000
next table: 2272
cur table: 2244
epoch: 1000
next table: 2208
cur table: 2272
epoch: 1000
next table: 5825
cur table: 2208
epoch: 1000
next table: 3339
cur table: 2827
epoch: 1000
next table: 2488
cur table: 5825
epoch: 1000
next table: 2105
cur table: 2488
epoch: 1000
next table: 2726
cur table: 3339
epoch: 1000
next table: 2187
cur table: 2105
epoch: 1000
next table: 2671
cur table: 2726
epoch: 1000
next table: 2236
cur table: 2187
epoch: 1000
next table: 2218
cur table: 2236
epoch: 1000
next table: 2853
cur table: 2671
epoch: 1000
next table: 2230
cur table: 2218
epoch: 1000
next table: 2359
cur table: 2230
epoch: 1000
next table: 2751
cur table: 2853
epoch: 1000
next table: 2315
cur table: 2359
epoch: 1000
next table: 2212
cur table: 2315
epoch: 1000
next table: 2806
[...]
cur table: 3024
epoch: 1000
next table: 2407
cur table: 2340
epoch: 1000
next table: 2344
cur table: 2232
epoch: 1000
next table: 2400
cur table: 2407
epoch: 1000
next table: 2460
cur table: 2400
epoch: 1000
next table: 2317
cur table: 2344
epoch: 1000
next table: 2540
cur table: 2460
epoch: 1000
next table: 2440
cur table: 2540
epoch: 1000
next table: 2333
cur table: 2317
epoch: 1000
next table: 2445
cur table: 2440
epoch: 1000
next table: 2282
cur table: 2333
epoch: 1000
next table: 2466
cur table: 2445
epoch: 1000
next table: 2394
cur table: 2466
epoch: 1000
next table: 2340
cur table: 2282
epoch: 1000
next table: 5582
cur table: 2394
epoch: 1000
next table: 4580
cur table: 5582
epoch: 1000
next table: 3202
cur table: 2340
epoch: 1000
next table: 2300
cur table: 4580
epoch: 1000
next table: 2342
cur table: 2300
epoch: 1000
next table: 2309
cur table: 3202
epoch: 1000
next table: 2403
cur table: 2342
epoch: 1000
next table: 2248
cur table: 2309
epoch: 1000
next table: 2399
cur table: 2403
epoch: 1000
next table: 2451
cur table: 2399
epoch: 1000
next table: 2283
cur table: 2248
epoch: 1000
next table: 2512
cur table: 2451
epoch: 1000
next table: 2354
cur table: 2283
epoch: 1000
next table: 2462
cur table: 2512
epoch: 1000
next table: 2453
cur table: 2462
epoch: 1000
next table: 2243
cur table: 2354
epoch: 1000
next table: 2424
cur table: 2453
epoch: 1000
next table: 2396
cur table: 2424
epoch: 1000
next table: 2312
cur table: 2243
epoch: 1000
next table: 5991
cur table: 2396
epoch: 1000
next table: 4197
cur table: 5991
epoch: 1000
next table: 3140
cur table: 2312
epoch: 1000
next table: 2403
cur table: 4197
epoch: 1000
next table: 2312
cur table: 3140
epoch: 1000
next table: 2303
cur table: 2403
epoch: 1000
next table: 2424
cur table: 2303
epoch: 1000
next table: 2248
cur table: 2312
epoch: 1000
next table: 2395
cur table: 2424
epoch: 1000
next table: 2389
cur table: 2248
epoch: 1000
next table: 2379
cur table: 2395
epoch: 1000
next table: 2503
cur table: 2379
epoch: 1000
next table: 2322
cur table: 2389
epoch: 1000
next table: 2446
cur table: 2503
epoch: 1000
next table: 2467
cur table: 2446
epoch: 1000
next table: 2290
cur table: 2322
epoch: 1000
next table: 2458
cur table: 2467
epoch: 1000
next table: 2322
cur table: 2290
epoch: 1000
next table: 2408
cur table: 2458
Heartbeat CPU 0 instructions: 100000000 cycles: 209546103 heartbeat IPC: 0.260082 cumulative IPC: 0.259021 (Simulation time: 0 hr 27 min 44 sec) 
Finished CPU 0 instructions: 50000000 cycles: 193034431 cumulative IPC: 0.259021 (Simulation time: 0 hr 27 min 44 sec) 

ChampSim completed all CPUs

Region of Interest Statistics

CPU 0 cumulative IPC: 0.259021 instructions: 50000000 cycles: 193034431
ITLB TOTAL     ACCESS:    9262358  HIT:    9262358  MISS:          0  HIT %:        100  MISS %:          0   MPKI: 0
ITLB LOAD TRANSLATION ACCESS:    9262358  HIT:    9262358  MISS:          0  HIT %:        100  MISS %:          0   MPKI: 0
ITLB PREFETCH  REQUESTED:          0  ISSUED:          0  USEFUL:          0  USELESS:          0
ITLB USEFUL LOAD PREFETCHES:          0 PREFETCH ISSUED TO LOWER LEVEL:          0  ACCURACY: -nan
ITLB TIMELY PREFETCHES:          0 LATE PREFETCHES: 0 DROPPED PREFETCHES: 0
ITLB PREFETCHES SAME FILL-ORIGIN LEVEL: 0 DIFFERENT FILL-ORIGIN LEVEL: 0
ITLB AVERAGE MISS LATENCY: -nan cycles
ITLB RQ	ACCESS:    9690745	FORWARD:          0	MERGED:     428388	TO_CACHE:    9262357

Revised Interactions: positive negative neutral
ITLB_interactions 0 0 0 -nan -nan -nan
DTLB TOTAL     ACCESS:   15568375  HIT:   14711079  MISS:     857296  HIT %:    94.4933  MISS %:    5.50665   MPKI: 17.1459
DTLB LOAD TRANSLATION ACCESS:   15568375  HIT:   14711079  MISS:     857296  HIT %:    94.4933  MISS %:    5.50665   MPKI: 17.1459
DTLB PREFETCH  REQUESTED:          0  ISSUED:          0  USEFUL:          0  USELESS:          0
DTLB USEFUL LOAD PREFETCHES:          0 PREFETCH ISSUED TO LOWER LEVEL:          0  ACCURACY: -nan
DTLB TIMELY PREFETCHES:          0 LATE PREFETCHES: 0 DROPPED PREFETCHES: 0
DTLB PREFETCHES SAME FILL-ORIGIN LEVEL: 0 DIFFERENT FILL-ORIGIN LEVEL: 0
DTLB AVERAGE MISS LATENCY: 10.6539 cycles
DTLB RQ	ACCESS:   18995567	FORWARD:          0	MERGED:    3326506	TO_CACHE:   15669061

Revised Interactions: positive negative neutral
DTLB_interactions 0 0 0 -nan -nan -nan
STLB TOTAL     ACCESS:     857296  HIT:     843998  MISS:      13298  HIT %:    98.4488  MISS %:    1.55116   MPKI: 0.26596
STLB LOAD TRANSLATION ACCESS:     857296  HIT:     843998  MISS:      13298  HIT %:    98.4488  MISS %:    1.55116   MPKI: 0.26596
STLB PREFETCH  REQUESTED:          0  ISSUED:          0  USEFUL:          0  USELESS:          0
STLB USEFUL LOAD PREFETCHES:          0 PREFETCH ISSUED TO LOWER LEVEL:          0  ACCURACY: -nan
STLB TIMELY PREFETCHES:          0 LATE PREFETCHES: 0 DROPPED PREFETCHES: 0
STLB PREFETCHES SAME FILL-ORIGIN LEVEL: 0 DIFFERENT FILL-ORIGIN LEVEL: 0
STLB AVERAGE MISS LATENCY: 99.426 cycles
STLB RQ	ACCESS:     857296	FORWARD:          0	MERGED:          0	TO_CACHE:     857296

Revised Interactions: positive negative neutral
STLB_interactions 0 0 0 -nan -nan -nan
STLB Hit, L1D data hit: 0
STLB Hit, L2C data hit: 0
STLB Hit, LLC data hit: 0
STLB Hit, LLC data miss: 0
STLB STLB hints to L2: 0
L1D TOTAL     ACCESS:   18637389  HIT:   16744140  MISS:    1893249  HIT %:    89.8417  MISS %:    10.1583   MPKI: 37.865
L1D LOAD      ACCESS:   13158053  HIT:   11453503  MISS:    1704550  HIT %:    87.0456  MISS %:    12.9544   MPKI: 34.091
L1D RFO       ACCESS:    5479336  HIT:    5290637  MISS:     188699  HIT %:    96.5562  MISS %:    3.44383   MPKI: 3.77398
L1D PREFETCH  REQUESTED:          0  ISSUED:          0  USEFUL:          0  USELESS:          0
L1D USEFUL LOAD PREFETCHES:          0 PREFETCH ISSUED TO LOWER LEVEL:          0  ACCURACY: -nan
L1D TIMELY PREFETCHES:          0 LATE PREFETCHES: 0 DROPPED PREFETCHES: 0
L1D PREFETCHES SAME FILL-ORIGIN LEVEL: 0 DIFFERENT FILL-ORIGIN LEVEL: 0
L1D AVERAGE MISS LATENCY: 48.9023 cycles
L1D RQ	ACCESS:   16815860	FORWARD:          0	MERGED:    3073002	TO_CACHE:   13208649
L1D WQ	ACCESS:    5808430	FORWARD:     534209	MERGED:      21512	TO_CACHE:    5786918

Revised Interactions: positive negative neutral
L1D_interactions 0 0 0 -nan -nan -nan
L1D UNIQUE REGIONS ACCESSED: 0
L1D REGIONS CONFLICTS: 0
L1D Cross Page Prefetch Requests: 0
L1D Same Page Prefetch Requests: 0
L1D ROI Sum of L1D PQ occupancy: 0
L1D PREFETCHES PUSHED FROM L2C: 0
L1I TOTAL     ACCESS:    9690746  HIT:    9690746  MISS:          0  HIT %:        100  MISS %:          0   MPKI: 0
L1I LOAD      ACCESS:    9690746  HIT:    9690746  MISS:          0  HIT %:        100  MISS %:          0   MPKI: 0
L1I PREFETCH  REQUESTED:          0  ISSUED:          0  USEFUL:          0  USELESS:          0
L1I USEFUL LOAD PREFETCHES:          0 PREFETCH ISSUED TO LOWER LEVEL:          0  ACCURACY: -nan
L1I TIMELY PREFETCHES:          0 LATE PREFETCHES: 0 DROPPED PREFETCHES: 0
L1I PREFETCHES SAME FILL-ORIGIN LEVEL: 0 DIFFERENT FILL-ORIGIN LEVEL: 0
L1I AVERAGE MISS LATENCY: -nan cycles
L1I RQ	ACCESS:   15126182	FORWARD:          0	MERGED:    5435437	TO_CACHE:    9690745

Revised Interactions: positive negative neutral
L1I_interactions 0 0 0 -nan -nan -nan
BTB TOTAL     ACCESS:   11847080  HIT:   11259969  MISS:     587111  HIT %:    95.0443  MISS %:    4.95574   MPKI: 11.7422
BTB BRANCH_DIRECT_JUMP	ACCESS:    1317761  HIT:    1317725  MISS:         36
BTB BRANCH_INDIRECT	ACCESS:          0  HIT:          0  MISS:          0
BTB BRANCH_CONDITIONAL	ACCESS:    7830652  HIT:    7830577  MISS:         75
BTB BRANCH_DIRECT_CALL	ACCESS:    1274783  HIT:    1274765  MISS:         18
BTB BRANCH_INDIRECT_CALL	ACCESS:      74550  HIT:      74542  MISS:          8
BTB BRANCH_RETURN	ACCESS:    1349334  HIT:     762360  MISS:     586974
BTB BRANCH_OTHER ACCESS:          0  HIT:          0  MISS:          0

L2C TOTAL     ACCESS:    2355410  HIT:    1241648  MISS:    1113762  HIT %:    52.7147  MISS %:    47.2853   MPKI: 22.2752
L2C LOAD      ACCESS:    1704545  HIT:     687710  MISS:    1016835  HIT %:    40.3457  MISS %:    59.6543   MPKI: 20.3367
L2C DATA LOAD MPKI: 20.3367
L2C INSTRUCTION LOAD MPKI: 0
L2C RFO       ACCESS:     188699  HIT:     178385  MISS:      10314  HIT %:    94.5342  MISS %:    5.46585   MPKI: 0.20628
L2C PREFETCH  ACCESS:     186818  HIT:     114164  MISS:      72654  HIT %:    61.1097  MISS %:    38.8903   MPKI: 1.45308
L2C DATA PREFETCH MPKI: 1.45308
L2C INSTRUCTION PREFETCH MPKI: 0
L2C WRITEBACK ACCESS:     261898  HIT:     251955  MISS:       9943  HIT %:    96.2035  MISS %:    3.79652   MPKI: 0.19886
L2C LOAD TRANSLATION ACCESS:      13450  HIT:       9434  MISS:       4016  HIT %:    70.1413  MISS %:    29.8587   MPKI: 0.08032
L2C PREFETCH  REQUESTED:    1914422  ISSUED:    1914418  USEFUL:      60307  USELESS:      12317
L2C USEFUL LOAD PREFETCHES:      60307 PREFETCH ISSUED TO LOWER LEVEL:    1459966  ACCURACY: 4.13071
L2C TIMELY PREFETCHES:      60307 LATE PREFETCHES: 70128 DROPPED PREFETCHES: 0
L2C PREFETCHES SAME FILL-ORIGIN LEVEL: 142782 DIFFERENT FILL-ORIGIN LEVEL: 1317184
L2C AVERAGE MISS LATENCY: 62.6748 cycles
L2C RQ	ACCESS:    1906699	FORWARD:          0	MERGED:          0	TO_CACHE:    1906694
L2C WQ	ACCESS:     261898	FORWARD:          5	MERGED:          0	TO_CACHE:     261898
L2C PQ	ACCESS:    1914418	FORWARD:          0	MERGED:     257141	TO_CACHE:    1657277

Revised Interactions: positive negative neutral
L2C_interactions 59267 12534 11032 71.55 15.1317 13.3184
L2C Instructions Evicting Data 0
L2C Translations Evicting Data 4006
L2C Data Evicting Data 1095843
L2C Instructions Evicting Instructions 0
L2C Translations Evicting Instructions 0
L2C Data Evicting Instructions 0
L2C Instructions Evicting Translations 0
L2C Translations Evicting Translations 10
L2C Data Evicting Translations 3960
L2C Dense regions hint from L2: 0
PSCL5 TOTAL     ACCESS:      13298  HIT:      13298  MISS:          0  HIT %:        100  MISS %:          0   MPKI: 0
PSCL5 LOAD TRANSLATION ACCESS:      13298  HIT:      13298  MISS:          0  HIT %:        100  MISS %:          0   MPKI: 0
PSCL5 PREFETCH  REQUESTED:          0  ISSUED:          0  USEFUL:          0  USELESS:          0
PSCL5 USEFUL LOAD PREFETCHES:          0 PREFETCH ISSUED TO LOWER LEVEL:          0  ACCURACY: -nan
PSCL5 TIMELY PREFETCHES:          0 LATE PREFETCHES: 0 DROPPED PREFETCHES: 0
PSCL5 PREFETCHES SAME FILL-ORIGIN LEVEL: 0 DIFFERENT FILL-ORIGIN LEVEL: 0

Revised Interactions: positive negative neutral
PSCL5_interactions 0 0 0 -nan -nan -nan
PSCL4 TOTAL     ACCESS:      13298  HIT:      13298  MISS:          0  HIT %:        100  MISS %:          0   MPKI: 0
PSCL4 LOAD TRANSLATION ACCESS:      13298  HIT:      13298  MISS:          0  HIT %:        100  MISS %:          0   MPKI: 0
PSCL4 PREFETCH  REQUESTED:          0  ISSUED:          0  USEFUL:          0  USELESS:          0
PSCL4 USEFUL LOAD PREFETCHES:          0 PREFETCH ISSUED TO LOWER LEVEL:          0  ACCURACY: -nan
PSCL4 TIMELY PREFETCHES:          0 LATE PREFETCHES: 0 DROPPED PREFETCHES: 0
PSCL4 PREFETCHES SAME FILL-ORIGIN LEVEL: 0 DIFFERENT FILL-ORIGIN LEVEL: 0

Revised Interactions: positive negative neutral
PSCL4_interactions 0 0 0 -nan -nan -nan
PSCL3 TOTAL     ACCESS:      13298  HIT:      13298  MISS:          0  HIT %:        100  MISS %:          0   MPKI: 0
PSCL3 LOAD TRANSLATION ACCESS:      13298  HIT:      13298  MISS:          0  HIT %:        100  MISS %:          0   MPKI: 0
PSCL3 PREFETCH  REQUESTED:          0  ISSUED:          0  USEFUL:          0  USELESS:          0
PSCL3 USEFUL LOAD PREFETCHES:          0 PREFETCH ISSUED TO LOWER LEVEL:          0  ACCURACY: -nan
PSCL3 TIMELY PREFETCHES:          0 LATE PREFETCHES: 0 DROPPED PREFETCHES: 0
PSCL3 PREFETCHES SAME FILL-ORIGIN LEVEL: 0 DIFFERENT FILL-ORIGIN LEVEL: 0

Revised Interactions: positive negative neutral
PSCL3_interactions 0 0 0 -nan -nan -nan
PSCL2 TOTAL     ACCESS:      13298  HIT:      13082  MISS:        216  HIT %:    98.3757  MISS %:     1.6243   MPKI: 0.00432
PSCL2 LOAD TRANSLATION ACCESS:      13298  HIT:      13082  MISS:        216  HIT %:    98.3757  MISS %:     1.6243   MPKI: 0.00432
PSCL2 PREFETCH  REQUESTED:          0  ISSUED:          0  USEFUL:          0  USELESS:          0
PSCL2 USEFUL LOAD PREFETCHES:          0 PREFETCH ISSUED TO LOWER LEVEL:          0  ACCURACY: -nan
PSCL2 TIMELY PREFETCHES:          0 LATE PREFETCHES: 0 DROPPED PREFETCHES: 0
PSCL2 PREFETCHES SAME FILL-ORIGIN LEVEL: 0 DIFFERENT FILL-ORIGIN LEVEL: 0

Revised Interactions: positive negative neutral
PSCL2_interactions 0 0 0 -nan -nan -nan
LLC TOTAL     ACCESS:    2089599  HIT:    1404876  MISS:     684723  HIT %:    67.2318  MISS %:    32.7682   MPKI: 13.6945
LLC LOAD      ACCESS:     946706  HIT:     725083  MISS:     221623  HIT %:    76.5901  MISS %:    23.4099   MPKI: 4.43246
LLC RFO       ACCESS:      10314  HIT:       9164  MISS:       1150  HIT %:    88.8501  MISS %:    11.1499   MPKI: 0.023
LLC PREFETCH  ACCESS:    1093770  HIT:     641710  MISS:     452060  HIT %:    58.6696  MISS %:    41.3304   MPKI: 9.0412
LLC WRITEBACK ACCESS:      34793  HIT:      26708  MISS:       8085  HIT %:    76.7626  MISS %:    23.2374   MPKI: 0.1617
LLC LOAD TRANSLATION ACCESS:       4016  HIT:       2211  MISS:       1805  HIT %:    55.0548  MISS %:    44.9452   MPKI: 0.0361
LLC PREFETCH  REQUESTED:          0  ISSUED:          0  USEFUL:     228815  USELESS:     221566
LLC USEFUL LOAD PREFETCHES:     228815 PREFETCH ISSUED TO LOWER LEVEL:     500022  ACCURACY: 45.761
LLC TIMELY PREFETCHES:     228815 LATE PREFETCHES: 47962 DROPPED PREFETCHES: 0
LLC PREFETCHES SAME FILL-ORIGIN LEVEL: 485627 DIFFERENT FILL-ORIGIN LEVEL: 0
LLC AVERAGE MISS LATENCY: 135.657 cycles
LLC RQ	ACCESS:     961037	FORWARD:          0	MERGED:          0	TO_CACHE:     961036
LLC WQ	ACCESS:      34793	FORWARD:          1	MERGED:          0	TO_CACHE:      34793
LLC PQ	ACCESS:    1459966	FORWARD:          0	MERGED:      11088	TO_CACHE:    1448878

Revised Interactions: positive negative neutral
LLC_interactions 210128 236393 65102 41.0709 46.2045 12.7246
LLC Dense regions hint to LLC: 0

RAW hits: 726424
Loads Generated: 17542285
Loads sent to L1D: 16815860
Stores Generated: 5808400
Stores sent to L1D: 5808430
Major fault: 0 Minor fault: 15240
Allocated PAGES: 15240
 All Calls: 3466521
 Critical Calls: 3466521
------------------
Depth Distribution
------------------
depth 0: 0
depth 1: 1151212
depth 2: 955353
depth 3: 722343
depth 4: 500856
depth 5: 279756
depth 6: 63627
depth 7: 1200
depth 8: 224
depth 9: 2
depth 10: 0
depth 11: 0
depth 12: 0
depth 13: 0
depth 14: 0
depth 15: 0
depth 16: 0
depth 17: 0
depth 18: 0
depth 19: 0
depth 20: 0
depth 21: 0
depth 22: 0
depth 23: 0
depth 24: 0
depth 25: 0
depth 26: 0
depth 27: 0
depth 28: 0
depth 29: 0
Total: 3674573
-----------------------------
-----------------------------
	Captured at Filter
-----------------------------
depth 0: 0
depth 1: 10480
depth 2: 3449
depth 3: 2249
depth 4: 1336
depth 5: 726
depth 6: 169
depth 7: 3
depth 8: 2
depth 9: 0
depth 10: 0
depth 11: 0
depth 12: 0
depth 13: 0
depth 14: 0
depth 15: 0
depth 16: 0
depth 17: 0
depth 18: 0
depth 19: 0
depth 20: 0
depth 21: 0
depth 22: 0
depth 23: 0
depth 24: 0
depth 25: 0
depth 26: 0
depth 27: 0
depth 28: 0
depth 29: 0
-----------------------------
-----------------------------
		Lost at Page
-----------------------------
depth 0: 0
depth 1: 19339
depth 2: 29422
depth 3: 33451
depth 4: 32109
depth 5: 23158
depth 6: 6088
depth 7: 285
depth 8: 68
depth 9: 0
depth 10: 0
depth 11: 0
depth 12: 0
depth 13: 0
depth 14: 0
depth 15: 0
depth 16: 0
depth 17: 0
depth 18: 0
depth 19: 0
depth 20: 0
depth 21: 0
depth 22: 0
depth 23: 0
depth 24: 0
depth 25: 0
depth 26: 0
depth 27: 0
depth 28: 0
depth 29: 0
-----------------------------
-----------------------------
	Lost due to PQ Size
-----------------------------
4041
-----------------------------
ST read accesses: 1190722
ST write accesses: 513823
PT read accesses: 21999578
PT write accesses: 1574313
FILTER read accesses: 4745290
FILTER write accesses: 1480306
GHR read accesses: 4503579
GHR write accesses: 78746
GHR counter read accesses: 18237502
GHR counter write accesses: 2066187
ST tag read accesses: 918897899
ST tag write accesses: 171687504

DRAM Statistics
 CHANNEL 0
 RQ ROW_BUFFER_HIT:     269457  ROW_BUFFER_MISS:     407174
 DBUS_CONGESTED:        223
 WQ ROW_BUFFER_HIT:       2957  ROW_BUFFER_MISS:      10170  FULL:          0

 AVG_CONGESTED_CYCLE: 5
 All warmup complete: 2
Channel 0 Bank busy for read cycles: 0
Channel 0 Bank busy for write cycles: 0
Channel 0
Rank 0
0banks busy for read cycles: 153658318
0banks busy for write cycles: 10274
1banks busy for read cycles: 19291298
1banks busy for write cycles: 1974926
2banks busy for read cycles: 7802164
2banks busy for write cycles: 268894
3banks busy for read cycles: 4576142
3banks busy for write cycles: 58466
4banks busy for read cycles: 2674425
4banks busy for write cycles: 19039
5banks busy for read cycles: 1484780
5banks busy for write cycles: 9908
6banks busy for read cycles: 718621
6banks busy for write cycles: 5798
7banks busy for read cycles: 308300
7banks busy for write cycles: 3950
8banks busy for read cycles: 166947
8banks busy for write cycles: 2182

CPU 0 Branch Prediction Accuracy: 88.8318% MPKI: 27.7783 Average ROB Occupancy at Mispredict: 12.4966
Branch types
NOT_BRANCH: 37563289 75.1266%
BRANCH_DIRECT_JUMP: 1317761 2.63552%
BRANCH_INDIRECT: 0 0%
BRANCH_CONDITIONAL: 8419917 16.8398%
BRANCH_DIRECT_CALL: 1274783 2.54957%
BRANCH_INDIRECT_CALL: 74550 0.1491%
BRANCH_RETURN: 1349334 2.69867%
BRANCH_OTHER: 0 0%

@sumon_overall_L1D         0         0         0         0         0         0         0
@Sumon_Early_by_class_L1D         0         0         0         0
@Sumon_Late_by_class_L1D         0         0         0         0

@Sumon_Early_by_cycle_L1D         0         0         0         0         0         0         0         0         0         0         0         0
@Sumon_Late_by_cycle_L1D         0         0         0         0         0         0
@Sumon_Early_stream_L1D         0         0         0         0         0         0         0         0         0         0         0         0
@Sumon_Early_CS_L1D         0         0         0         0         0         0         0         0         0         0         0         0
@Sumon_Early_CPLX_L1D         0         0         0         0         0         0         0         0         0         0         0         0
@Sumon_Late_stream_L1D         0         0         0         0         0         0
@Sumon_Late_CS_L1D         0         0         0         0         0         0
@Sumon_Late_CPLX_L1D         0         0         0         0         0         0
@sumon_overall_L2C     60307     70128         0     12317     72654   1914418   1914422
@Sumon_Early_by_class_L2C         0         0         0         0
@Sumon_Late_by_class_L2C         0         0         0         0

@Sumon_Early_by_cycle_L2C      3735     32258     21738      1083       102       677       591        30         9        17        12        55
@Sumon_Late_by_cycle_L2C      5561     47551      3926      5162      7927         1
@Sumon_Early_stream_L2C         0         0         0         0         0         0         0         0         0         0         0         0
@Sumon_Early_CS_L2C         0         0         0         0         0         0         0         0         0         0         0         0
@Sumon_Early_CPLX_L2C         0         0         0         0         0         0         0         0         0         0         0         0
@Sumon_Late_stream_L2C         0         0         0         0         0         0
@Sumon_Late_CS_L2C         0         0         0         0         0         0
@Sumon_Late_CPLX_L2C         0         0         0         0         0         0
DRAM PAGES: 1048576
Allocated PAGES: 15240
