Initialize SIGNATURE TABLE
ST_SET: 1
ST_WAY: 256
ST_TAG_BIT: 16
ST_TAG_MASK: ffff

Initialize PATTERN TABLE
PT_SET: 512
PT_WAY: 4
SIG_DELTA_BIT: 7
C_SIG_BIT: 4
C_DELTA_BIT: 4

Initialize PREFETCH FILTER
FILTER_SET: 1024

*** ChampSim Multicore Out-of-Order Simulator ***

Warmup Instructions: 50000000
Simulation Instructions: 50000000
Number of CPUs: 1
LLC sets: 2048
LLC ways: 16
Off-chip DRAM Size: 4096 MB Channels: 1 Width: 64-bit Data Rate: 6400 MT/s
CPU 0 runs ../../biswa/SPEC2017Traces/607.cactuBSSN_s-2421B.champsimtrace.xz
.xz
CPU 0 Bimodal branch predictor
BTB has LRU replacement policy
ITLB has LRU replacement policy
DTLB has LRU replacement policy
STLB has LRU replacement policy
L1I has LRU replacement policy
L1D has LRU replacement policy
ST_WAYS: 256
PT_SETS: 512
Initialize DRRIP state for L2C
Initialize SRRIP state
epoch: 1000
next table: 2987
cur table: 6134
epoch: 1000
next table: 28748
cur table: 73915
epoch: 1000
next table: 3379
cur table: 2987
epoch: 1000
next table: 27402
cur table: 28748
epoch: 1000
next table: 3016
cur table: 3379
epoch: 1000
next table: 27710
cur table: 27402
epoch: 1000
next table: 21525
cur table: 27710
epoch: 1000
next table: 2963
cur table: 3016
epoch: 1000
next table: 22998
cur table: 21525
epoch: 1000
next table: 23879
cur table: 22998
epoch: 1000
next table: 24427
cur table: 23879
epoch: 1000
next table: 3294
cur table: 2963
epoch: 1000
next table: 20379
cur table: 24427
epoch: 1000
next table: 22788
cur table: 20379
epoch: 1000
next table: 3515
cur table: 3294
epoch: 1000
next table: 19056
cur table: 22788
epoch: 1000
next table: 22767
cur table: 19056
epoch: 1000
next table: 3083
cur table: 3515
epoch: 1000
next table: 22092
cur table: 22767
epoch: 1000
next table: 20338
cur table: 22092
epoch: 1000
next table: 22907
cur table: 20338
epoch: 1000
next table: 3399
cur table: 3083
epoch: 1000
next table: 22954
cur table: 22907
epoch: 1000
next table: 22929
cur table: 22954
epoch: 1000
next table: 3300
cur table: 3399
epoch: 1000
next table: 19474
cur table: 22929
epoch: 1000
next table: 22998
cur table: 19474
epoch: 1000
next table: 2974
cur table: 3300
epoch: 1000
next table: 22881
cur table: 22998
epoch: 1000
next table: 22925
cur table: 22881
epoch: 1000
next table: 3097
cur table: 2974
epoch: 1000
next table: 18464
cur table: 22925
epoch: 1000
next table: 21681
cur table: 18464
epoch: 1000
next table: 19726
cur table: 21681
epoch: 1000
next table: 3301
cur table: 3097
epoch: 1000
next table: 19727
cur table: 19726
epoch: 1000
next table: 22393
cur table: 19727
epoch: 1000
next table: 3192
cur table: 3301
epoch: 1000
next table: 15758
cur table: 22393
epoch: 1000
next table: 21284
cur table: 15758
epoch: 1000
next table: 20087
cur table: 21284
epoch: 1000
next table: 3344
cur table: 3192
epoch: 1000
next table: 21397
cur table: 20087
epoch: 1000
next table: 19721
cur table: 21397
epoch: 1000
next table: 3374
cur table: 3344
epoch: 1000
next table: 16312
cur table: 19721
epoch: 1000
next table: 21785
cur table: 16312
epoch: 1000
next table: 3076
cur table: 3374
epoch: 1000
next table: 20817
cur table: 21785
epoch: 1000
next table: 20743
cur table: 20817
epoch: 1000
next table: 3137
cur table: 3076
epoch: 1000
next table: 19895
cur table: 20743
epoch: 1000
next table: 18325
cur table: 19895
epoch: 1000
next table: 18794
cur table: 18325
epoch: 1000
next table: 3254
cur table: 3137
epoch: 1000
next table: 22388
cur table: 18794
epoch: 1000
next table: 20777
cur table: 22388
epoch: 1000
next table: 3335
cur table: 3254
epoch: 1000
next table: 17457
cur table: 20777
epoch: 1000
next table: 21557
cur table: 17457
epoch: 1000
next table: 21813
cur table: 21557
epoch: 1000
next table: 3354
cur table: 3335
epoch: 1000
next table: 21278
cur table: 21813
epoch: 1000
next table: 22647
cur table: 21278
epoch: 1000
next table: 3049
cur table: 3354
epoch: 1000
next table: 18548
cur table: 22647
Heartbeat CPU 0 instructions: 10000002 cycles: 3587499 heartbeat IPC: 2.78746 cumulative IPC: 2.78746 (Simulation time: 0 hr 3 min 14 sec) 
epoch: 1000
next table: 12372
cur table: 18548
epoch: 1000
next table: 3296
cur table: 3049
epoch: 1000
next table: 20506
cur table: 12372
epoch: 1000
next table: 19825
cur table: 20506
epoch: 1000
next table: 2963
cur table: 3296
epoch: 1000
next table: 22590
cur table: 19825
epoch: 1000
next table: 17891
cur table: 22590
epoch: 1000
next table: 3030
cur table: 2963
epoch: 1000
next table: 20730
cur table: 17891
epoch: 1000
next table: 22778
cur table: 20730
epoch: 1000
next table: 2991
cur table: 3030
epoch: 1000
next table: 23071
cur table: 22778
epoch: 1000
next table: 20234
cur table: 23071
epoch: 1000
next table: 23942
cur table: 20234
epoch: 1000
next table: 3067
cur table: 2991
epoch: 1000
next table: 25259
cur table: 23942
epoch: 1000
next table: 2742
cur table: 3067
epoch: 1000
next table: 23355
cur table: 25259
epoch: 1000
next table: 22470
cur table: 23355
epoch: 1000
next table: 2688
cur table: 2742
epoch: 1000
next table: 24247
cur table: 22470
epoch: 1000
next table: 26987
cur table: 24247
epoch: 1000
next table: 2708
cur table: 2688
epoch: 1000
next table: 23198
cur table: 26987
epoch: 1000
next table: 20344
cur table: 23198
epoch: 1000
next table: 2799
cur table: 2708
epoch: 1000
next table: 22257
cur table: 20344
epoch: 1000
next table: 2660
cur table: 2799
epoch: 1000
next table: 24482
cur table: 22257
epoch: 1000
next table: 22975
cur table: 24482
epoch: 1000
next table: 2571
cur table: 2660
epoch: 1000
next table: 22848
cur table: 22975
epoch: 1000
next table: 17748
cur table: 22848
epoch: 1000
next table: 2751
cur table: 2571
epoch: 1000
next table: 22664
cur table: 17748
epoch: 1000
next table: 2459
cur table: 2751
epoch: 1000
next table: 22750
cur table: 22664
epoch: 1000
next table: 20977
cur table: 22750
epoch: 1000
next table: 2657
cur table: 2459
epoch: 1000
next table: 17605
cur table: 20977
epoch: 1000
next table: 21548
cur table: 17605
epoch: 1000
next table: 2596
cur table: 2657
epoch: 1000
next table: 20540
cur table: 21548
epoch: 1000
next table: 2551
cur table: 2596
epoch: 1000
next table: 21990
cur table: 20540
epoch: 1000
next table: 21854
cur table: 21990
epoch: 1000
next table: 2487
cur table: 2551
epoch: 1000
next table: 18361
cur table: 21854
epoch: 1000
next table: 2497
cur table: 2487
epoch: 1000
next table: 20726
cur table: 18361
epoch: 1000
next table: 21674
cur table: 20726
epoch: 1000
next table: 2442
cur table: 2497
epoch: 1000
next table: 22812
cur table: 21674
epoch: 1000
next table: 2313
cur table: 2442
epoch: 1000
next table: 18771
cur table: 22812
epoch: 1000
next table: 23013
cur table: 18771
epoch: 1000
next table: 2521
cur table: 2313
epoch: 1000
next table: 23896
cur table: 23013
epoch: 1000
next table: 2371
cur table: 2521
epoch: 1000
next table: 24274
cur table: 23896
epoch: 1000
next table: 22459
cur table: 24274
epoch: 1000
next table: 2379
cur table: 2371
epoch: 1000
next table: 23337
cur table: 22459
epoch: 1000
next table: 2397
cur table: 2379
epoch: 1000
next table: 23973
cur table: 23337
epoch: 1000
next table: 24880
cur table: 23973
epoch: 1000
next table: 2399
cur table: 2397
epoch: 1000
next table: 22523
cur table: 24880
epoch: 1000
next table: 2351
cur table: 2399
epoch: 1000
next table: 19921
cur table: 22523
epoch: 1000
next table: 2301
cur table: 2351
epoch: 1000
next table: 23905
cur table: 19921
epoch: 1000
next table: 22042
cur table: 23905
epoch: 1000
next table: 2187
cur table: 2301
epoch: 1000
next table: 22738
cur table: 22042
epoch: 1000
next table: 2250
cur table: 2187
Heartbeat CPU 0 instructions: 20000001 cycles: 7170994 heartbeat IPC: 2.79057 cumulative IPC: 2.78901 (Simulation time: 0 hr 6 min 29 sec) 
epoch: 1000
next table: 17503
cur table: 22738
epoch: 1000
next table: 2281
cur table: 2250
epoch: 1000
next table: 22652
cur table: 17503
epoch: 1000
next table: 19998
cur table: 22652
epoch: 1000
next table: 2282
cur table: 2281
epoch: 1000
next table: 20574
cur table: 19998
epoch: 1000
next table: 2430
cur table: 2282
epoch: 1000
next table: 19913
cur table: 20574
epoch: 1000
next table: 2252
cur table: 2430
epoch: 1000
next table: 18050
cur table: 19913
epoch: 1000
next table: 20116
cur table: 18050
epoch: 1000
next table: 2382
cur table: 2252
epoch: 1000
next table: 21602
cur table: 20116
epoch: 1000
next table: 2210
cur table: 2382
epoch: 1000
next table: 20391
cur table: 21602
epoch: 1000
next table: 2346
cur table: 2210
epoch: 1000
next table: 18773
cur table: 20391
epoch: 1000
next table: 18868
cur table: 18773
epoch: 1000
next table: 2283
cur table: 2346
epoch: 1000
next table: 22420
cur table: 18868
epoch: 1000
next table: 2179
cur table: 2283
epoch: 1000
next table: 22685
cur table: 22420
epoch: 1000
next table: 2161
cur table: 2179
epoch: 1000
next table: 22010
cur table: 22685
epoch: 1000
next table: 16557
cur table: 22010
epoch: 1000
next table: 2392
cur table: 2161
epoch: 1000
next table: 22622
cur table: 16557
epoch: 1000
next table: 2202
cur table: 2392
epoch: 1000
next table: 21743
cur table: 22622
epoch: 1000
next table: 2318
cur table: 2202
epoch: 1000
next table: 19984
cur table: 21743
epoch: 1000
next table: 21734
cur table: 19984
epoch: 1000
next table: 2322
cur table: 2318
epoch: 1000
next table: 16628
cur table: 21734
epoch: 1000
next table: 2239
cur table: 2322
epoch: 1000
next table: 22271
cur table: 16628
epoch: 1000
next table: 2276
cur table: 2239
epoch: 1000
next table: 19010
cur table: 22271
epoch: 1000
next table: 2172
cur table: 2276
epoch: 1000
next table: 21366
cur table: 19010
epoch: 1000
next table: 17281
cur table: 21366
epoch: 1000
next table: 2334
cur table: 2172
epoch: 1000
next table: 17610
cur table: 17281
epoch: 1000
next table: 2236
cur table: 2334
epoch: 1000
next table: 18689
cur table: 17610
epoch: 1000
next table: 2195
cur table: 2236
epoch: 1000
next table: 18687
cur table: 18689
epoch: 1000
next table: 20464
cur table: 18687
epoch: 1000
next table: 2040
cur table: 2195
epoch: 1000
next table: 19965
cur table: 20464
epoch: 1000
next table: 2333
cur table: 2040
epoch: 1000
next table: 15940
cur table: 19965
epoch: 1000
next table: 2148
cur table: 2333
epoch: 1000
next table: 18945
cur table: 15940
epoch: 1000
next table: 2155
cur table: 2148
epoch: 1000
next table: 21419
cur table: 18945
epoch: 1000
next table: 19672
cur table: 21419
epoch: 1000
next table: 2281
cur table: 2155
epoch: 1000
next table: 19025
cur table: 19672
epoch: 1000
next table: 2165
cur table: 2281
epoch: 1000
next table: 17113
cur table: 19025
epoch: 1000
next table: 2181
cur table: 2165
epoch: 1000
next table: 20503
cur table: 17113
epoch: 1000
next table: 2252
cur table: 2181
epoch: 1000
next table: 18951
cur table: 20503
epoch: 1000
next table: 2066
cur table: 2252
epoch: 1000
next table: 22152
cur table: 18951
epoch: 1000
next table: 18542
cur table: 22152
epoch: 1000
next table: 2233
cur table: 2066
epoch: 1000
next table: 18934
cur table: 18542
epoch: 1000
next table: 2146
cur table: 2233
epoch: 1000
next table: 19786
cur table: 18934
epoch: 1000
next table: 2098
cur table: 2146
epoch: 1000
next table: 21384
cur table: 19786
epoch: 1000
next table: 2002
cur table: 2098
epoch: 1000
next table: 19993
cur table: 21384
epoch: 1000
next table: 2242
cur table: 2002
epoch: 1000
next table: 17932
cur table: 19993
epoch: 1000
next table: 20039
cur table: 17932
epoch: 1000
next table: 2133
cur table: 2242
epoch: 1000
next table: 22584
cur table: 20039
epoch: 1000
next table: 2137
cur table: 2133
epoch: 1000
next table: 20838
cur table: 22584
epoch: 1000
next table: 2177
cur table: 2137
epoch: 1000
next table: 20878
cur table: 20838
epoch: 1000
next table: 2141
cur table: 2177
epoch: 1000
next table: 17672
cur table: 20878
epoch: 1000
next table: 2156
cur table: 2141
epoch: 1000
next table: 21567
cur table: 17672
epoch: 1000
next table: 2089
cur table: 2156
epoch: 1000
next table: 21620
cur table: 21567
epoch: 1000
next table: 19145
cur table: 21620
epoch: 1000
next table: 2034
cur table: 2089
epoch: 1000
next table: 22727
cur table: 19145
epoch: 1000
next table: 2057
cur table: 2034
Heartbeat CPU 0 instructions: 30000002 cycles: 10758408 heartbeat IPC: 2.78752 cumulative IPC: 2.78852 (Simulation time: 0 hr 9 min 47 sec) 
epoch: 1000
next table: 15351
cur table: 22727
epoch: 1000
next table: 2164
cur table: 2057
epoch: 1000
next table: 20501
cur table: 15351
epoch: 1000
next table: 2064
cur table: 2164
epoch: 1000
next table: 20628
cur table: 20501
epoch: 1000
next table: 2052
cur table: 2064
epoch: 1000
next table: 20624
cur table: 20628
epoch: 1000
next table: 2157
cur table: 2052
epoch: 1000
next table: 19734
cur table: 20624
epoch: 1000
next table: 2189
cur table: 2157
epoch: 1000
next table: 16562
cur table: 19734
epoch: 1000
next table: 22553
cur table: 16562
epoch: 1000
next table: 2096
cur table: 2189
epoch: 1000
next table: 19144
cur table: 22553
epoch: 1000
next table: 2146
cur table: 2096
epoch: 1000
next table: 21307
cur table: 19144
epoch: 1000
next table: 2137
cur table: 2146
epoch: 1000
next table: 17198
cur table: 21307
epoch: 1000
next table: 2111
cur table: 2137
epoch: 1000
next table: 19131
cur table: 17198
epoch: 1000
next table: 2119
cur table: 2111
epoch: 1000
next table: 20282
cur table: 19131
epoch: 1000
next table: 2075
cur table: 2119
epoch: 1000
next table: 19865
cur table: 20282
epoch: 1000
next table: 18665
cur table: 19865
epoch: 1000
next table: 2148
cur table: 2075
epoch: 1000
next table: 17918
cur table: 18665
epoch: 1000
next table: 2169
cur table: 2148
epoch: 1000
next table: 15912
cur table: 17918
epoch: 1000
next table: 2160
cur table: 2169
epoch: 1000
next table: 18416
cur table: 15912
epoch: 1000
next table: 2110
cur table: 2160
epoch: 1000
next table: 18578
cur table: 18416
epoch: 1000
next table: 2029
cur table: 2110
epoch: 1000
next table: 18437
cur table: 18578
epoch: 1000
next table: 2247
cur table: 2029
epoch: 1000
next table: 20571
cur table: 18437
epoch: 1000
next table: 15198
cur table: 20571
epoch: 1000
next table: 2249
cur table: 2247
epoch: 1000
next table: 19549
cur table: 15198
epoch: 1000
next table: 2065
cur table: 2249
epoch: 1000
next table: 19846
cur table: 19549
epoch: 1000
next table: 2255
cur table: 2065
epoch: 1000
next table: 18887
cur table: 19846
epoch: 1000
next table: 2173
cur table: 2255
epoch: 1000
next table: 20634
cur table: 18887
epoch: 1000
next table: 17154
cur table: 20634
epoch: 1000
next table: 2157
cur table: 2173
epoch: 1000
next table: 20527
cur table: 17154
epoch: 1000
next table: 2283
cur table: 2157
epoch: 1000
next table: 19742
cur table: 20527
epoch: 1000
next table: 2110
cur table: 2283
epoch: 1000
next table: 19624
cur table: 19742
epoch: 1000
next table: 2164
cur table: 2110
epoch: 1000
next table: 20694
cur table: 19624
epoch: 1000
next table: 13436
cur table: 20694
epoch: 1000
next table: 2290
cur table: 2164
epoch: 1000
next table: 20419
cur table: 13436
epoch: 1000
next table: 2172
cur table: 2290
epoch: 1000
next table: 20640
cur table: 20419
epoch: 1000
next table: 2056
cur table: 2172
epoch: 1000
next table: 20638
cur table: 20640
epoch: 1000
next table: 2136
cur table: 2056
epoch: 1000
next table: 20551
cur table: 20638
epoch: 1000
next table: 2211
cur table: 2136
epoch: 1000
next table: 15746
cur table: 20551
epoch: 1000
next table: 22454
cur table: 15746
epoch: 1000
next table: 2152
cur table: 2211
epoch: 1000
next table: 21065
cur table: 22454
epoch: 1000
next table: 2124
cur table: 2152
epoch: 1000
next table: 20778
cur table: 21065
epoch: 1000
next table: 2134
cur table: 2124
epoch: 1000
next table: 19947
cur table: 20778
epoch: 1000
next table: 2188
cur table: 2134
epoch: 1000
next table: 18145
cur table: 19947
epoch: 1000
next table: 2135
cur table: 2188
epoch: 1000
next table: 18820
cur table: 18145
epoch: 1000
next table: 2000
cur table: 2135
epoch: 1000
next table: 21358
cur table: 18820
epoch: 1000
next table: 20024
cur table: 21358
epoch: 1000
next table: 2134
cur table: 2000
epoch: 1000
next table: 18095
cur table: 20024
epoch: 1000
next table: 2173
cur table: 2134
epoch: 1000
next table: 17540
cur table: 18095
epoch: 1000
next table: 2069
cur table: 2173
epoch: 1000
next table: 19444
cur table: 17540
epoch: 1000
next table: 2144
cur table: 2069
epoch: 1000
next table: 19757
cur table: 19444
epoch: 1000
next table: 2047
cur table: 2144
epoch: 1000
next table: 18765
cur table: 19757
epoch: 1000
next table: 2228
cur table: 2047
epoch: 1000
next table: 18510
cur table: 18765
epoch: 1000
next table: 16286
cur table: 18510
epoch: 1000
next table: 2117
cur table: 2228
epoch: 1000
next table: 20634
cur table: 16286
epoch: 1000
next table: 2120
cur table: 2117
epoch: 1000
next table: 19659
cur table: 20634
epoch: 1000
next table: 2260
cur table: 2120
epoch: 1000
next table: 18841
cur table: 19659
epoch: 1000
next table: 2011
cur table: 2260
epoch: 1000
next table: 20332
cur table: 18841
Heartbeat CPU 0 instructions: 40000003 cycles: 14345500 heartbeat IPC: 2.78777 cumulative IPC: 2.78833 (Simulation time: 0 hr 13 min 2 sec) 
epoch: 1000
next table: 2144
cur table: 2011
epoch: 1000
next table: 16558
cur table: 20332
epoch: 1000
next table: 2190
cur table: 2144
epoch: 1000
next table: 19365
cur table: 16558
epoch: 1000
next table: 18651
cur table: 19365
epoch: 1000
next table: 2113
cur table: 2190
epoch: 1000
next table: 18620
cur table: 18651
epoch: 1000
next table: 2052
cur table: 2113
epoch: 1000
next table: 18705
cur table: 18620
epoch: 1000
next table: 2256
cur table: 2052
epoch: 1000
next table: 13952
cur table: 18705
epoch: 1000
next table: 2122
cur table: 2256
epoch: 1000
next table: 18313
cur table: 13952
epoch: 1000
next table: 2094
cur table: 2122
epoch: 1000
next table: 19458
cur table: 18313
epoch: 1000
next table: 18734
cur table: 19458
epoch: 1000
next table: 2026
cur table: 2094
epoch: 1000
next table: 20542
cur table: 18734
epoch: 1000
next table: 2230
cur table: 2026
epoch: 1000
next table: 15274
cur table: 20542
epoch: 1000
next table: 2105
cur table: 2230
epoch: 1000
next table: 19598
cur table: 15274
epoch: 1000
next table: 2154
cur table: 2105
epoch: 1000
next table: 19804
cur table: 19598
epoch: 1000
next table: 2217
cur table: 2154
epoch: 1000
next table: 18602
cur table: 19804
epoch: 1000
next table: 18867
cur table: 18602
epoch: 1000
next table: 2083
cur table: 2217
epoch: 1000
next table: 16994
cur table: 18867
epoch: 1000
next table: 2164
cur table: 2083
epoch: 1000
next table: 20654
cur table: 16994
epoch: 1000
next table: 2174
cur table: 2164
epoch: 1000
next table: 18973
cur table: 20654
epoch: 1000
next table: 2033
cur table: 2174
epoch: 1000
next table: 21210
cur table: 18973
epoch: 1000
next table: 2138
cur table: 2033
epoch: 1000
next table: 19816
cur table: 21210
epoch: 1000
next table: 2123
cur table: 2138
epoch: 1000
next table: 14188
cur table: 19816
epoch: 1000
next table: 18407
cur table: 14188
epoch: 1000
next table: 2202
cur table: 2123
epoch: 1000
next table: 19513
cur table: 18407
epoch: 1000
next table: 2099
cur table: 2202
epoch: 1000
next table: 18794
cur table: 19513
epoch: 1000
next table: 2025
cur table: 2099
epoch: 1000
next table: 20314
cur table: 18794
epoch: 1000
next table: 2249
cur table: 2025
epoch: 1000
next table: 17684
cur table: 20314
epoch: 1000
next table: 2242
cur table: 2249
epoch: 1000
next table: 17201
cur table: 17684
epoch: 1000
next table: 19588
cur table: 17201
epoch: 1000
next table: 2162
cur table: 2242
epoch: 1000
next table: 18647
cur table: 19588
epoch: 1000
next table: 2272
cur table: 2162
epoch: 1000
next table: 20758
cur table: 18647
epoch: 1000
next table: 2014
cur table: 2272
epoch: 1000
next table: 19962
cur table: 20758
epoch: 1000
next table: 2113
cur table: 2014
epoch: 1000
next table: 17914
cur table: 19962
epoch: 1000
next table: 2104
cur table: 2113
epoch: 1000
next table: 20658
cur table: 17914
epoch: 1000
next table: 2097
cur table: 2104
epoch: 1000
next table: 18741
cur table: 20658
epoch: 1000
next table: 20765
cur table: 18741
epoch: 1000
next table: 2098
cur table: 2097
epoch: 1000
next table: 17547
cur table: 20765
epoch: 1000
next table: 2160
cur table: 2098
epoch: 1000
next table: 16990
cur table: 17547
epoch: 1000
next table: 2059
cur table: 2160
epoch: 1000
next table: 19921
cur table: 16990
epoch: 1000
next table: 2027
cur table: 2059
epoch: 1000
next table: 22461
cur table: 19921
epoch: 1000
next table: 2041
cur table: 2027
epoch: 1000
next table: 22650
cur table: 22461
epoch: 1000
next table: 2181
cur table: 2041
epoch: 1000
next table: 17585
cur table: 22650
epoch: 1000
next table: 2032
cur table: 2181
epoch: 1000
next table: 24177
cur table: 17585
epoch: 1000
next table: 2129
cur table: 2032
epoch: 1000
next table: 23765
cur table: 24177
epoch: 1000
next table: 2004
cur table: 2129
epoch: 1000
next table: 23434
cur table: 23765
epoch: 1000
next table: 2032
cur table: 2004
epoch: 1000
next table: 20836
cur table: 23434
epoch: 1000
next table: 24730
cur table: 20836
epoch: 1000
next table: 2102
cur table: 2032
epoch: 1000
next table: 23725
cur table: 24730
epoch: 1000
next table: 1956
cur table: 2102
epoch: 1000
next table: 23123
cur table: 23725
epoch: 1000
next table: 2123
cur table: 1956
epoch: 1000
next table: 20786
cur table: 23123
epoch: 1000
next table: 2123
cur table: 2123
epoch: 1000
next table: 17589
cur table: 20786
epoch: 1000
next table: 2015
cur table: 2123
epoch: 1000
next table: 22304
cur table: 17589
epoch: 1000
next table: 1993
cur table: 2015
epoch: 1000
next table: 21931
cur table: 22304
epoch: 1000
next table: 2169
cur table: 1993
epoch: 1000
next table: 20718
cur table: 21931
Heartbeat CPU 0 instructions: 50000003 cycles: 17931546 heartbeat IPC: 2.78859 cumulative IPC: 2.78838 (Simulation time: 0 hr 16 min 6 sec) 

Warmup complete CPU 0 instructions: 50000003 cycles: 17931546 (Simulation time: 0 hr 16 min 6 sec) 

epoch: 1000
next table: 20790
cur table: 18818
epoch: 1000
next table: 2100
cur table: 2006
epoch: 1000
next table: 20754
cur table: 20790
epoch: 1000
next table: 2089
cur table: 2100
epoch: 1000
next table: 18958
cur table: 20754
epoch: 1000
next table: 1944
cur table: 2089
epoch: 1000
next table: 20305
cur table: 18958
epoch: 1000
next table: 2095
cur table: 1944
epoch: 1000
next table: 16289
cur table: 20305
epoch: 1000
next table: 2165
cur table: 2095
epoch: 1000
next table: 18861
cur table: 16289
epoch: 1000
next table: 2014
cur table: 2165
epoch: 1000
next table: 19443
cur table: 18861
epoch: 1000
next table: 2193
cur table: 2014
epoch: 1000
next table: 19040
cur table: 19443
epoch: 1000
next table: 18347
cur table: 19040
epoch: 1000
next table: 2142
cur table: 2193
epoch: 1000
next table: 7327
cur table: 18347
epoch: 1000
next table: 1835
cur table: 2142
epoch: 1000
next table: 1844
cur table: 1835
epoch: 1000
next table: 2067
cur table: 7327
epoch: 1000
next table: 1811
cur table: 1844
epoch: 1000
next table: 6846
cur table: 2067
epoch: 1000
next table: 1802
cur table: 1811
epoch: 1000
next table: 8697
cur table: 6846
epoch: 1000
next table: 1722
cur table: 1802
epoch: 1000
next table: 6224
cur table: 8697
epoch: 1000
next table: 1803
cur table: 1722
epoch: 1000
next table: 8236
cur table: 6224
epoch: 1000
next table: 1763
cur table: 1803
epoch: 1000
next table: 7379
cur table: 8236
epoch: 1000
next table: 1774
cur table: 1763
epoch: 1000
next table: 8249
cur table: 7379
epoch: 1000
next table: 1768
cur table: 1774
epoch: 1000
next table: 7396
cur table: 8249
epoch: 1000
next table: 1775
cur table: 1768
epoch: 1000
next table: 7282
cur table: 7396
epoch: 1000
next table: 1908
cur table: 1775
epoch: 1000
next table: 7262
cur table: 7282
epoch: 1000
next table: 1910
cur table: 1908
epoch: 1000
next table: 6832
cur table: 7262
epoch: 1000
next table: 1959
cur table: 1910
epoch: 1000
next table: 8523
cur table: 6832
epoch: 1000
next table: 10296
cur table: 8523
epoch: 1000
next table: 1959
cur table: 1959
epoch: 1000
next table: 10298
cur table: 10296
epoch: 1000
next table: 1813
cur table: 1959
epoch: 1000
next table: 10272
cur table: 10298
epoch: 1000
next table: 10170
cur table: 10272
epoch: 1000
next table: 1940
cur table: 1813
epoch: 1000
next table: 9457
cur table: 10170
epoch: 1000
next table: 1961
cur table: 1940
epoch: 1000
next table: 9827
cur table: 9457
epoch: 1000
next table: 2362
cur table: 1961
epoch: 1000
next table: 7924
cur table: 9827
epoch: 1000
next table: 1821
cur table: 2362
epoch: 1000
next table: 8691
cur table: 7924
epoch: 1000
next table: 7495
cur table: 8691
epoch: 1000
next table: 2158
cur table: 1821
epoch: 1000
next table: 10051
cur table: 7495
epoch: 1000
next table: 1864
cur table: 2158
epoch: 1000
next table: 8977
cur table: 10051
epoch: 1000
next table: 8642
cur table: 8977
epoch: 1000
next table: 1935
cur table: 1864
epoch: 1000
next table: 8842
cur table: 8642
epoch: 1000
next table: 2063
cur table: 1935
epoch: 1000
next table: 10208
cur table: 8842
epoch: 1000
next table: 6590
cur table: 10208
epoch: 1000
next table: 2056
cur table: 2063
epoch: 1000
next table: 10349
cur table: 6590
epoch: 1000
next table: 1778
cur table: 2056
epoch: 1000
next table: 10063
cur table: 10349
epoch: 1000
next table: 9941
cur table: 10063
epoch: 1000
next table: 2164
cur table: 1778
epoch: 1000
next table: 9066
cur table: 9941
epoch: 1000
next table: 2065
cur table: 2164
epoch: 1000
next table: 9050
cur table: 9066
epoch: 1000
next table: 10309
cur table: 9050
epoch: 1000
next table: 1992
cur table: 2065
epoch: 1000
next table: 10143
cur table: 10309
epoch: 1000
next table: 2280
cur table: 1992
epoch: 1000
next table: 7169
cur table: 10143
epoch: 1000
next table: 11195
cur table: 7169
epoch: 1000
next table: 2004
cur table: 2280
epoch: 1000
next table: 10405
cur table: 11195
epoch: 1000
next table: 1853
cur table: 2004
epoch: 1000
next table: 10306
cur table: 10405
epoch: 1000
next table: 1816
cur table: 1853
epoch: 1000
next table: 10380
cur table: 10306
epoch: 1000
next table: 10442
cur table: 10380
epoch: 1000
next table: 1781
cur table: 1816
epoch: 1000
next table: 10286
cur table: 10442
epoch: 1000
next table: 2155
cur table: 1781
epoch: 1000
next table: 7918
cur table: 10286
epoch: 1000
next table: 1863
cur table: 2155
epoch: 1000
next table: 8782
cur table: 7918
epoch: 1000
next table: 8847
cur table: 8782
epoch: 1000
next table: 1997
cur table: 1863
epoch: 1000
next table: 9800
cur table: 8847
epoch: 1000
next table: 1911
cur table: 1997
epoch: 1000
next table: 9177
cur table: 9800
epoch: 1000
next table: 1819
cur table: 1911
epoch: 1000
next table: 8939
cur table: 9177
epoch: 1000
next table: 10195
cur table: 8939
epoch: 1000
next table: 2048
cur table: 1819
epoch: 1000
next table: 9282
cur table: 10195
epoch: 1000
next table: 2107
cur table: 2048
epoch: 1000
next table: 7753
cur table: 9282
epoch: 1000
next table: 1726
cur table: 2107
epoch: 1000
next table: 10189
cur table: 7753
epoch: 1000
next table: 10170
cur table: 10189
epoch: 1000
next table: 2019
cur table: 1726
epoch: 1000
next table: 9098
cur table: 10170
epoch: 1000
next table: 1972
cur table: 2019
epoch: 1000
next table: 10182
cur table: 9098
epoch: 1000
next table: 10346
cur table: 10182
epoch: 1000
next table: 2000
cur table: 1972
epoch: 1000
next table: 10232
cur table: 10346
epoch: 1000
next table: 2201
cur table: 2000
epoch: 1000
next table: 8071
cur table: 10232
epoch: 1000
next table: 10156
cur table: 8071
epoch: 1000
next table: 1991
cur table: 2201
epoch: 1000
next table: 10469
cur table: 10156
epoch: 1000
next table: 1879
cur table: 1991
epoch: 1000
next table: 10308
cur table: 10469
epoch: 1000
next table: 1976
cur table: 1879
epoch: 1000
next table: 10164
cur table: 10308
epoch: 1000
next table: 10318
cur table: 10164
epoch: 1000
next table: 1864
cur table: 1976
epoch: 1000
next table: 8969
cur table: 10318
epoch: 1000
next table: 1966
cur table: 1864
epoch: 1000
next table: 9700
cur table: 8969
epoch: 1000
next table: 2087
cur table: 1966
epoch: 1000
next table: 8895
cur table: 9700
epoch: 1000
next table: 1643
cur table: 2087
epoch: 1000
next table: 10260
cur table: 8895
epoch: 1000
next table: 11660
cur table: 10260
epoch: 1000
next table: 1669
cur table: 1643
epoch: 1000
next table: 10349
cur table: 11660
epoch: 1000
next table: 1702
cur table: 1669
epoch: 1000
next table: 10399
cur table: 10349
epoch: 1000
next table: 1786
cur table: 1702
epoch: 1000
next table: 11822
cur table: 10399
epoch: 1000
next table: 1908
cur table: 1786
epoch: 1000
next table: 8597
cur table: 11822
epoch: 1000
next table: 1850
cur table: 1908
epoch: 1000
next table: 9202
cur table: 8597
epoch: 1000
next table: 9496
cur table: 9202
epoch: 1000
next table: 1808
cur table: 1850
epoch: 1000
next table: 10398
cur table: 9496
epoch: 1000
next table: 2013
cur table: 1808
epoch: 1000
next table: 10309
cur table: 10398
epoch: 1000
next table: 1896
cur table: 2013
epoch: 1000
next table: 11535
cur table: 10309
epoch: 1000
next table: 10293
cur table: 11535
epoch: 1000
next table: 2026
cur table: 1896
epoch: 1000
next table: 9942
cur table: 10293
epoch: 1000
next table: 1887
cur table: 2026
epoch: 1000
next table: 9920
cur table: 9942
epoch: 1000
next table: 1693
cur table: 1887
epoch: 1000
next table: 10593
cur table: 9920
epoch: 1000
next table: 1594
cur table: 1693
epoch: 1000
next table: 13284
cur table: 10593
epoch: 1000
next table: 10497
cur table: 13284
epoch: 1000
next table: 1798
cur table: 1594
epoch: 1000
next table: 13161
cur table: 10497
epoch: 1000
next table: 1757
cur table: 1798
epoch: 1000
next table: 10646
cur table: 13161
epoch: 1000
next table: 2231
cur table: 1757
epoch: 1000
next table: 9334
cur table: 10646
epoch: 1000
next table: 1556
cur table: 2231
epoch: 1000
next table: 9018
cur table: 9334
epoch: 1000
next table: 1720
cur table: 1556
epoch: 1000
next table: 11560
cur table: 9018
epoch: 1000
next table: 1612
cur table: 1720
epoch: 1000
next table: 10557
cur table: 11560
epoch: 1000
next table: 1761
cur table: 1612
epoch: 1000
next table: 10823
cur table: 10557
epoch: 1000
next table: 1757
cur table: 1761
epoch: 1000
next table: 11228
cur table: 10823
epoch: 1000
next table: 10260
cur table: 11228
epoch: 1000
next table: 1931
cur table: 1757
epoch: 1000
next table: 8131
cur table: 10260
epoch: 1000
next table: 1774
cur table: 1931
epoch: 1000
next table: 10323
cur table: 8131
epoch: 1000
next table: 1861
cur table: 1774
epoch: 1000
next table: 10445
cur table: 10323
epoch: 1000
next table: 1856
cur table: 1861
epoch: 1000
next table: 10338
cur table: 10445
epoch: 1000
next table: 11558
cur table: 10338
epoch: 1000
next table: 1807
cur table: 1856
epoch: 1000
next table: 11816
cur table: 11558
epoch: 1000
next table: 1962
cur table: 1807
epoch: 1000
next table: 10048
cur table: 11816
epoch: 1000
next table: 1908
cur table: 1962
epoch: 1000
next table: 8616
cur table: 10048
epoch: 1000
next table: 1645
cur table: 1908
epoch: 1000
next table: 13201
cur table: 8616
epoch: 1000
next table: 11815
cur table: 13201
epoch: 1000
next table: 1767
cur table: 1645
epoch: 1000
next table: 11897
cur table: 11815
epoch: 1000
next table: 1772
cur table: 1767
epoch: 1000
next table: 10549
cur table: 11897
epoch: 1000
next table: 2025
cur table: 1772
epoch: 1000
next table: 10457
cur table: 10549
epoch: 1000
next table: 1931
cur table: 2025
epoch: 1000
next table: 8508
cur table: 10457
epoch: 1000
next table: 1556
cur table: 1931
epoch: 1000
next table: 10402
cur table: 8508
Heartbeat CPU 0 instructions: 60000003 cycles: 29214166 heartbeat IPC: 0.886319 cumulative IPC: 0.886319 (Simulation time: 0 hr 19 min 0 sec) 
epoch: 1000
next table: 1668
cur table: 1556
epoch: 1000
next table: 11537
cur table: 10402
epoch: 1000
next table: 1724
cur table: 1668
epoch: 1000
next table: 9177
cur table: 11537
epoch: 1000
next table: 11732
cur table: 9177
epoch: 1000
next table: 1665
cur table: 1724
epoch: 1000
next table: 10801
cur table: 11732
epoch: 1000
next table: 1742
cur table: 1665
epoch: 1000
next table: 10048
cur table: 10801
epoch: 1000
next table: 1971
cur table: 1742
epoch: 1000
next table: 9331
cur table: 10048
epoch: 1000
next table: 1709
cur table: 1971
epoch: 1000
next table: 10284
cur table: 9331
epoch: 1000
next table: 1806
cur table: 1709
epoch: 1000
next table: 10566
cur table: 10284
epoch: 1000
next table: 1797
cur table: 1806
epoch: 1000
next table: 11627
cur table: 10566
epoch: 1000
next table: 10898
cur table: 11627
epoch: 1000
next table: 1888
cur table: 1797
epoch: 1000
next table: 10029
cur table: 10898
epoch: 1000
next table: 1944
cur table: 1888
epoch: 1000
next table: 11710
cur table: 10029
epoch: 1000
next table: 1850
cur table: 1944
epoch: 1000
next table: 10901
cur table: 11710
epoch: 1000
next table: 10627
cur table: 10901
epoch: 1000
next table: 1677
cur table: 1850
epoch: 1000
next table: 11927
cur table: 10627
epoch: 1000
next table: 1703
cur table: 1677
epoch: 1000
next table: 11705
cur table: 11927
epoch: 1000
next table: 1758
cur table: 1703
epoch: 1000
next table: 11965
cur table: 11705
epoch: 1000
next table: 1944
cur table: 1758
epoch: 1000
next table: 11755
cur table: 11965
epoch: 1000
next table: 1967
cur table: 1944
epoch: 1000
next table: 8036
cur table: 11755
epoch: 1000
next table: 1765
cur table: 1967
epoch: 1000
next table: 10283
cur table: 8036
epoch: 1000
next table: 1624
cur table: 1765
epoch: 1000
next table: 10450
cur table: 10283
epoch: 1000
next table: 1669
cur table: 1624
epoch: 1000
next table: 10313
cur table: 10450
epoch: 1000
next table: 10392
cur table: 10313
epoch: 1000
next table: 1713
cur table: 1669
epoch: 1000
next table: 11951
cur table: 10392
epoch: 1000
next table: 1825
cur table: 1713
epoch: 1000
next table: 8883
cur table: 11951
epoch: 1000
next table: 1866
cur table: 1825
epoch: 1000
next table: 9283
cur table: 8883
epoch: 1000
next table: 1719
cur table: 1866
epoch: 1000
next table: 10362
cur table: 9283
epoch: 1000
next table: 1903
cur table: 1719
epoch: 1000
next table: 10649
cur table: 10362
epoch: 1000
next table: 1816
cur table: 1903
epoch: 1000
next table: 10161
cur table: 10649
epoch: 1000
next table: 11707
cur table: 10161
epoch: 1000
next table: 1879
cur table: 1816
epoch: 1000
next table: 10426
cur table: 11707
epoch: 1000
next table: 1824
cur table: 1879
epoch: 1000
next table: 12800
cur table: 10426
epoch: 1000
next table: 1787
cur table: 1824
epoch: 1000
next table: 8669
cur table: 12800
epoch: 1000
next table: 1597
cur table: 1787
epoch: 1000
next table: 13151
cur table: 8669
epoch: 1000
next table: 10618
cur table: 13151
epoch: 1000
next table: 1707
cur table: 1597
epoch: 1000
next table: 13198
cur table: 10618
epoch: 1000
next table: 1693
cur table: 1707
epoch: 1000
next table: 12043
cur table: 13198
epoch: 1000
next table: 1895
cur table: 1693
epoch: 1000
next table: 11745
cur table: 12043
epoch: 1000
next table: 1958
cur table: 1895
epoch: 1000
next table: 7901
cur table: 11745
epoch: 1000
next table: 1685
cur table: 1958
epoch: 1000
next table: 10456
cur table: 7901
epoch: 1000
next table: 1648
cur table: 1685
epoch: 1000
next table: 10460
cur table: 10456
epoch: 1000
next table: 1690
cur table: 1648
epoch: 1000
next table: 10284
cur table: 10460
epoch: 1000
next table: 1720
cur table: 1690
epoch: 1000
next table: 10392
cur table: 10284
epoch: 1000
next table: 1974
cur table: 1720
epoch: 1000
next table: 10462
cur table: 10392
epoch: 1000
next table: 10173
cur table: 10462
epoch: 1000
next table: 1914
cur table: 1974
epoch: 1000
next table: 9352
cur table: 10173
epoch: 1000
next table: 1786
cur table: 1914
epoch: 1000
next table: 10831
cur table: 9352
epoch: 1000
next table: 1774
cur table: 1786
epoch: 1000
next table: 11210
cur table: 10831
epoch: 1000
next table: 1886
cur table: 1774
epoch: 1000
next table: 9127
cur table: 11210
epoch: 1000
next table: 11679
cur table: 9127
epoch: 1000
next table: 1772
cur table: 1886
epoch: 1000
next table: 10289
cur table: 11679
epoch: 1000
next table: 2111
cur table: 1772
epoch: 1000
next table: 10417
cur table: 10289
epoch: 1000
next table: 1779
cur table: 2111
epoch: 1000
next table: 8684
cur table: 10417
epoch: 1000
next table: 12780
cur table: 8684
epoch: 1000
next table: 1696
cur table: 1779
epoch: 1000
next table: 11763
cur table: 12780
epoch: 1000
next table: 1708
cur table: 1696
epoch: 1000
next table: 11902
cur table: 11763
epoch: 1000
next table: 1760
cur table: 1708
epoch: 1000
next table: 10619
cur table: 11902
epoch: 1000
next table: 2080
cur table: 1760
epoch: 1000
next table: 11550
cur table: 10619
epoch: 1000
next table: 1759
cur table: 2080
epoch: 1000
next table: 6754
cur table: 11550
epoch: 1000
next table: 1628
cur table: 1759
epoch: 1000
next table: 11893
cur table: 6754
epoch: 1000
next table: 1685
cur table: 1628
epoch: 1000
next table: 11549
cur table: 11893
epoch: 1000
next table: 1729
cur table: 1685
epoch: 1000
next table: 10384
cur table: 11549
epoch: 1000
next table: 10296
cur table: 10384
epoch: 1000
next table: 1798
cur table: 1729
epoch: 1000
next table: 10502
cur table: 10296
epoch: 1000
next table: 2031
cur table: 1798
epoch: 1000
next table: 10238
cur table: 10502
epoch: 1000
next table: 1798
cur table: 2031
epoch: 1000
next table: 7993
cur table: 10238
epoch: 1000
next table: 1854
cur table: 1798
epoch: 1000
next table: 9092
cur table: 7993
epoch: 1000
next table: 11646
cur table: 9092
epoch: 1000
next table: 1886
cur table: 1854
epoch: 1000
next table: 10336
cur table: 11646
epoch: 1000
next table: 1831
cur table: 1886
epoch: 1000
next table: 10390
cur table: 10336
epoch: 1000
next table: 2004
cur table: 1831
epoch: 1000
next table: 10328
cur table: 10390
epoch: 1000
next table: 10408
cur table: 10328
epoch: 1000
next table: 1834
cur table: 2004
epoch: 1000
next table: 10308
cur table: 10408
epoch: 1000
next table: 1853
cur table: 1834
epoch: 1000
next table: 11115
cur table: 10308
epoch: 1000
next table: 1720
cur table: 1853
epoch: 1000
next table: 10445
cur table: 11115
epoch: 1000
next table: 1792
cur table: 1720
epoch: 1000
next table: 11774
cur table: 10445
epoch: 1000
next table: 11699
cur table: 11774
epoch: 1000
next table: 1689
cur table: 1792
epoch: 1000
next table: 10522
cur table: 11699
epoch: 1000
next table: 2186
cur table: 1689
epoch: 1000
next table: 10339
cur table: 10522
epoch: 1000
next table: 1598
cur table: 2186
epoch: 1000
next table: 8095
cur table: 10339
epoch: 1000
next table: 1724
cur table: 1598
epoch: 1000
next table: 11322
cur table: 8095
epoch: 1000
next table: 1711
cur table: 1724
epoch: 1000
next table: 9427
cur table: 11322
epoch: 1000
next table: 1727
cur table: 1711
epoch: 1000
next table: 11516
cur table: 9427
epoch: 1000
next table: 1732
cur table: 1727
epoch: 1000
next table: 10358
cur table: 11516
epoch: 1000
next table: 1879
cur table: 1732
epoch: 1000
next table: 10504
cur table: 10358
epoch: 1000
next table: 10599
cur table: 10504
epoch: 1000
next table: 1849
cur table: 1879
epoch: 1000
next table: 9135
cur table: 10599
epoch: 1000
next table: 1795
cur table: 1849
epoch: 1000
next table: 10370
cur table: 9135
epoch: 1000
next table: 1866
cur table: 1795
epoch: 1000
next table: 10431
cur table: 10370
epoch: 1000
next table: 1869
cur table: 1866
epoch: 1000
next table: 10347
cur table: 10431
epoch: 1000
next table: 10377
cur table: 10347
epoch: 1000
next table: 1968
cur table: 1869
epoch: 1000
next table: 11677
cur table: 10377
epoch: 1000
next table: 1819
cur table: 1968
epoch: 1000
next table: 10044
cur table: 11677
epoch: 1000
next table: 1742
cur table: 1819
epoch: 1000
next table: 10099
cur table: 10044
epoch: 1000
next table: 1647
cur table: 1742
epoch: 1000
next table: 13272
cur table: 10099
epoch: 1000
next table: 1683
cur table: 1647
epoch: 1000
next table: 13184
cur table: 13272
epoch: 1000
next table: 10656
cur table: 13184
epoch: 1000
next table: 1735
cur table: 1683
epoch: 1000
next table: 11727
cur table: 10656
epoch: 1000
next table: 2030
cur table: 1735
epoch: 1000
next table: 12005
cur table: 11727
epoch: 1000
next table: 1758
cur table: 2030
epoch: 1000
next table: 8422
cur table: 12005
epoch: 1000
next table: 1747
cur table: 1758
epoch: 1000
next table: 10359
cur table: 8422
epoch: 1000
next table: 1721
cur table: 1747
epoch: 1000
next table: 10261
cur table: 10359
epoch: 1000
next table: 1808
cur table: 1721
epoch: 1000
next table: 10330
cur table: 10261
epoch: 1000
next table: 11002
cur table: 10330
epoch: 1000
next table: 1852
cur table: 1808
epoch: 1000
next table: 9858
cur table: 11002
epoch: 1000
next table: 1849
cur table: 1852
epoch: 1000
next table: 10258
cur table: 9858
epoch: 1000
next table: 1902
cur table: 1849
epoch: 1000
next table: 7997
cur table: 10258
epoch: 1000
next table: 1722
cur table: 1902
epoch: 1000
next table: 13120
cur table: 7997
epoch: 1000
next table: 1704
cur table: 1722
epoch: 1000
next table: 10465
cur table: 13120
epoch: 1000
next table: 10456
cur table: 10465
epoch: 1000
next table: 1915
cur table: 1704
epoch: 1000
next table: 10594
cur table: 10456
epoch: 1000
next table: 1896
cur table: 1915
epoch: 1000
next table: 12953
cur table: 10594
epoch: 1000
next table: 1827
cur table: 1896
epoch: 1000
next table: 8257
cur table: 12953
epoch: 1000
next table: 1690
cur table: 1827
epoch: 1000
next table: 11836
cur table: 8257
epoch: 1000
next table: 11682
cur table: 11836
epoch: 1000
next table: 1737
cur table: 1690
epoch: 1000
next table: 10563
cur table: 11682
epoch: 1000
next table: 1737
cur table: 1737
epoch: 1000
next table: 13034
cur table: 10563
epoch: 1000
next table: 2047
cur table: 1737
epoch: 1000
next table: 10699
cur table: 13034
epoch: 1000
next table: 1885
cur table: 2047
epoch: 1000
next table: 10200
cur table: 10699
Heartbeat CPU 0 instructions: 70000000 cycles: 39798666 heartbeat IPC: 0.944777 cumulative IPC: 0.914615 (Simulation time: 0 hr 21 min 41 sec) 
epoch: 1000
next table: 1732
cur table: 1885
epoch: 1000
next table: 8063
cur table: 10200
epoch: 1000
next table: 1671
cur table: 1732
epoch: 1000
next table: 10353
cur table: 8063
epoch: 1000
next table: 10404
cur table: 10353
epoch: 1000
next table: 1711
cur table: 1671
epoch: 1000
next table: 10328
cur table: 10404
epoch: 1000
next table: 1735
cur table: 1711
epoch: 1000
next table: 11824
cur table: 10328
epoch: 1000
next table: 1990
cur table: 1735
epoch: 1000
next table: 8890
cur table: 11824
epoch: 1000
next table: 1732
cur table: 1990
epoch: 1000
next table: 11814
cur table: 8890
epoch: 1000
next table: 1780
cur table: 1732
epoch: 1000
next table: 9352
cur table: 11814
epoch: 1000
next table: 10341
cur table: 9352
epoch: 1000
next table: 1785
cur table: 1780
epoch: 1000
next table: 10363
cur table: 10341
epoch: 1000
next table: 1877
cur table: 1785
epoch: 1000
next table: 10463
cur table: 10363
epoch: 1000
next table: 1813
cur table: 1877
epoch: 1000
next table: 10384
cur table: 10463
epoch: 1000
next table: 1916
cur table: 1813
epoch: 1000
next table: 11859
cur table: 10384
epoch: 1000
next table: 9923
cur table: 11859
epoch: 1000
next table: 1820
cur table: 1916
epoch: 1000
next table: 10863
cur table: 9923
epoch: 1000
next table: 1764
cur table: 1820
epoch: 1000
next table: 12355
cur table: 10863
epoch: 1000
next table: 1889
cur table: 1764
epoch: 1000
next table: 10530
cur table: 12355
epoch: 1000
next table: 1800
cur table: 1889
epoch: 1000
next table: 11735
cur table: 10530
epoch: 1000
next table: 9031
cur table: 11735
epoch: 1000
next table: 2145
cur table: 1800
epoch: 1000
next table: 11562
cur table: 9031
epoch: 1000
next table: 1624
cur table: 2145
epoch: 1000
next table: 7630
cur table: 11562
epoch: 1000
next table: 1714
cur table: 1624
epoch: 1000
next table: 10935
cur table: 7630
epoch: 1000
next table: 1828
cur table: 1714
epoch: 1000
next table: 9045
cur table: 10935
epoch: 1000
next table: 1734
cur table: 1828
epoch: 1000
next table: 11501
cur table: 9045
epoch: 1000
next table: 1725
cur table: 1734
epoch: 1000
next table: 10378
cur table: 11501
epoch: 1000
next table: 8999
cur table: 10378
epoch: 1000
next table: 2090
cur table: 1725
epoch: 1000
next table: 11095
cur table: 8999
epoch: 1000
next table: 1730
cur table: 2090
epoch: 1000
next table: 8540
cur table: 11095
epoch: 1000
next table: 1879
cur table: 1730
epoch: 1000
next table: 10406
cur table: 8540
epoch: 1000
next table: 1938
cur table: 1879
epoch: 1000
next table: 10192
cur table: 10406
epoch: 1000
next table: 9085
cur table: 10192
epoch: 1000
next table: 1947
cur table: 1938
epoch: 1000
next table: 11676
cur table: 9085
epoch: 1000
next table: 1965
cur table: 1947
epoch: 1000
next table: 8988
cur table: 11676
epoch: 1000
next table: 13082
cur table: 8988
epoch: 1000
next table: 2046
cur table: 1965
epoch: 1000
next table: 8288
cur table: 13082
epoch: 1000
next table: 1793
cur table: 2046
epoch: 1000
next table: 11926
cur table: 8288
epoch: 1000
next table: 1702
cur table: 1793
epoch: 1000
next table: 11731
cur table: 11926
epoch: 1000
next table: 1701
cur table: 1702
epoch: 1000
next table: 11905
cur table: 11731
epoch: 1000
next table: 1839
cur table: 1701
epoch: 1000
next table: 11736
cur table: 11905
epoch: 1000
next table: 10457
cur table: 11736
epoch: 1000
next table: 2331
cur table: 1839
epoch: 1000
next table: 10102
cur table: 10457
epoch: 1000
next table: 1578
cur table: 2331
epoch: 1000
next table: 8100
cur table: 10102
epoch: 1000
next table: 1595
cur table: 1578
epoch: 1000
next table: 10453
cur table: 8100
epoch: 1000
next table: 1671
cur table: 1595
epoch: 1000
next table: 10331
cur table: 10453
epoch: 1000
next table: 1780
cur table: 1671
epoch: 1000
next table: 10394
cur table: 10331
epoch: 1000
next table: 1920
cur table: 1780
epoch: 1000
next table: 10329
cur table: 10394
epoch: 1000
next table: 1852
cur table: 1920
epoch: 1000
next table: 10385
cur table: 10329
epoch: 1000
next table: 10305
cur table: 10385
epoch: 1000
next table: 1822
cur table: 1852
epoch: 1000
next table: 10428
cur table: 10305
epoch: 1000
next table: 1822
cur table: 1822
epoch: 1000
next table: 10622
cur table: 10428
epoch: 1000
next table: 1882
cur table: 1822
epoch: 1000
next table: 10347
cur table: 10622
epoch: 1000
next table: 10441
cur table: 10347
epoch: 1000
next table: 1863
cur table: 1882
epoch: 1000
next table: 10310
cur table: 10441
epoch: 1000
next table: 2074
cur table: 1863
epoch: 1000
next table: 10434
cur table: 10310
epoch: 1000
next table: 1877
cur table: 2074
epoch: 1000
next table: 10530
cur table: 10434
epoch: 1000
next table: 9587
cur table: 10530
epoch: 1000
next table: 1812
cur table: 1877
epoch: 1000
next table: 11602
cur table: 9587
epoch: 1000
next table: 1720
cur table: 1812
epoch: 1000
next table: 10425
cur table: 11602
epoch: 1000
next table: 1847
cur table: 1720
epoch: 1000
next table: 11740
cur table: 10425
epoch: 1000
next table: 2078
cur table: 1847
epoch: 1000
next table: 10282
cur table: 11740
epoch: 1000
next table: 1943
cur table: 2078
epoch: 1000
next table: 9078
cur table: 10282
epoch: 1000
next table: 9750
cur table: 9078
epoch: 1000
next table: 1764
cur table: 1943
epoch: 1000
next table: 10090
cur table: 9750
epoch: 1000
next table: 1612
cur table: 1764
epoch: 1000
next table: 10135
cur table: 10090
epoch: 1000
next table: 1821
cur table: 1612
epoch: 1000
next table: 10273
cur table: 10135
epoch: 1000
next table: 1770
cur table: 1821
epoch: 1000
next table: 10260
cur table: 10273
epoch: 1000
next table: 9505
cur table: 10260
epoch: 1000
next table: 1989
cur table: 1770
epoch: 1000
next table: 11158
cur table: 9505
epoch: 1000
next table: 1753
cur table: 1989
epoch: 1000
next table: 9873
cur table: 11158
epoch: 1000
next table: 1835
cur table: 1753
epoch: 1000
next table: 9919
cur table: 9873
epoch: 1000
next table: 1801
cur table: 1835
epoch: 1000
next table: 10434
cur table: 9919
epoch: 1000
next table: 10474
cur table: 10434
epoch: 1000
next table: 1831
cur table: 1801
epoch: 1000
next table: 11651
cur table: 10474
epoch: 1000
next table: 1997
cur table: 1831
epoch: 1000
next table: 11811
cur table: 11651
epoch: 1000
next table: 1835
cur table: 1997
epoch: 1000
next table: 10637
cur table: 11811
epoch: 1000
next table: 1757
cur table: 1835
epoch: 1000
next table: 9746
cur table: 10637
epoch: 1000
next table: 1625
cur table: 1757
epoch: 1000
next table: 11653
cur table: 9746
epoch: 1000
next table: 13128
cur table: 11653
epoch: 1000
next table: 1728
cur table: 1625
epoch: 1000
next table: 10592
cur table: 13128
epoch: 1000
next table: 1958
cur table: 1728
epoch: 1000
next table: 10610
cur table: 10592
epoch: 1000
next table: 2175
cur table: 1958
epoch: 1000
next table: 10235
cur table: 10610
epoch: 1000
next table: 1586
cur table: 2175
epoch: 1000
next table: 10275
cur table: 10235
epoch: 1000
next table: 1703
cur table: 1586
epoch: 1000
next table: 9421
cur table: 10275
epoch: 1000
next table: 1594
cur table: 1703
epoch: 1000
next table: 10361
cur table: 9421
epoch: 1000
next table: 1748
cur table: 1594
epoch: 1000
next table: 10402
cur table: 10361
epoch: 1000
next table: 10477
cur table: 10402
epoch: 1000
next table: 1822
cur table: 1748
epoch: 1000
next table: 10189
cur table: 10477
epoch: 1000
next table: 1990
cur table: 1822
epoch: 1000
next table: 10328
cur table: 10189
epoch: 1000
next table: 1750
cur table: 1990
epoch: 1000
next table: 10449
cur table: 10328
epoch: 1000
next table: 1849
cur table: 1750
epoch: 1000
next table: 9377
cur table: 10449
epoch: 1000
next table: 10376
cur table: 9377
epoch: 1000
next table: 1878
cur table: 1849
epoch: 1000
next table: 10452
cur table: 10376
epoch: 1000
next table: 1889
cur table: 1878
epoch: 1000
next table: 10944
cur table: 10452
epoch: 1000
next table: 2048
cur table: 1889
epoch: 1000
next table: 11236
cur table: 10944
epoch: 1000
next table: 11620
cur table: 11236
epoch: 1000
next table: 1881
cur table: 2048
epoch: 1000
next table: 8696
cur table: 11620
epoch: 1000
next table: 1760
cur table: 1881
epoch: 1000
next table: 12746
cur table: 8696
epoch: 1000
next table: 1660
cur table: 1760
epoch: 1000
next table: 10422
cur table: 12746
epoch: 1000
next table: 1816
cur table: 1660
epoch: 1000
next table: 10545
cur table: 10422
epoch: 1000
next table: 1886
cur table: 1816
epoch: 1000
next table: 13131
cur table: 10545
epoch: 1000
next table: 10348
cur table: 13131
epoch: 1000
next table: 1936
cur table: 1886
epoch: 1000
next table: 1555
cur table: 1936
epoch: 1000
next table: 10214
cur table: 10348
epoch: 1000
next table: 8163
cur table: 10214
epoch: 1000
next table: 1690
cur table: 1555
epoch: 1000
next table: 10329
cur table: 8163
epoch: 1000
next table: 1699
cur table: 1690
epoch: 1000
next table: 10268
cur table: 10329
epoch: 1000
next table: 1743
cur table: 1699
epoch: 1000
next table: 10404
cur table: 10268
epoch: 1000
next table: 1826
cur table: 1743
epoch: 1000
next table: 10422
cur table: 10404
epoch: 1000
next table: 1912
cur table: 1826
epoch: 1000
next table: 10399
cur table: 10422
epoch: 1000
next table: 10297
cur table: 10399
epoch: 1000
next table: 1765
cur table: 1912
epoch: 1000
next table: 9414
cur table: 10297
epoch: 1000
next table: 1972
cur table: 1765
epoch: 1000
next table: 11720
cur table: 9414
epoch: 1000
next table: 1745
cur table: 1972
epoch: 1000
next table: 10328
cur table: 11720
epoch: 1000
next table: 1938
cur table: 1745
epoch: 1000
next table: 10555
cur table: 10328
epoch: 1000
next table: 10782
cur table: 10555
epoch: 1000
next table: 1947
cur table: 1938
epoch: 1000
next table: 12813
cur table: 10782
epoch: 1000
next table: 1765
cur table: 1947
epoch: 1000
next table: 10001
cur table: 12813
epoch: 1000
next table: 1806
cur table: 1765
epoch: 1000
next table: 10028
cur table: 10001
epoch: 1000
next table: 1763
cur table: 1806
epoch: 1000
next table: 11700
cur table: 10028
epoch: 1000
next table: 11999
cur table: 11700
epoch: 1000
next table: 1686
cur table: 1763
epoch: 1000
next table: 11750
cur table: 11999
epoch: 1000
next table: 1903
cur table: 1686
Heartbeat CPU 0 instructions: 80000001 cycles: 50458617 heartbeat IPC: 0.938091 cumulative IPC: 0.922309 (Simulation time: 0 hr 24 min 8 sec) 
epoch: 1000
next table: 10974
cur table: 11750
epoch: 1000
next table: 1789
cur table: 1903
epoch: 1000
next table: 10545
cur table: 10974
epoch: 1000
next table: 1760
cur table: 1789
epoch: 1000
next table: 8170
cur table: 10545
epoch: 1000
next table: 1730
cur table: 1760
epoch: 1000
next table: 10318
cur table: 8170
epoch: 1000
next table: 1697
cur table: 1730
epoch: 1000
next table: 10287
cur table: 10318
epoch: 1000
next table: 10441
cur table: 10287
epoch: 1000
next table: 1774
cur table: 1697
epoch: 1000
next table: 10237
cur table: 10441
epoch: 1000
next table: 1907
cur table: 1774
epoch: 1000
next table: 10397
cur table: 10237
epoch: 1000
next table: 1830
cur table: 1907
epoch: 1000
next table: 10284
cur table: 10397
epoch: 1000
next table: 1807
cur table: 1830
epoch: 1000
next table: 8118
cur table: 10284
epoch: 1000
next table: 1980
cur table: 1807
epoch: 1000
next table: 10366
cur table: 8118
epoch: 1000
next table: 10183
cur table: 10366
epoch: 1000
next table: 1955
cur table: 1980
epoch: 1000
next table: 10329
cur table: 10183
epoch: 1000
next table: 1995
cur table: 1955
epoch: 1000
next table: 10255
cur table: 10329
epoch: 1000
next table: 10562
cur table: 10255
epoch: 1000
next table: 1871
cur table: 1995
epoch: 1000
next table: 13093
cur table: 10562
epoch: 1000
next table: 1835
cur table: 1871
epoch: 1000
next table: 8226
cur table: 13093
epoch: 1000
next table: 1772
cur table: 1835
epoch: 1000
next table: 11842
cur table: 8226
epoch: 1000
next table: 1721
cur table: 1772
epoch: 1000
next table: 11765
cur table: 11842
epoch: 1000
next table: 10639
cur table: 11765
epoch: 1000
next table: 2001
cur table: 1721
epoch: 1000
next table: 10784
cur table: 10639
epoch: 1000
next table: 2021
cur table: 2001
epoch: 1000
next table: 10151
cur table: 10784
epoch: 1000
next table: 1583
cur table: 2021
epoch: 1000
next table: 10269
cur table: 10151
epoch: 1000
next table: 1742
cur table: 1583
epoch: 1000
next table: 8105
cur table: 10269
epoch: 1000
next table: 1583
cur table: 1742
epoch: 1000
next table: 10323
cur table: 8105
epoch: 1000
next table: 1834
cur table: 1583
epoch: 1000
next table: 10236
cur table: 10323
epoch: 1000
next table: 10379
cur table: 10236
epoch: 1000
next table: 1813
cur table: 1834
epoch: 1000
next table: 10294
cur table: 10379
epoch: 1000
next table: 1893
cur table: 1813
epoch: 1000
next table: 10347
cur table: 10294
epoch: 1000
next table: 1880
cur table: 1893
epoch: 1000
next table: 8994
cur table: 10347
epoch: 1000
next table: 2054
cur table: 1880
epoch: 1000
next table: 7794
cur table: 8994
epoch: 1000
next table: 10309
cur table: 7794
epoch: 1000
next table: 1891
cur table: 2054
epoch: 1000
next table: 9046
cur table: 10309
epoch: 1000
next table: 1917
cur table: 1891
epoch: 1000
next table: 10524
cur table: 9046
epoch: 1000
next table: 10136
cur table: 10524
epoch: 1000
next table: 2043
cur table: 1917
epoch: 1000
next table: 11734
cur table: 10136
epoch: 1000
next table: 1843
cur table: 2043
epoch: 1000
next table: 11831
cur table: 11734
epoch: 1000
next table: 1765
cur table: 1843
epoch: 1000
next table: 8325
cur table: 11831
epoch: 1000
next table: 1801
cur table: 1765
epoch: 1000
next table: 13083
cur table: 8325
epoch: 1000
next table: 1743
cur table: 1801
epoch: 1000
next table: 10588
cur table: 13083
epoch: 1000
next table: 11676
cur table: 10588
epoch: 1000
next table: 2153
cur table: 1743
epoch: 1000
next table: 10539
cur table: 11676
epoch: 1000
next table: 1834
cur table: 2153
epoch: 1000
next table: 10435
cur table: 10539
epoch: 1000
next table: 1623
cur table: 1834
epoch: 1000
next table: 11671
cur table: 10435
epoch: 1000
next table: 1738
cur table: 1623
epoch: 1000
next table: 8041
cur table: 11671
epoch: 1000
next table: 1771
cur table: 1738
epoch: 1000
next table: 10304
cur table: 8041
epoch: 1000
next table: 1638
cur table: 1771
epoch: 1000
next table: 10407
cur table: 10304
epoch: 1000
next table: 1863
cur table: 1638
epoch: 1000
next table: 10443
cur table: 10407
epoch: 1000
next table: 10279
cur table: 10443
epoch: 1000
next table: 1985
cur table: 1863
epoch: 1000
next table: 10391
cur table: 10279
epoch: 1000
next table: 1723
cur table: 1985
epoch: 1000
next table: 10934
cur table: 10391
epoch: 1000
next table: 1942
cur table: 1723
epoch: 1000
next table: 10187
cur table: 10934
epoch: 1000
next table: 1690
cur table: 1942
epoch: 1000
next table: 10457
cur table: 10187
epoch: 1000
next table: 10452
cur table: 10457
epoch: 1000
next table: 1948
cur table: 1690
epoch: 1000
next table: 10412
cur table: 10452
epoch: 1000
next table: 1916
cur table: 1948
epoch: 1000
next table: 13191
cur table: 10412
epoch: 1000
next table: 1724
cur table: 1916
epoch: 1000
next table: 10577
cur table: 13191
epoch: 1000
next table: 1727
cur table: 1724
epoch: 1000
next table: 10914
cur table: 10577
epoch: 1000
next table: 10463
cur table: 10914
epoch: 1000
next table: 1663
cur table: 1727
epoch: 1000
next table: 13215
cur table: 10463
epoch: 1000
next table: 1725
cur table: 1663
epoch: 1000
next table: 11850
cur table: 13215
epoch: 1000
next table: 2096
cur table: 1725
epoch: 1000
next table: 10705
cur table: 11850
epoch: 1000
next table: 1647
cur table: 2096
epoch: 1000
next table: 8812
cur table: 10705
epoch: 1000
next table: 1701
cur table: 1647
epoch: 1000
next table: 11694
cur table: 8812
epoch: 1000
next table: 1695
cur table: 1701
epoch: 1000
next table: 9391
cur table: 11694
epoch: 1000
next table: 1754
cur table: 1695
epoch: 1000
next table: 10292
cur table: 9391
epoch: 1000
next table: 10378
cur table: 10292
epoch: 1000
next table: 1773
cur table: 1754
epoch: 1000
next table: 10426
cur table: 10378
epoch: 1000
next table: 2011
cur table: 1773
epoch: 1000
next table: 10417
cur table: 10426
epoch: 1000
next table: 1702
cur table: 2011
epoch: 1000
next table: 10416
cur table: 10417
epoch: 1000
next table: 1877
cur table: 1702
epoch: 1000
next table: 11135
cur table: 10416
epoch: 1000
next table: 9824
cur table: 11135
epoch: 1000
next table: 1875
cur table: 1877
epoch: 1000
next table: 10343
cur table: 9824
epoch: 1000
next table: 1975
cur table: 1875
epoch: 1000
next table: 10454
cur table: 10343
epoch: 1000
next table: 1960
cur table: 1975
epoch: 1000
next table: 10388
cur table: 10454
epoch: 1000
next table: 10480
cur table: 10388
epoch: 1000
next table: 1830
cur table: 1960
epoch: 1000
next table: 13071
cur table: 10480
epoch: 1000
next table: 1763
cur table: 1830
epoch: 1000
next table: 8304
cur table: 13071
epoch: 1000
next table: 1760
cur table: 1763
epoch: 1000
next table: 13073
cur table: 8304
epoch: 1000
next table: 1638
cur table: 1760
epoch: 1000
next table: 10629
cur table: 13073
epoch: 1000
next table: 11761
cur table: 10629
epoch: 1000
next table: 2105
cur table: 1638
epoch: 1000
next table: 11688
cur table: 11761
epoch: 1000
next table: 1916
cur table: 2105
epoch: 1000
next table: 8941
cur table: 11688
epoch: 1000
next table: 1650
cur table: 1916
epoch: 1000
next table: 11754
cur table: 8941
epoch: 1000
next table: 1647
cur table: 1650
epoch: 1000
next table: 8087
cur table: 11754
epoch: 1000
next table: 1731
cur table: 1647
epoch: 1000
next table: 10306
cur table: 8087
epoch: 1000
next table: 1682
cur table: 1731
epoch: 1000
next table: 10403
cur table: 10306
epoch: 1000
next table: 1936
cur table: 1682
epoch: 1000
next table: 10419
cur table: 10403
epoch: 1000
next table: 10298
cur table: 10419
epoch: 1000
next table: 1861
cur table: 1936
epoch: 1000
next table: 10277
cur table: 10298
epoch: 1000
next table: 1752
cur table: 1861
epoch: 1000
next table: 10413
cur table: 10277
epoch: 1000
next table: 1926
cur table: 1752
epoch: 1000
next table: 9501
cur table: 10413
epoch: 1000
next table: 1707
cur table: 1926
epoch: 1000
next table: 10360
cur table: 9501
epoch: 1000
next table: 11775
cur table: 10360
epoch: 1000
next table: 2010
cur table: 1707
epoch: 1000
next table: 9125
cur table: 11775
epoch: 1000
next table: 1996
cur table: 2010
epoch: 1000
next table: 11818
cur table: 9125
epoch: 1000
next table: 1757
cur table: 1996
epoch: 1000
next table: 10501
cur table: 11818
epoch: 1000
next table: 1822
cur table: 1757
epoch: 1000
next table: 11266
cur table: 10501
epoch: 1000
next table: 9909
cur table: 11266
epoch: 1000
next table: 1856
cur table: 1822
epoch: 1000
next table: 10687
cur table: 9909
epoch: 1000
next table: 1728
cur table: 1856
epoch: 1000
next table: 13008
cur table: 10687
epoch: 1000
next table: 2064
cur table: 1728
epoch: 1000
next table: 10731
cur table: 13008
epoch: 1000
next table: 1567
cur table: 2064
epoch: 1000
next table: 10187
cur table: 10731
epoch: 1000
next table: 1739
cur table: 1567
epoch: 1000
next table: 10482
cur table: 10187
epoch: 1000
next table: 1693
cur table: 1739
epoch: 1000
next table: 8164
cur table: 10482
epoch: 1000
next table: 1717
cur table: 1693
epoch: 1000
next table: 10358
cur table: 8164
epoch: 1000
next table: 11611
cur table: 10358
epoch: 1000
next table: 1748
cur table: 1717
epoch: 1000
next table: 10344
cur table: 11611
epoch: 1000
next table: 1944
cur table: 1748
epoch: 1000
next table: 10553
cur table: 10344
epoch: 1000
next table: 1905
cur table: 1944
epoch: 1000
next table: 9038
cur table: 10553
epoch: 1000
next table: 1918
cur table: 1905
epoch: 1000
next table: 11416
cur table: 9038
epoch: 1000
next table: 8097
cur table: 11416
epoch: 1000
next table: 1906
cur table: 1918
epoch: 1000
next table: 10525
cur table: 8097
epoch: 1000
next table: 1838
cur table: 1906
epoch: 1000
next table: 10448
cur table: 10525
epoch: 1000
next table: 1806
cur table: 1838
epoch: 1000
next table: 10388
cur table: 10448
epoch: 1000
next table: 1978
cur table: 1806
epoch: 1000
next table: 11626
cur table: 10388
epoch: 1000
next table: 11897
cur table: 11626
epoch: 1000
next table: 1706
cur table: 1978
epoch: 1000
next table: 11912
cur table: 11897
epoch: 1000
next table: 1750
cur table: 1706
epoch: 1000
next table: 8417
cur table: 11912
epoch: 1000
next table: 1754
cur table: 1750
epoch: 1000
next table: 12845
cur table: 8417
epoch: 1000
next table: 1725
cur table: 1754
epoch: 1000
next table: 10633
cur table: 12845
Heartbeat CPU 0 instructions: 90000000 cycles: 61137674 heartbeat IPC: 0.936412 cumulative IPC: 0.925795 (Simulation time: 0 hr 26 min 0 sec) 
epoch: 1000
next table: 11718
cur table: 10633
epoch: 1000
next table: 2088
cur table: 1725
epoch: 1000
next table: 1627
cur table: 2088
epoch: 1000
next table: 10178
cur table: 11718
epoch: 1000
next table: 1704
cur table: 1627
epoch: 1000
next table: 10613
cur table: 10178
epoch: 1000
next table: 9645
cur table: 10613
epoch: 1000
next table: 1766
cur table: 1704
epoch: 1000
next table: 8486
cur table: 9645
epoch: 1000
next table: 1754
cur table: 1766
epoch: 1000
next table: 10235
cur table: 8486
epoch: 1000
next table: 1737
cur table: 1754
epoch: 1000
next table: 10907
cur table: 10235
epoch: 1000
next table: 2011
cur table: 1737
epoch: 1000
next table: 8682
cur table: 10907
epoch: 1000
next table: 10132
cur table: 8682
epoch: 1000
next table: 1742
cur table: 2011
epoch: 1000
next table: 10086
cur table: 10132
epoch: 1000
next table: 1985
cur table: 1742
epoch: 1000
next table: 10347
cur table: 10086
epoch: 1000
next table: 1895
cur table: 1985
epoch: 1000
next table: 8078
cur table: 10347
epoch: 1000
next table: 10273
cur table: 8078
epoch: 1000
next table: 1931
cur table: 1895
epoch: 1000
next table: 10415
cur table: 10273
epoch: 1000
next table: 2115
cur table: 1931
epoch: 1000
next table: 10198
cur table: 10415
epoch: 1000
next table: 1866
cur table: 2115
epoch: 1000
next table: 11695
cur table: 10198
epoch: 1000
next table: 11518
cur table: 11695
epoch: 1000
next table: 1755
cur table: 1866
epoch: 1000
next table: 10843
cur table: 11518
epoch: 1000
next table: 1747
cur table: 1755
epoch: 1000
next table: 8166
cur table: 10843
epoch: 1000
next table: 1807
cur table: 1747
epoch: 1000
next table: 11732
cur table: 8166
epoch: 1000
next table: 1966
cur table: 1807
epoch: 1000
next table: 10465
cur table: 11732
epoch: 1000
next table: 11520
cur table: 10465
epoch: 1000
next table: 2293
cur table: 1966
epoch: 1000
next table: 7896
cur table: 11520
epoch: 1000
next table: 1611
cur table: 2293
epoch: 1000
next table: 11283
cur table: 7896
epoch: 1000
next table: 1731
cur table: 1611
epoch: 1000
next table: 10360
cur table: 11283
epoch: 1000
next table: 1814
cur table: 1731
epoch: 1000
next table: 8152
cur table: 10360
epoch: 1000
next table: 1641
cur table: 1814
epoch: 1000
next table: 10469
cur table: 8152
epoch: 1000
next table: 11501
cur table: 10469
epoch: 1000
next table: 1946
cur table: 1641
epoch: 1000
next table: 8982
cur table: 11501
epoch: 1000
next table: 2034
cur table: 1946
epoch: 1000
next table: 10146
cur table: 8982
epoch: 1000
next table: 1946
cur table: 2034
epoch: 1000
next table: 8964
cur table: 10146
epoch: 1000
next table: 10396
cur table: 8964
epoch: 1000
next table: 1927
cur table: 1946
epoch: 1000
next table: 7972
cur table: 10396
epoch: 1000
next table: 1875
cur table: 1927
epoch: 1000
next table: 10372
cur table: 7972
epoch: 1000
next table: 1901
cur table: 1875
epoch: 1000
next table: 10399
cur table: 10372
epoch: 1000
next table: 10455
cur table: 10399
epoch: 1000
next table: 1968
cur table: 1901
epoch: 1000
next table: 13028
cur table: 10455
epoch: 1000
next table: 1799
cur table: 1968
epoch: 1000
next table: 10471
cur table: 13028
epoch: 1000
next table: 1860
cur table: 1799
epoch: 1000
next table: 10525
cur table: 10471
epoch: 1000
next table: 10823
cur table: 10525
epoch: 1000
next table: 1708
cur table: 1860
epoch: 1000
next table: 10558
cur table: 10823
epoch: 1000
next table: 1738
cur table: 1708
epoch: 1000
next table: 11338
cur table: 10558
epoch: 1000
next table: 2413
cur table: 1738
epoch: 1000
next table: 10104
cur table: 11338
epoch: 1000
next table: 1667
cur table: 2413
epoch: 1000
next table: 9368
cur table: 10104
epoch: 1000
next table: 1783
cur table: 1667
epoch: 1000
next table: 10310
cur table: 9368
epoch: 1000
next table: 10311
cur table: 10310
epoch: 1000
next table: 1783
cur table: 1783
epoch: 1000
next table: 8019
cur table: 10311
epoch: 1000
next table: 1710
cur table: 1783
epoch: 1000
next table: 10251
cur table: 8019
epoch: 1000
next table: 1859
cur table: 1710
epoch: 1000
next table: 10466
cur table: 10251
epoch: 1000
next table: 2002
cur table: 1859
epoch: 1000
next table: 10290
cur table: 10466
epoch: 1000
next table: 1714
cur table: 2002
epoch: 1000
next table: 10445
cur table: 10290
epoch: 1000
next table: 10337
cur table: 10445
epoch: 1000
next table: 1986
cur table: 1714
epoch: 1000
next table: 10438
cur table: 10337
epoch: 1000
next table: 1914
cur table: 1986
epoch: 1000
next table: 8104
cur table: 10438
epoch: 1000
next table: 1844
cur table: 1914
epoch: 1000
next table: 10347
cur table: 8104
epoch: 1000
next table: 10483
cur table: 10347
epoch: 1000
next table: 2063
cur table: 1844
epoch: 1000
next table: 11673
cur table: 10483
epoch: 1000
next table: 1855
cur table: 2063
epoch: 1000
next table: 11636
cur table: 11673
epoch: 1000
next table: 1842
cur table: 1855
epoch: 1000
next table: 10551
cur table: 11636
epoch: 1000
next table: 11221
cur table: 10551
epoch: 1000
next table: 1828
cur table: 1842
epoch: 1000
next table: 8420
cur table: 11221
epoch: 1000
next table: 1898
cur table: 1828
epoch: 1000
next table: 10683
cur table: 8420
epoch: 1000
next table: 2045
cur table: 1898
epoch: 1000
next table: 11562
cur table: 10683
epoch: 1000
next table: 1893
cur table: 2045
epoch: 1000
next table: 10490
cur table: 11562
epoch: 1000
next table: 1668
cur table: 1893
epoch: 1000
next table: 10273
cur table: 10490
epoch: 1000
next table: 1763
cur table: 1668
epoch: 1000
next table: 10398
cur table: 10273
epoch: 1000
next table: 9883
cur table: 10398
epoch: 1000
next table: 1793
cur table: 1763
epoch: 1000
next table: 10005
cur table: 9883
epoch: 1000
next table: 1653
cur table: 1793
epoch: 1000
next table: 10538
cur table: 10005
epoch: 1000
next table: 1825
cur table: 1653
epoch: 1000
next table: 11604
cur table: 10538
epoch: 1000
next table: 1878
cur table: 1825
epoch: 1000
next table: 10381
cur table: 11604
epoch: 1000
next table: 10317
cur table: 10381
epoch: 1000
next table: 1913
cur table: 1878
epoch: 1000
next table: 11756
cur table: 10317
epoch: 1000
next table: 1772
cur table: 1913
epoch: 1000
next table: 8147
cur table: 11756
epoch: 1000
next table: 1871
cur table: 1772
epoch: 1000
next table: 10521
cur table: 8147
epoch: 1000
next table: 1942
cur table: 1871
epoch: 1000
next table: 11394
cur table: 10521
epoch: 1000
next table: 10431
cur table: 11394
epoch: 1000
next table: 1967
cur table: 1942
epoch: 1000
next table: 11789
cur table: 10431
epoch: 1000
next table: 1770
cur table: 1967
epoch: 1000
next table: 10920
cur table: 11789
epoch: 1000
next table: 1694
cur table: 1770
epoch: 1000
next table: 11474
cur table: 10920
epoch: 1000
next table: 10743
cur table: 11474
epoch: 1000
next table: 1773
cur table: 1694
epoch: 1000
next table: 10535
cur table: 10743
epoch: 1000
next table: 1739
cur table: 1773
epoch: 1000
next table: 10442
cur table: 10535
epoch: 1000
next table: 2194
cur table: 1739
epoch: 1000
next table: 10407
cur table: 10442
epoch: 1000
next table: 1527
cur table: 2194
epoch: 1000
next table: 10275
cur table: 10407
epoch: 1000
next table: 1741
cur table: 1527
epoch: 1000
next table: 10416
cur table: 10275
epoch: 1000
next table: 1752
cur table: 1741
epoch: 1000
next table: 10260
cur table: 10416
epoch: 1000
next table: 7981
cur table: 10260
epoch: 1000
next table: 1801
cur table: 1752
epoch: 1000
next table: 10475
cur table: 7981
epoch: 1000
next table: 1756
cur table: 1801
epoch: 1000
next table: 10322
cur table: 10475
epoch: 1000
next table: 1894
cur table: 1756
epoch: 1000
next table: 10401
cur table: 10322
epoch: 1000
next table: 1860
cur table: 1894
epoch: 1000
next table: 10331
cur table: 10401
epoch: 1000
next table: 1912
cur table: 1860
epoch: 1000
next table: 11561
cur table: 10331
epoch: 1000
next table: 10428
cur table: 11561
epoch: 1000
next table: 1963
cur table: 1912
epoch: 1000
next table: 9484
cur table: 10428
epoch: 1000
next table: 1810
cur table: 1963
epoch: 1000
next table: 10428
cur table: 9484
epoch: 1000
next table: 10360
cur table: 10428
epoch: 1000
next table: 2014
cur table: 1810
epoch: 1000
next table: 10530
cur table: 10360
epoch: 1000
next table: 1866
cur table: 2014
epoch: 1000
next table: 13136
cur table: 10530
epoch: 1000
next table: 1730
cur table: 1866
epoch: 1000
next table: 10608
cur table: 13136
epoch: 1000
next table: 1705
cur table: 1730
epoch: 1000
next table: 10761
cur table: 10608
epoch: 1000
next table: 1784
cur table: 1705
epoch: 1000
next table: 10600
cur table: 10761
epoch: 1000
next table: 11708
cur table: 10600
epoch: 1000
next table: 2022
cur table: 1784
epoch: 1000
next table: 11815
cur table: 11708
epoch: 1000
next table: 1839
cur table: 2022
epoch: 1000
next table: 8890
cur table: 11815
epoch: 1000
next table: 1799
cur table: 1839
epoch: 1000
next table: 10487
cur table: 8890
epoch: 1000
next table: 1724
cur table: 1799
epoch: 1000
next table: 11635
cur table: 10487
epoch: 1000
next table: 1838
cur table: 1724
epoch: 1000
next table: 8002
cur table: 11635
epoch: 1000
next table: 10343
cur table: 8002
epoch: 1000
next table: 1790
cur table: 1838
epoch: 1000
next table: 9018
cur table: 10343
epoch: 1000
next table: 2066
cur table: 1790
epoch: 1000
next table: 10293
cur table: 9018
epoch: 1000
next table: 1792
cur table: 2066
epoch: 1000
next table: 10397
cur table: 10293
epoch: 1000
next table: 1955
cur table: 1792
epoch: 1000
next table: 10347
cur table: 10397
epoch: 1000
next table: 11613
cur table: 10347
epoch: 1000
next table: 1881
cur table: 1955
epoch: 1000
next table: 6780
cur table: 11613
epoch: 1000
next table: 1968
cur table: 1881
epoch: 1000
next table: 11660
cur table: 6780
epoch: 1000
next table: 1936
cur table: 1968
epoch: 1000
next table: 10383
cur table: 11660
epoch: 1000
next table: 10512
cur table: 10383
epoch: 1000
next table: 2043
cur table: 1936
epoch: 1000
next table: 10410
cur table: 10512
epoch: 1000
next table: 1836
cur table: 2043
epoch: 1000
next table: 11745
cur table: 10410
epoch: 1000
next table: 1807
cur table: 1836
epoch: 1000
next table: 11798
cur table: 11745
epoch: 1000
next table: 8246
cur table: 11798
epoch: 1000
next table: 1825
cur table: 1807
epoch: 1000
next table: 13055
cur table: 8246
epoch: 1000
next table: 1699
cur table: 1825
Heartbeat CPU 0 instructions: 100000003 cycles: 71853441 heartbeat IPC: 0.933205 cumulative IPC: 0.927267 (Simulation time: 0 hr 27 min 17 sec) 
Finished CPU 0 instructions: 50000000 cycles: 53921895 cumulative IPC: 0.927267 (Simulation time: 0 hr 27 min 17 sec) 

ChampSim completed all CPUs

Region of Interest Statistics

CPU 0 cumulative IPC: 0.927267 instructions: 50000000 cycles: 53921895
ITLB TOTAL     ACCESS:    6637651  HIT:    6637601  MISS:         50  HIT %:    99.9992  MISS %: 0.000753279   MPKI: 0.001
ITLB LOAD TRANSLATION ACCESS:    6637651  HIT:    6637601  MISS:         50  HIT %:    99.9992  MISS %: 0.000753279   MPKI: 0.001
ITLB PREFETCH  REQUESTED:          0  ISSUED:          0  USEFUL:          0  USELESS:          0
ITLB USEFUL LOAD PREFETCHES:          0 PREFETCH ISSUED TO LOWER LEVEL:          0  ACCURACY: -nan
ITLB TIMELY PREFETCHES:          0 LATE PREFETCHES: 0 DROPPED PREFETCHES: 0
ITLB PREFETCHES SAME FILL-ORIGIN LEVEL: 0 DIFFERENT FILL-ORIGIN LEVEL: 0
ITLB AVERAGE MISS LATENCY: 374.22 cycles
ITLB RQ	ACCESS:    8705883	FORWARD:          0	MERGED:    2068223	TO_CACHE:    6637660

Revised Interactions: positive negative neutral
ITLB_interactions 0 0 0 -nan -nan -nan
DTLB TOTAL     ACCESS:   10548299  HIT:    6854309  MISS:    3693990  HIT %:    64.9802  MISS %:    35.0198   MPKI: 73.8798
DTLB LOAD TRANSLATION ACCESS:   10548299  HIT:    6854309  MISS:    3693990  HIT %:    64.9802  MISS %:    35.0198   MPKI: 73.8798
DTLB PREFETCH  REQUESTED:          0  ISSUED:          0  USEFUL:          0  USELESS:          0
DTLB USEFUL LOAD PREFETCHES:          0 PREFETCH ISSUED TO LOWER LEVEL:          0  ACCURACY: -nan
DTLB TIMELY PREFETCHES:          0 LATE PREFETCHES: 0 DROPPED PREFETCHES: 0
DTLB PREFETCHES SAME FILL-ORIGIN LEVEL: 0 DIFFERENT FILL-ORIGIN LEVEL: 0
DTLB AVERAGE MISS LATENCY: 10.2261 cycles
DTLB RQ	ACCESS:   14687497	FORWARD:          0	MERGED:    3874682	TO_CACHE:   10812815

Revised Interactions: positive negative neutral
DTLB_interactions 0 0 0 -nan -nan -nan
STLB TOTAL     ACCESS:    3694040  HIT:    3687843  MISS:       6197  HIT %:    99.8322  MISS %:   0.167757   MPKI: 0.12394
STLB LOAD TRANSLATION ACCESS:    3694040  HIT:    3687843  MISS:       6197  HIT %:    99.8322  MISS %:   0.167757   MPKI: 0.12394
STLB PREFETCH  REQUESTED:          0  ISSUED:          0  USEFUL:          0  USELESS:          0
STLB USEFUL LOAD PREFETCHES:          0 PREFETCH ISSUED TO LOWER LEVEL:          0  ACCURACY: -nan
STLB TIMELY PREFETCHES:          0 LATE PREFETCHES: 0 DROPPED PREFETCHES: 0
STLB PREFETCHES SAME FILL-ORIGIN LEVEL: 0 DIFFERENT FILL-ORIGIN LEVEL: 0
STLB AVERAGE MISS LATENCY: 516.35 cycles
STLB RQ	ACCESS:    3694040	FORWARD:          0	MERGED:          0	TO_CACHE:    3694040

Revised Interactions: positive negative neutral
STLB_interactions 0 0 0 -nan -nan -nan
STLB Hit, L1D data hit: 0
STLB Hit, L2C data hit: 0
STLB Hit, LLC data hit: 0
STLB Hit, LLC data miss: 0
STLB STLB hints to L2: 0
L1D TOTAL     ACCESS:   14510520  HIT:    8777311  MISS:    5733209  HIT %:    60.4893  MISS %:    39.5107   MPKI: 114.664
L1D LOAD      ACCESS:    8896628  HIT:    3562130  MISS:    5334498  HIT %:    40.0391  MISS %:    59.9609   MPKI: 106.69
L1D RFO       ACCESS:    5613892  HIT:    5215181  MISS:     398711  HIT %:    92.8978  MISS %:    7.10222   MPKI: 7.97422
L1D PREFETCH  REQUESTED:          0  ISSUED:          0  USEFUL:          0  USELESS:          0
L1D USEFUL LOAD PREFETCHES:          0 PREFETCH ISSUED TO LOWER LEVEL:          0  ACCURACY: -nan
L1D TIMELY PREFETCHES:          0 LATE PREFETCHES: 0 DROPPED PREFETCHES: 0
L1D PREFETCHES SAME FILL-ORIGIN LEVEL: 0 DIFFERENT FILL-ORIGIN LEVEL: 0
L1D AVERAGE MISS LATENCY: 19.9522 cycles
L1D RQ	ACCESS:   14450638	FORWARD:          0	MERGED:    5404920	TO_CACHE:    9041337
L1D WQ	ACCESS:    5647208	FORWARD:       4381	MERGED:       1048	TO_CACHE:    5646160

Revised Interactions: positive negative neutral
L1D_interactions 0 0 0 -nan -nan -nan
L1D UNIQUE REGIONS ACCESSED: 0
L1D REGIONS CONFLICTS: 0
L1D Cross Page Prefetch Requests: 0
L1D Same Page Prefetch Requests: 0
L1D ROI Sum of L1D PQ occupancy: 0
L1D PREFETCHES PUSHED FROM L2C: 0
L1I TOTAL     ACCESS:    8680763  HIT:    8631106  MISS:      49657  HIT %:     99.428  MISS %:   0.572035   MPKI: 0.99314
L1I LOAD      ACCESS:    8680763  HIT:    8631106  MISS:      49657  HIT %:     99.428  MISS %:   0.572035   MPKI: 0.99314
L1I PREFETCH  REQUESTED:          0  ISSUED:          0  USEFUL:          0  USELESS:          0
L1I USEFUL LOAD PREFETCHES:          0 PREFETCH ISSUED TO LOWER LEVEL:          0  ACCURACY: -nan
L1I TIMELY PREFETCHES:          0 LATE PREFETCHES: 0 DROPPED PREFETCHES: 0
L1I PREFETCHES SAME FILL-ORIGIN LEVEL: 0 DIFFERENT FILL-ORIGIN LEVEL: 0
L1I AVERAGE MISS LATENCY: 17.0104 cycles
L1I RQ	ACCESS:   12782195	FORWARD:          0	MERGED:    4076312	TO_CACHE:    8705883

Revised Interactions: positive negative neutral
L1I_interactions 0 0 0 -nan -nan -nan
BTB TOTAL     ACCESS:      73960  HIT:      70750  MISS:       3210  HIT %:    95.6598  MISS %:    4.34018   MPKI: 0.0642
BTB BRANCH_DIRECT_JUMP	ACCESS:      16920  HIT:      16886  MISS:         34
BTB BRANCH_INDIRECT	ACCESS:      14629  HIT:      14551  MISS:         78
BTB BRANCH_CONDITIONAL	ACCESS:      30377  HIT:      29979  MISS:        398
BTB BRANCH_DIRECT_CALL	ACCESS:       6013  HIT:       5388  MISS:        625
BTB BRANCH_INDIRECT_CALL	ACCESS:          3  HIT:          0  MISS:          3
BTB BRANCH_RETURN	ACCESS:       6018  HIT:       3946  MISS:       2072
BTB BRANCH_OTHER ACCESS:          0  HIT:          0  MISS:          0

L2C TOTAL     ACCESS:    8724639  HIT:    8123438  MISS:     601201  HIT %:    93.1092  MISS %:    6.89084   MPKI: 12.024
L2C LOAD      ACCESS:    5287912  HIT:    4887720  MISS:     400192  HIT %:    92.4319  MISS %:    7.56805   MPKI: 8.00384
L2C DATA LOAD MPKI: 7.98696
L2C INSTRUCTION LOAD MPKI: 0.01688
L2C RFO       ACCESS:     398018  HIT:     383475  MISS:      14543  HIT %:    96.3461  MISS %:    3.65385   MPKI: 0.29086
L2C PREFETCH  ACCESS:    2584805  HIT:    2407525  MISS:     177280  HIT %:    93.1415  MISS %:    6.85854   MPKI: 3.5456
L2C DATA PREFETCH MPKI: 3.5456
L2C INSTRUCTION PREFETCH MPKI: 0
L2C WRITEBACK ACCESS:     444344  HIT:     443691  MISS:        653  HIT %:     99.853  MISS %:   0.146958   MPKI: 0.01306
L2C LOAD TRANSLATION ACCESS:       9560  HIT:       1027  MISS:       8533  HIT %:    10.7427  MISS %:    89.2573   MPKI: 0.17066
L2C PREFETCH  REQUESTED:    5664371  ISSUED:    5494127  USEFUL:     151017  USELESS:      26268
L2C USEFUL LOAD PREFETCHES:     151017 PREFETCH ISSUED TO LOWER LEVEL:    2266603  ACCURACY: 6.6627
L2C TIMELY PREFETCHES:     151017 LATE PREFETCHES: 9831 DROPPED PREFETCHES: 0
L2C PREFETCHES SAME FILL-ORIGIN LEVEL: 188526 DIFFERENT FILL-ORIGIN LEVEL: 2078077
L2C AVERAGE MISS LATENCY: 69.481 cycles
L2C RQ	ACCESS:    5792426	FORWARD:          0	MERGED:          0	TO_CACHE:    5695490
L2C WQ	ACCESS:     444344	FORWARD:      96953	MERGED:          0	TO_CACHE:     444344
L2C PQ	ACCESS:    5494127	FORWARD:          0	MERGED:     711169	TO_CACHE:    4782941

Revised Interactions: positive negative neutral
L2C_interactions 152247 17976 21848 79.266 9.35904 11.375
L2C Instructions Evicting Data 781
L2C Translations Evicting Data 8370
L2C Data Evicting Data 581925
L2C Instructions Evicting Instructions 55
L2C Translations Evicting Instructions 29
L2C Data Evicting Instructions 906
L2C Instructions Evicting Translations 8
L2C Translations Evicting Translations 134
L2C Data Evicting Translations 8340
L2C Dense regions hint from L2: 0
PSCL5 TOTAL     ACCESS:       6197  HIT:       6197  MISS:          0  HIT %:        100  MISS %:          0   MPKI: 0
PSCL5 LOAD TRANSLATION ACCESS:       6197  HIT:       6197  MISS:          0  HIT %:        100  MISS %:          0   MPKI: 0
PSCL5 PREFETCH  REQUESTED:          0  ISSUED:          0  USEFUL:          0  USELESS:          0
PSCL5 USEFUL LOAD PREFETCHES:          0 PREFETCH ISSUED TO LOWER LEVEL:          0  ACCURACY: -nan
PSCL5 TIMELY PREFETCHES:          0 LATE PREFETCHES: 0 DROPPED PREFETCHES: 0
PSCL5 PREFETCHES SAME FILL-ORIGIN LEVEL: 0 DIFFERENT FILL-ORIGIN LEVEL: 0

Revised Interactions: positive negative neutral
PSCL5_interactions 0 0 0 -nan -nan -nan
PSCL4 TOTAL     ACCESS:       6197  HIT:       6197  MISS:          0  HIT %:        100  MISS %:          0   MPKI: 0
PSCL4 LOAD TRANSLATION ACCESS:       6197  HIT:       6197  MISS:          0  HIT %:        100  MISS %:          0   MPKI: 0
PSCL4 PREFETCH  REQUESTED:          0  ISSUED:          0  USEFUL:          0  USELESS:          0
PSCL4 USEFUL LOAD PREFETCHES:          0 PREFETCH ISSUED TO LOWER LEVEL:          0  ACCURACY: -nan
PSCL4 TIMELY PREFETCHES:          0 LATE PREFETCHES: 0 DROPPED PREFETCHES: 0
PSCL4 PREFETCHES SAME FILL-ORIGIN LEVEL: 0 DIFFERENT FILL-ORIGIN LEVEL: 0

Revised Interactions: positive negative neutral
PSCL4_interactions 0 0 0 -nan -nan -nan
PSCL3 TOTAL     ACCESS:       6197  HIT:       6193  MISS:          4  HIT %:    99.9355  MISS %:  0.0645474   MPKI: 8e-05
PSCL3 LOAD TRANSLATION ACCESS:       6197  HIT:       6193  MISS:          4  HIT %:    99.9355  MISS %:  0.0645474   MPKI: 8e-05
PSCL3 PREFETCH  REQUESTED:          0  ISSUED:          0  USEFUL:          0  USELESS:          0
PSCL3 USEFUL LOAD PREFETCHES:          0 PREFETCH ISSUED TO LOWER LEVEL:          0  ACCURACY: -nan
PSCL3 TIMELY PREFETCHES:          0 LATE PREFETCHES: 0 DROPPED PREFETCHES: 0
PSCL3 PREFETCHES SAME FILL-ORIGIN LEVEL: 0 DIFFERENT FILL-ORIGIN LEVEL: 0

Revised Interactions: positive negative neutral
PSCL3_interactions 0 0 0 -nan -nan -nan
PSCL2 TOTAL     ACCESS:       6197  HIT:       2774  MISS:       3423  HIT %:    44.7636  MISS %:    55.2364   MPKI: 0.06846
PSCL2 LOAD TRANSLATION ACCESS:       6197  HIT:       2774  MISS:       3423  HIT %:    44.7636  MISS %:    55.2364   MPKI: 0.06846
PSCL2 PREFETCH  REQUESTED:          0  ISSUED:          0  USEFUL:          0  USELESS:          0
PSCL2 USEFUL LOAD PREFETCHES:          0 PREFETCH ISSUED TO LOWER LEVEL:          0  ACCURACY: -nan
PSCL2 TIMELY PREFETCHES:          0 LATE PREFETCHES: 0 DROPPED PREFETCHES: 0
PSCL2 PREFETCHES SAME FILL-ORIGIN LEVEL: 0 DIFFERENT FILL-ORIGIN LEVEL: 0

Revised Interactions: positive negative neutral
PSCL2_interactions 0 0 0 -nan -nan -nan
LLC TOTAL     ACCESS:    2700468  HIT:    2186725  MISS:     513743  HIT %:    80.9758  MISS %:    19.0242   MPKI: 10.2749
LLC LOAD      ACCESS:     390328  HIT:     324307  MISS:      66021  HIT %:    83.0858  MISS %:    16.9142   MPKI: 1.32042
LLC RFO       ACCESS:      14303  HIT:      12777  MISS:       1526  HIT %:    89.3309  MISS %:    10.6691   MPKI: 0.03052
LLC PREFETCH  ACCESS:    2232466  HIT:    1810865  MISS:     421601  HIT %:     81.115  MISS %:     18.885   MPKI: 8.43202
LLC WRITEBACK ACCESS:      54838  HIT:      32355  MISS:      22483  HIT %:    59.0011  MISS %:    40.9989   MPKI: 0.44966
LLC LOAD TRANSLATION ACCESS:       8533  HIT:       6421  MISS:       2112  HIT %:     75.249  MISS %:     24.751   MPKI: 0.04224
LLC PREFETCH  REQUESTED:          0  ISSUED:          0  USEFUL:     217100  USELESS:     195101
LLC USEFUL LOAD PREFETCHES:     217100 PREFETCH ISSUED TO LOWER LEVEL:     425922  ACCURACY: 50.9718
LLC TIMELY PREFETCHES:     217100 LATE PREFETCHES: 4321 DROPPED PREFETCHES: 0
LLC PREFETCHES SAME FILL-ORIGIN LEVEL: 402429 DIFFERENT FILL-ORIGIN LEVEL: 0
LLC AVERAGE MISS LATENCY: 265.425 cycles
LLC RQ	ACCESS:     413437	FORWARD:          0	MERGED:          0	TO_CACHE:     413164
LLC WQ	ACCESS:      54838	FORWARD:        274	MERGED:          0	TO_CACHE:      54838
LLC PQ	ACCESS:    2260850	FORWARD:          0	MERGED:      21500	TO_CACHE:    2239349

Revised Interactions: positive negative neutral
LLC_interactions 201170 219385 23264 45.327 49.4312 5.24178
LLC Dense regions hint to LLC: 0

RAW hits: 22809
Loads Generated: 14473447
Loads sent to L1D: 14450638
Stores Generated: 5647294
Stores sent to L1D: 5647286
Major fault: 0 Minor fault: 8641
Allocated PAGES: 8641
 All Calls: 8613858
 Critical Calls: 8613858
------------------
Depth Distribution
------------------
depth 0: 0
depth 1: 5600263
depth 2: 2743085
depth 3: 636134
depth 4: 55962
depth 5: 4050
depth 6: 80
depth 7: 3
depth 8: 1
depth 9: 0
depth 10: 0
depth 11: 0
depth 12: 0
depth 13: 0
depth 14: 0
depth 15: 0
depth 16: 0
depth 17: 0
depth 18: 0
depth 19: 0
depth 20: 0
depth 21: 0
depth 22: 0
depth 23: 0
depth 24: 0
depth 25: 0
depth 26: 0
depth 27: 0
depth 28: 0
depth 29: 0
Total: 9039578
-----------------------------
-----------------------------
	Captured at Filter
-----------------------------
depth 0: 0
depth 1: 2120978
depth 2: 1525302
depth 3: 572206
depth 4: 59151
depth 5: 9360
depth 6: 267
depth 7: 0
depth 8: 0
depth 9: 0
depth 10: 0
depth 11: 0
depth 12: 0
depth 13: 0
depth 14: 0
depth 15: 0
depth 16: 0
depth 17: 0
depth 18: 0
depth 19: 0
depth 20: 0
depth 21: 0
depth 22: 0
depth 23: 0
depth 24: 0
depth 25: 0
depth 26: 0
depth 27: 0
depth 28: 0
depth 29: 0
-----------------------------
-----------------------------
		Lost at Page
-----------------------------
depth 0: 0
depth 1: 1521678
depth 2: 977488
depth 3: 87532
depth 4: 4160
depth 5: 624
depth 6: 16
depth 7: 4
depth 8: 1
depth 9: 0
depth 10: 0
depth 11: 0
depth 12: 0
depth 13: 0
depth 14: 0
depth 15: 0
depth 16: 0
depth 17: 0
depth 18: 0
depth 19: 0
depth 20: 0
depth 21: 0
depth 22: 0
depth 23: 0
depth 24: 0
depth 25: 0
depth 26: 0
depth 27: 0
depth 28: 0
depth 29: 0
-----------------------------
-----------------------------
	Lost due to PQ Size
-----------------------------
657426
-----------------------------
ST read accesses: 5200447
ST write accesses: 37808
PT read accesses: 76807954
PT write accesses: 4469210
FILTER read accesses: 14443578
FILTER write accesses: 1566221
GHR read accesses: 13406969
GHR write accesses: 1884902
GHR counter read accesses: 71029442
GHR counter write accesses: 6286995
ST tag read accesses: 2032863819
ST tag write accesses: 806086615

DRAM Statistics
 CHANNEL 0
 RQ ROW_BUFFER_HIT:     266160  ROW_BUFFER_MISS:     225039
 DBUS_CONGESTED:        450
 WQ ROW_BUFFER_HIT:      12670  ROW_BUFFER_MISS:      34719  FULL:          0

 AVG_CONGESTED_CYCLE: 4
 All warmup complete: 2
Channel 0 Bank busy for read cycles: 0
Channel 0 Bank busy for write cycles: 0
Channel 0
Rank 0
0banks busy for read cycles: 31383188
0banks busy for write cycles: 9389
1banks busy for read cycles: 7888540
1banks busy for write cycles: 1501414
2banks busy for read cycles: 4023785
2banks busy for write cycles: 620083
3banks busy for read cycles: 2666233
3banks busy for write cycles: 388299
4banks busy for read cycles: 1921463
4banks busy for write cycles: 262971
5banks busy for read cycles: 1240717
5banks busy for write cycles: 204603
6banks busy for read cycles: 940708
6banks busy for write cycles: 180565
7banks busy for read cycles: 362101
7banks busy for write cycles: 131250
8banks busy for read cycles: 133879
8banks busy for write cycles: 62708

CPU 0 Branch Prediction Accuracy: 97.6117% MPKI: 0.04808 Average ROB Occupancy at Mispredict: 18.8432
Branch types
NOT_BRANCH: 49899095 99.7982%
BRANCH_DIRECT_JUMP: 16920 0.03384%
BRANCH_INDIRECT: 14629 0.029258%
BRANCH_CONDITIONAL: 57074 0.114148%
BRANCH_DIRECT_CALL: 6013 0.012026%
BRANCH_INDIRECT_CALL: 3 6e-06%
BRANCH_RETURN: 6018 0.012036%
BRANCH_OTHER: 0 0%

@sumon_overall_L1D         0         0         0         0         0         0         0
@Sumon_Early_by_class_L1D         0         0         0         0
@Sumon_Late_by_class_L1D         0         0         0         0

@Sumon_Early_by_cycle_L1D         0         0         0         0         0         0         0         0         0         0         0         0
@Sumon_Late_by_cycle_L1D         0         0         0         0         0         0
@Sumon_Early_stream_L1D         0         0         0         0         0         0         0         0         0         0         0         0
@Sumon_Early_CS_L1D         0         0         0         0         0         0         0         0         0         0         0         0
@Sumon_Early_CPLX_L1D         0         0         0         0         0         0         0         0         0         0         0         0
@Sumon_Late_stream_L1D         0         0         0         0         0         0
@Sumon_Late_CS_L1D         0         0         0         0         0         0
@Sumon_Late_CPLX_L1D         0         0         0         0         0         0
@sumon_overall_L2C    151017      9831         0     26268    177280   5494127   5664371
@Sumon_Early_by_class_L2C         0         0         0         0
@Sumon_Late_by_class_L2C         0         0         0         0

@Sumon_Early_by_cycle_L2C       518       117        10         2         0        73        76       228     11655    138028        92       218
@Sumon_Late_by_cycle_L2C       394      5586      2724       405       721         1
@Sumon_Early_stream_L2C         0         0         0         0         0         0         0         0         0         0         0         0
@Sumon_Early_CS_L2C         0         0         0         0         0         0         0         0         0         0         0         0
@Sumon_Early_CPLX_L2C         0         0         0         0         0         0         0         0         0         0         0         0
@Sumon_Late_stream_L2C         0         0         0         0         0         0
@Sumon_Late_CS_L2C         0         0         0         0         0         0
@Sumon_Late_CPLX_L2C         0         0         0         0         0         0
DRAM PAGES: 1048576
Allocated PAGES: 8641
