Initialize SIGNATURE TABLE
ST_SET: 1
ST_WAY: 256
ST_TAG_BIT: 16
ST_TAG_MASK: ffff

Initialize PATTERN TABLE
PT_SET: 512
PT_WAY: 4
SIG_DELTA_BIT: 7
C_SIG_BIT: 4
C_DELTA_BIT: 4

Initialize PREFETCH FILTER
FILTER_SET: 1024

*** ChampSim Multicore Out-of-Order Simulator ***

Warmup Instructions: 50000000
Simulation Instructions: 50000000
Number of CPUs: 1
LLC sets: 2048
LLC ways: 16
Off-chip DRAM Size: 4096 MB Channels: 1 Width: 64-bit Data Rate: 6400 MT/s
CPU 0 runs ../../biswa/SPEC2017Traces/649.fotonik3d_s-8225B.champsimtrace.xz
.xz
CPU 0 Bimodal branch predictor
BTB has LRU replacement policy
ITLB has LRU replacement policy
DTLB has LRU replacement policy
STLB has LRU replacement policy
L1I has LRU replacement policy
L1D has LRU replacement policy
ST_WAYS: 256
PT_SETS: 512
Initialize DRRIP state for L2C
Initialize SRRIP state
epoch: 1000
next table: 2091
cur table: 2828
epoch: 1000
next table: 2513
cur table: 11871
epoch: 1000
next table: 2535
cur table: 2513
epoch: 1000
next table: 1803
cur table: 2091
epoch: 1000
next table: 2506
cur table: 2535
epoch: 1000
next table: 2521
cur table: 2506
epoch: 1000
next table: 1650
cur table: 1803
epoch: 1000
next table: 2510
cur table: 2521
epoch: 1000
next table: 2544
cur table: 2510
epoch: 1000
next table: 1643
cur table: 1650
epoch: 1000
next table: 2511
cur table: 2544
epoch: 1000
next table: 2521
cur table: 2511
epoch: 1000
next table: 1626
cur table: 1643
epoch: 1000
next table: 2510
cur table: 2521
epoch: 1000
next table: 2525
cur table: 2510
epoch: 1000
next table: 1636
cur table: 1626
epoch: 1000
next table: 2531
cur table: 2525
epoch: 1000
next table: 2511
cur table: 2531
epoch: 1000
next table: 1648
cur table: 1636
epoch: 1000
next table: 2520
cur table: 2511
epoch: 1000
next table: 2511
cur table: 2520
epoch: 1000
next table: 1599
cur table: 1648
epoch: 1000
next table: 2543
cur table: 2511
epoch: 1000
next table: 2512
cur table: 2543
epoch: 1000
next table: 1612
cur table: 1599
epoch: 1000
next table: 2520
cur table: 2512
epoch: 1000
next table: 2514
cur table: 2520
epoch: 1000
next table: 2539
cur table: 2514
epoch: 1000
next table: 1738
cur table: 1612
epoch: 1000
next table: 2512
cur table: 2539
epoch: 1000
next table: 2520
cur table: 2512
epoch: 1000
next table: 1631
cur table: 1738
epoch: 1000
next table: 2514
cur table: 2520
epoch: 1000
next table: 2538
cur table: 2514
epoch: 1000
next table: 1668
cur table: 1631
epoch: 1000
next table: 2511
cur table: 2538
epoch: 1000
next table: 2521
cur table: 2511
epoch: 1000
next table: 1603
cur table: 1668
epoch: 1000
next table: 2512
cur table: 2521
epoch: 1000
next table: 2543
cur table: 2512
epoch: 1000
next table: 1621
cur table: 1603
epoch: 1000
next table: 2512
cur table: 2543
epoch: 1000
next table: 2522
cur table: 2512
epoch: 1000
next table: 1590
cur table: 1621
epoch: 1000
next table: 2512
cur table: 2522
epoch: 1000
next table: 2543
cur table: 2512
epoch: 1000
next table: 1585
cur table: 1590
epoch: 1000
next table: 2511
cur table: 2543
epoch: 1000
next table: 1490
cur table: 1585
epoch: 1000
next table: 2520
cur table: 2511
epoch: 1000
next table: 2512
cur table: 2520
epoch: 1000
next table: 1464
cur table: 1490
epoch: 1000
next table: 2544
cur table: 2512
epoch: 1000
next table: 1391
cur table: 1464
epoch: 1000
next table: 2514
cur table: 2544
epoch: 1000
next table: 1413
cur table: 1391
epoch: 1000
next table: 2523
cur table: 2514
epoch: 1000
next table: 1374
cur table: 1413
epoch: 1000
next table: 2510
cur table: 2523
epoch: 1000
next table: 1353
cur table: 1374
epoch: 1000
next table: 2543
cur table: 2510
epoch: 1000
next table: 2513
cur table: 2543
epoch: 1000
next table: 1340
cur table: 1353
epoch: 1000
next table: 2519
cur table: 2513
epoch: 1000
next table: 1350
cur table: 1340
epoch: 1000
next table: 2513
cur table: 2519
epoch: 1000
next table: 1340
cur table: 1350
epoch: 1000
next table: 2543
cur table: 2513
epoch: 1000
next table: 1326
cur table: 1340
epoch: 1000
next table: 2513
cur table: 2543
epoch: 1000
next table: 1333
cur table: 1326
epoch: 1000
next table: 2518
cur table: 2513
epoch: 1000
next table: 1320
cur table: 1333
epoch: 1000
next table: 2514
cur table: 2518
epoch: 1000
next table: 1308
cur table: 1320
epoch: 1000
next table: 2538
cur table: 2514
epoch: 1000
next table: 1308
cur table: 1308
epoch: 1000
next table: 2511
cur table: 2538
epoch: 1000
next table: 1308
cur table: 1308
epoch: 1000
next table: 2521
cur table: 2511
epoch: 1000
next table: 1310
cur table: 1308
epoch: 1000
next table: 2512
cur table: 2521
epoch: 1000
next table: 1309
cur table: 1310
epoch: 1000
next table: 2539
cur table: 2512
epoch: 1000
next table: 1337
cur table: 1309
epoch: 1000
next table: 2513
cur table: 2539
epoch: 1000
next table: 1326
cur table: 1337
epoch: 1000
next table: 2519
cur table: 2513
epoch: 1000
next table: 1312
cur table: 1326
epoch: 1000
next table: 2513
cur table: 2519
epoch: 1000
next table: 1313
cur table: 1312
epoch: 1000
next table: 2539
cur table: 2513
epoch: 1000
next table: 1307
cur table: 1313
epoch: 1000
next table: 2513
cur table: 2539
epoch: 1000
next table: 1298
cur table: 1307
epoch: 1000
next table: 2519
cur table: 2513
epoch: 1000
next table: 1316
cur table: 1298
epoch: 1000
next table: 2513
cur table: 2519
epoch: 1000
next table: 1310
cur table: 1316
epoch: 1000
next table: 2540
cur table: 2513
epoch: 1000
next table: 1329
cur table: 1310
epoch: 1000
next table: 2513
cur table: 2540
epoch: 1000
next table: 1327
cur table: 1329
epoch: 1000
next table: 2524
cur table: 2513
epoch: 1000
next table: 1318
cur table: 1327
epoch: 1000
next table: 2513
cur table: 2524
epoch: 1000
next table: 1308
cur table: 1318
epoch: 1000
next table: 2540
cur table: 2513
epoch: 1000
next table: 1309
cur table: 1308
epoch: 1000
next table: 2513
cur table: 2540
epoch: 1000
next table: 1305
cur table: 1309
epoch: 1000
next table: 2519
cur table: 2513
epoch: 1000
next table: 1311
cur table: 1305
epoch: 1000
next table: 2513
cur table: 2519
epoch: 1000
next table: 1322
cur table: 1311
epoch: 1000
next table: 2541
cur table: 2513
epoch: 1000
next table: 1316
cur table: 1322
epoch: 1000
next table: 2515
cur table: 2541
epoch: 1000
next table: 1329
cur table: 1316
epoch: 1000
next table: 2519
cur table: 2515
epoch: 1000
next table: 1311
cur table: 1329
epoch: 1000
next table: 2511
cur table: 2519
epoch: 1000
next table: 1305
cur table: 1311
epoch: 1000
next table: 2547
cur table: 2511
epoch: 1000
next table: 1306
cur table: 1305
epoch: 1000
next table: 2512
cur table: 2547
epoch: 1000
next table: 1314
cur table: 1306
epoch: 1000
next table: 2519
cur table: 2512
epoch: 1000
next table: 1316
cur table: 1314
epoch: 1000
next table: 2512
cur table: 2519
epoch: 1000
next table: 1318
cur table: 1316
epoch: 1000
next table: 2541
cur table: 2512
epoch: 1000
next table: 1323
cur table: 1318
epoch: 1000
next table: 2512
cur table: 2541
epoch: 1000
next table: 1321
cur table: 1323
epoch: 1000
next table: 2520
cur table: 2512
epoch: 1000
next table: 1323
cur table: 1321
epoch: 1000
next table: 2514
cur table: 2520
epoch: 1000
next table: 1328
cur table: 1323
epoch: 1000
next table: 2539
cur table: 2514
epoch: 1000
next table: 1305
cur table: 1328
epoch: 1000
next table: 2513
cur table: 2539
epoch: 1000
next table: 1297
cur table: 1305
Heartbeat CPU 0 instructions: 10000001 cycles: 2912227 heartbeat IPC: 3.4338 cumulative IPC: 3.4338 (Simulation time: 0 hr 2 min 36 sec) 
epoch: 1000
next table: 2520
cur table: 2513
epoch: 1000
next table: 1310
cur table: 1297
epoch: 1000
next table: 2511
cur table: 2520
epoch: 1000
next table: 1314
cur table: 1310
epoch: 1000
next table: 2542
cur table: 2511
epoch: 1000
next table: 1328
cur table: 1314
epoch: 1000
next table: 2511
cur table: 2542
epoch: 1000
next table: 1318
cur table: 1328
epoch: 1000
next table: 2521
cur table: 2511
epoch: 1000
next table: 1307
cur table: 1318
epoch: 1000
next table: 2512
cur table: 2521
epoch: 1000
next table: 1315
cur table: 1307
epoch: 1000
next table: 2537
cur table: 2512
epoch: 1000
next table: 1296
cur table: 1315
epoch: 1000
next table: 2512
cur table: 2537
epoch: 1000
next table: 1303
cur table: 1296
epoch: 1000
next table: 2523
cur table: 2512
epoch: 1000
next table: 1325
cur table: 1303
epoch: 1000
next table: 2512
cur table: 2523
epoch: 1000
next table: 1313
cur table: 1325
epoch: 1000
next table: 2535
cur table: 2512
epoch: 1000
next table: 1311
cur table: 1313
epoch: 1000
next table: 2512
cur table: 2535
epoch: 1000
next table: 1327
cur table: 1311
epoch: 1000
next table: 2522
cur table: 2512
epoch: 1000
next table: 1314
cur table: 1327
epoch: 1000
next table: 2513
cur table: 2522
epoch: 1000
next table: 1319
cur table: 1314
epoch: 1000
next table: 2539
cur table: 2513
epoch: 1000
next table: 1318
cur table: 1319
epoch: 1000
next table: 2512
cur table: 2539
epoch: 1000
next table: 1297
cur table: 1318
epoch: 1000
next table: 2522
cur table: 2512
epoch: 1000
next table: 1320
cur table: 1297
epoch: 1000
next table: 2513
cur table: 2522
epoch: 1000
next table: 1308
cur table: 1320
epoch: 1000
next table: 2542
cur table: 2513
epoch: 1000
next table: 1326
cur table: 1308
epoch: 1000
next table: 2512
cur table: 2542
epoch: 1000
next table: 1329
cur table: 1326
epoch: 1000
next table: 2520
cur table: 2512
epoch: 1000
next table: 1319
cur table: 1329
epoch: 1000
next table: 2515
cur table: 2520
epoch: 1000
next table: 1305
cur table: 1319
epoch: 1000
next table: 2537
cur table: 2515
epoch: 1000
next table: 1315
cur table: 1305
epoch: 1000
next table: 2515
cur table: 2537
epoch: 1000
next table: 1302
cur table: 1315
epoch: 1000
next table: 2518
cur table: 2515
epoch: 1000
next table: 1320
cur table: 1302
epoch: 1000
next table: 2513
cur table: 2518
epoch: 1000
next table: 1323
cur table: 1320
epoch: 1000
next table: 2538
cur table: 2513
epoch: 1000
next table: 1311
cur table: 1323
epoch: 1000
next table: 2513
cur table: 2538
epoch: 1000
next table: 1319
cur table: 1311
epoch: 1000
next table: 2520
cur table: 2513
epoch: 1000
next table: 1323
cur table: 1319
epoch: 1000
next table: 2514
cur table: 2520
epoch: 1000
next table: 1325
cur table: 1323
epoch: 1000
next table: 2539
cur table: 2514
epoch: 1000
next table: 1317
cur table: 1325
epoch: 1000
next table: 2515
cur table: 2539
epoch: 1000
next table: 1306
cur table: 1317
epoch: 1000
next table: 2517
cur table: 2515
epoch: 1000
next table: 1311
cur table: 1306
epoch: 1000
next table: 2514
cur table: 2517
epoch: 1000
next table: 1320
cur table: 1311
epoch: 1000
next table: 2534
cur table: 2514
epoch: 1000
next table: 1316
cur table: 1320
epoch: 1000
next table: 2512
cur table: 2534
epoch: 1000
next table: 1336
cur table: 1316
epoch: 1000
next table: 2519
cur table: 2512
epoch: 1000
next table: 1306
cur table: 1336
epoch: 1000
next table: 2513
cur table: 2519
epoch: 1000
next table: 1312
cur table: 1306
epoch: 1000
next table: 2543
cur table: 2513
epoch: 1000
next table: 1307
cur table: 1312
epoch: 1000
next table: 2514
cur table: 2543
epoch: 1000
next table: 1307
cur table: 1307
epoch: 1000
next table: 2519
cur table: 2514
epoch: 1000
next table: 1315
cur table: 1307
epoch: 1000
next table: 2513
cur table: 2519
epoch: 1000
next table: 1310
cur table: 1315
epoch: 1000
next table: 2532
cur table: 2513
epoch: 1000
next table: 1356
cur table: 1310
epoch: 1000
next table: 2513
cur table: 2532
epoch: 1000
next table: 1319
cur table: 1356
epoch: 1000
next table: 2518
cur table: 2513
epoch: 1000
next table: 1313
cur table: 1319
epoch: 1000
next table: 2514
cur table: 2518
epoch: 1000
next table: 1306
cur table: 1313
epoch: 1000
next table: 2544
cur table: 2514
epoch: 1000
next table: 1316
cur table: 1306
epoch: 1000
next table: 2511
cur table: 2544
epoch: 1000
next table: 1295
cur table: 1316
epoch: 1000
next table: 2523
cur table: 2511
epoch: 1000
next table: 1321
cur table: 1295
epoch: 1000
next table: 2512
cur table: 2523
epoch: 1000
next table: 1304
cur table: 1321
epoch: 1000
next table: 2542
cur table: 2512
epoch: 1000
next table: 1316
cur table: 1304
epoch: 1000
next table: 2512
cur table: 2542
epoch: 1000
next table: 1319
cur table: 1316
epoch: 1000
next table: 2520
cur table: 2512
epoch: 1000
next table: 1306
cur table: 1319
epoch: 1000
next table: 2512
cur table: 2520
epoch: 1000
next table: 1302
cur table: 1306
epoch: 1000
next table: 2543
cur table: 2512
epoch: 1000
next table: 1298
cur table: 1302
epoch: 1000
next table: 2514
cur table: 2543
epoch: 1000
next table: 1308
cur table: 1298
epoch: 1000
next table: 2520
cur table: 2514
epoch: 1000
next table: 1316
cur table: 1308
epoch: 1000
next table: 2510
cur table: 2520
epoch: 1000
next table: 1306
cur table: 1316
epoch: 1000
next table: 2527
cur table: 2510
epoch: 1000
next table: 1338
cur table: 1306
epoch: 1000
next table: 2511
cur table: 2527
epoch: 1000
next table: 1316
cur table: 1338
epoch: 1000
next table: 2523
cur table: 2511
epoch: 1000
next table: 1327
cur table: 1316
epoch: 1000
next table: 2510
cur table: 2523
epoch: 1000
next table: 1305
cur table: 1327
epoch: 1000
next table: 2538
cur table: 2510
epoch: 1000
next table: 1322
cur table: 1305
epoch: 1000
next table: 2510
cur table: 2538
epoch: 1000
next table: 1296
cur table: 1322
epoch: 1000
next table: 2524
cur table: 2510
epoch: 1000
next table: 1306
cur table: 1296
epoch: 1000
next table: 2511
cur table: 2524
epoch: 1000
next table: 1303
cur table: 1306
epoch: 1000
next table: 2529
cur table: 2511
epoch: 1000
next table: 1309
cur table: 1303
epoch: 1000
next table: 2512
cur table: 2529
epoch: 1000
next table: 1318
cur table: 1309
epoch: 1000
next table: 2522
cur table: 2512
epoch: 1000
next table: 1316
cur table: 1318
epoch: 1000
next table: 2510
cur table: 2522
epoch: 1000
next table: 1314
cur table: 1316
epoch: 1000
next table: 2538
cur table: 2510
epoch: 1000
next table: 1304
cur table: 1314
epoch: 1000
next table: 2514
cur table: 2538
epoch: 1000
next table: 1304
cur table: 1304
epoch: 1000
next table: 2518
cur table: 2514
epoch: 1000
next table: 1308
cur table: 1304
epoch: 1000
next table: 2513
cur table: 2518
epoch: 1000
next table: 1305
cur table: 1308
epoch: 1000
next table: 2542
cur table: 2513
epoch: 1000
next table: 1327
cur table: 1305
epoch: 1000
next table: 2512
cur table: 2542
epoch: 1000
next table: 1317
cur table: 1327
epoch: 1000
next table: 2519
cur table: 2512
epoch: 1000
next table: 1304
cur table: 1317
epoch: 1000
next table: 2513
cur table: 2519
epoch: 1000
next table: 1320
cur table: 1304
epoch: 1000
next table: 2536
cur table: 2513
epoch: 1000
next table: 1302
cur table: 1320
epoch: 1000
next table: 2512
cur table: 2536
epoch: 1000
next table: 1295
cur table: 1302
epoch: 1000
next table: 2519
cur table: 2512
epoch: 1000
next table: 1313
cur table: 1295
epoch: 1000
next table: 2512
cur table: 2519
epoch: 1000
next table: 1311
cur table: 1313
epoch: 1000
next table: 2542
cur table: 2512
epoch: 1000
next table: 1322
cur table: 1311
epoch: 1000
next table: 2513
cur table: 2542
epoch: 1000
next table: 1312
cur table: 1322
epoch: 1000
next table: 2522
cur table: 2513
epoch: 1000
next table: 1312
cur table: 1312
epoch: 1000
next table: 2512
cur table: 2522
epoch: 1000
next table: 1320
cur table: 1312
epoch: 1000
next table: 2541
cur table: 2512
epoch: 1000
next table: 1306
cur table: 1320
epoch: 1000
next table: 2512
cur table: 2541
epoch: 1000
next table: 1301
cur table: 1306
Heartbeat CPU 0 instructions: 20000001 cycles: 5824421 heartbeat IPC: 3.43384 cumulative IPC: 3.43382 (Simulation time: 0 hr 5 min 19 sec) 
epoch: 1000
next table: 2520
cur table: 2512
epoch: 1000
next table: 1306
cur table: 1301
epoch: 1000
next table: 2512
cur table: 2520
epoch: 1000
next table: 1318
cur table: 1306
epoch: 1000
next table: 2546
cur table: 2512
epoch: 1000
next table: 1313
cur table: 1318
epoch: 1000
next table: 2513
cur table: 2546
epoch: 1000
next table: 1318
cur table: 1313
epoch: 1000
next table: 2518
cur table: 2513
epoch: 1000
next table: 1331
cur table: 1318
epoch: 1000
next table: 2513
cur table: 2518
epoch: 1000
next table: 1316
cur table: 1331
epoch: 1000
next table: 2543
cur table: 2513
epoch: 1000
next table: 1313
cur table: 1316
epoch: 1000
next table: 2512
cur table: 2543
epoch: 1000
next table: 1304
cur table: 1313
epoch: 1000
next table: 2519
cur table: 2512
epoch: 1000
next table: 1316
cur table: 1304
epoch: 1000
next table: 2513
cur table: 2519
epoch: 1000
next table: 1314
cur table: 1316
epoch: 1000
next table: 2532
cur table: 2513
epoch: 1000
next table: 1321
cur table: 1314
epoch: 1000
next table: 2513
cur table: 2532
epoch: 1000
next table: 1323
cur table: 1321
epoch: 1000
next table: 2520
cur table: 2513
epoch: 1000
next table: 1319
cur table: 1323
epoch: 1000
next table: 2513
cur table: 2520
epoch: 1000
next table: 1321
cur table: 1319
epoch: 1000
next table: 2543
cur table: 2513
epoch: 1000
next table: 1317
cur table: 1321
epoch: 1000
next table: 2511
cur table: 2543
epoch: 1000
next table: 1312
cur table: 1317
epoch: 1000
next table: 2522
cur table: 2511
epoch: 1000
next table: 1309
cur table: 1312
epoch: 1000
next table: 2512
cur table: 2522
epoch: 1000
next table: 1315
cur table: 1309
epoch: 1000
next table: 2538
cur table: 2512
epoch: 1000
next table: 1328
cur table: 1315
epoch: 1000
next table: 2515
cur table: 2538
epoch: 1000
next table: 1329
cur table: 1328
epoch: 1000
next table: 2516
cur table: 2515
epoch: 1000
next table: 1323
cur table: 1329
epoch: 1000
next table: 2513
cur table: 2516
epoch: 1000
next table: 1314
cur table: 1323
epoch: 1000
next table: 2540
cur table: 2513
epoch: 1000
next table: 1306
cur table: 1314
epoch: 1000
next table: 2513
cur table: 2540
epoch: 1000
next table: 1302
cur table: 1306
epoch: 1000
next table: 2519
cur table: 2513
epoch: 1000
next table: 1300
cur table: 1302
epoch: 1000
next table: 2513
cur table: 2519
epoch: 1000
next table: 1322
cur table: 1300
epoch: 1000
next table: 2543
cur table: 2513
epoch: 1000
next table: 1323
cur table: 1322
epoch: 1000
next table: 2512
cur table: 2543
epoch: 1000
next table: 1329
cur table: 1323
epoch: 1000
next table: 2523
cur table: 2512
epoch: 1000
next table: 1313
cur table: 1329
epoch: 1000
next table: 2511
cur table: 2523
epoch: 1000
next table: 1312
cur table: 1313
epoch: 1000
next table: 2543
cur table: 2511
epoch: 1000
next table: 1300
cur table: 1312
epoch: 1000
next table: 2512
cur table: 2543
epoch: 1000
next table: 1308
cur table: 1300
epoch: 1000
next table: 2519
cur table: 2512
epoch: 1000
next table: 1312
cur table: 1308
epoch: 1000
next table: 2513
cur table: 2519
epoch: 1000
next table: 1312
cur table: 1312
epoch: 1000
next table: 2542
cur table: 2513
epoch: 1000
next table: 1310
cur table: 1312
epoch: 1000
next table: 2512
cur table: 2542
epoch: 1000
next table: 1334
cur table: 1310
epoch: 1000
next table: 2521
cur table: 2512
epoch: 1000
next table: 1315
cur table: 1334
epoch: 1000
next table: 2513
cur table: 2521
epoch: 1000
next table: 1319
cur table: 1315
epoch: 1000
next table: 2543
cur table: 2513
epoch: 1000
next table: 1309
cur table: 1319
epoch: 1000
next table: 2511
cur table: 2543
epoch: 1000
next table: 1297
cur table: 1309
epoch: 1000
next table: 2517
cur table: 2511
epoch: 1000
next table: 1302
cur table: 1297
epoch: 1000
next table: 2512
cur table: 2517
epoch: 1000
next table: 1311
cur table: 1302
epoch: 1000
next table: 1312
cur table: 1311
epoch: 1000
next table: 2535
cur table: 2512
epoch: 1000
next table: 1317
cur table: 1312
epoch: 1000
next table: 2511
cur table: 2535
epoch: 1000
next table: 1318
cur table: 1317
epoch: 1000
next table: 2520
cur table: 2511
epoch: 1000
next table: 1313
cur table: 1318
epoch: 1000
next table: 2513
cur table: 2520
epoch: 1000
next table: 1315
cur table: 1313
epoch: 1000
next table: 2540
cur table: 2513
epoch: 1000
next table: 1298
cur table: 1315
epoch: 1000
next table: 2512
cur table: 2540
epoch: 1000
next table: 1312
cur table: 1298
epoch: 1000
next table: 2520
cur table: 2512
epoch: 1000
next table: 1311
cur table: 1312
epoch: 1000
next table: 2513
cur table: 2520
epoch: 1000
next table: 1321
cur table: 1311
epoch: 1000
next table: 2539
cur table: 2513
epoch: 1000
next table: 1307
cur table: 1321
epoch: 1000
next table: 2513
cur table: 2539
epoch: 1000
next table: 1320
cur table: 1307
epoch: 1000
next table: 2518
cur table: 2513
epoch: 1000
next table: 1317
cur table: 1320
epoch: 1000
next table: 2512
cur table: 2518
epoch: 1000
next table: 1321
cur table: 1317
epoch: 1000
next table: 2539
cur table: 2512
epoch: 1000
next table: 1296
cur table: 1321
epoch: 1000
next table: 2513
cur table: 2539
epoch: 1000
next table: 1298
cur table: 1296
epoch: 1000
next table: 2520
cur table: 2513
epoch: 1000
next table: 1300
cur table: 1298
epoch: 1000
next table: 2511
cur table: 2520
epoch: 1000
next table: 1332
cur table: 1300
epoch: 1000
next table: 2548
cur table: 2511
epoch: 1000
next table: 1312
cur table: 1332
epoch: 1000
next table: 2511
cur table: 2548
epoch: 1000
next table: 1332
cur table: 1312
epoch: 1000
next table: 2518
cur table: 2511
epoch: 1000
next table: 1314
cur table: 1332
epoch: 1000
next table: 2515
cur table: 2518
epoch: 1000
next table: 1313
cur table: 1314
epoch: 1000
next table: 2540
cur table: 2515
epoch: 1000
next table: 1302
cur table: 1313
epoch: 1000
next table: 2513
cur table: 2540
epoch: 1000
next table: 1303
cur table: 1302
epoch: 1000
next table: 2520
cur table: 2513
epoch: 1000
next table: 1313
cur table: 1303
epoch: 1000
next table: 2513
cur table: 2520
epoch: 1000
next table: 1313
cur table: 1313
epoch: 1000
next table: 2546
cur table: 2513
epoch: 1000
next table: 1319
cur table: 1313
epoch: 1000
next table: 2512
cur table: 2546
epoch: 1000
next table: 1324
cur table: 1319
epoch: 1000
next table: 2518
cur table: 2512
epoch: 1000
next table: 1321
cur table: 1324
epoch: 1000
next table: 2511
cur table: 2518
epoch: 1000
next table: 1322
cur table: 1321
epoch: 1000
next table: 2540
cur table: 2511
epoch: 1000
next table: 1302
cur table: 1322
epoch: 1000
next table: 2513
cur table: 2540
epoch: 1000
next table: 1316
cur table: 1302
epoch: 1000
next table: 2518
cur table: 2513
epoch: 1000
next table: 1303
cur table: 1316
epoch: 1000
next table: 2515
cur table: 2518
epoch: 1000
next table: 1313
cur table: 1303
epoch: 1000
next table: 2531
cur table: 2515
epoch: 1000
next table: 1328
cur table: 1313
epoch: 1000
next table: 2511
cur table: 2531
epoch: 1000
next table: 1330
cur table: 1328
epoch: 1000
next table: 2520
cur table: 2511
epoch: 1000
next table: 1322
cur table: 1330
epoch: 1000
next table: 2513
cur table: 2520
epoch: 1000
next table: 1329
cur table: 1322
epoch: 1000
next table: 2543
cur table: 2513
epoch: 1000
next table: 1307
cur table: 1329
epoch: 1000
next table: 2513
cur table: 2543
epoch: 1000
next table: 1307
cur table: 1307
epoch: 1000
next table: 2518
cur table: 2513
epoch: 1000
next table: 1314
cur table: 1307
epoch: 1000
next table: 2513
cur table: 2518
epoch: 1000
next table: 1316
cur table: 1314
epoch: 1000
next table: 2538
cur table: 2513
epoch: 1000
next table: 1326
cur table: 1316
epoch: 1000
next table: 2513
cur table: 2538
epoch: 1000
next table: 1329
cur table: 1326
epoch: 1000
next table: 2519
cur table: 2513
epoch: 1000
next table: 1326
cur table: 1329
epoch: 1000
next table: 2513
cur table: 2519
epoch: 1000
next table: 1318
cur table: 1326
epoch: 1000
next table: 2540
cur table: 2513
epoch: 1000
next table: 1308
cur table: 1318
epoch: 1000
next table: 2513
cur table: 2540
Heartbeat CPU 0 instructions: 30000000 cycles: 8736549 heartbeat IPC: 3.43391 cumulative IPC: 3.43385 (Simulation time: 0 hr 7 min 55 sec) 
epoch: 1000
next table: 1302
cur table: 1308
epoch: 1000
next table: 2520
cur table: 2513
epoch: 1000
next table: 1315
cur table: 1302
epoch: 1000
next table: 2513
cur table: 2520
epoch: 1000
next table: 1320
cur table: 1315
epoch: 1000
next table: 2546
cur table: 2513
epoch: 1000
next table: 1328
cur table: 1320
epoch: 1000
next table: 2510
cur table: 2546
epoch: 1000
next table: 1328
cur table: 1328
epoch: 1000
next table: 2519
cur table: 2510
epoch: 1000
next table: 1318
cur table: 1328
epoch: 1000
next table: 2512
cur table: 2519
epoch: 1000
next table: 1302
cur table: 1318
epoch: 1000
next table: 2545
cur table: 2512
epoch: 1000
next table: 1307
cur table: 1302
epoch: 1000
next table: 2511
cur table: 2545
epoch: 1000
next table: 1309
cur table: 1307
epoch: 1000
next table: 2520
cur table: 2511
epoch: 1000
next table: 1309
cur table: 1309
epoch: 1000
next table: 2513
cur table: 2520
epoch: 1000
next table: 1314
cur table: 1309
epoch: 1000
next table: 2540
cur table: 2513
epoch: 1000
next table: 1315
cur table: 1314
epoch: 1000
next table: 2513
cur table: 2540
epoch: 1000
next table: 1317
cur table: 1315
epoch: 1000
next table: 2523
cur table: 2513
epoch: 1000
next table: 1305
cur table: 1317
epoch: 1000
next table: 2512
cur table: 2523
epoch: 1000
next table: 1306
cur table: 1305
epoch: 1000
next table: 2540
cur table: 2512
epoch: 1000
next table: 1309
cur table: 1306
epoch: 1000
next table: 2513
cur table: 2540
epoch: 1000
next table: 1309
cur table: 1309
epoch: 1000
next table: 2517
cur table: 2513
epoch: 1000
next table: 1310
cur table: 1309
epoch: 1000
next table: 2513
cur table: 2517
epoch: 1000
next table: 1305
cur table: 1310
epoch: 1000
next table: 2537
cur table: 2513
epoch: 1000
next table: 1328
cur table: 1305
epoch: 1000
next table: 2509
cur table: 2537
epoch: 1000
next table: 1329
cur table: 1328
epoch: 1000
next table: 2522
cur table: 2509
epoch: 1000
next table: 1320
cur table: 1329
epoch: 1000
next table: 2511
cur table: 2522
epoch: 1000
next table: 1315
cur table: 1320
epoch: 1000
next table: 2540
cur table: 2511
epoch: 1000
next table: 1297
cur table: 1315
epoch: 1000
next table: 2512
cur table: 2540
epoch: 1000
next table: 1314
cur table: 1297
epoch: 1000
next table: 2520
cur table: 2512
epoch: 1000
next table: 1313
cur table: 1314
epoch: 1000
next table: 2511
cur table: 2520
epoch: 1000
next table: 1316
cur table: 1313
epoch: 1000
next table: 2539
cur table: 2511
epoch: 1000
next table: 1315
cur table: 1316
epoch: 1000
next table: 2510
cur table: 2539
epoch: 1000
next table: 1332
cur table: 1315
epoch: 1000
next table: 2521
cur table: 2510
epoch: 1000
next table: 1320
cur table: 1332
epoch: 1000
next table: 2512
cur table: 2521
epoch: 1000
next table: 1319
cur table: 1320
epoch: 1000
next table: 2542
cur table: 2512
epoch: 1000
next table: 1305
cur table: 1319
epoch: 1000
next table: 2513
cur table: 2542
epoch: 1000
next table: 1313
cur table: 1305
epoch: 1000
next table: 2522
cur table: 2513
epoch: 1000
next table: 1303
cur table: 1313
epoch: 1000
next table: 2510
cur table: 2522
epoch: 1000
next table: 1315
cur table: 1303
epoch: 1000
next table: 2543
cur table: 2510
epoch: 1000
next table: 1317
cur table: 1315
epoch: 1000
next table: 2513
cur table: 2543
epoch: 1000
next table: 1324
cur table: 1317
epoch: 1000
next table: 2521
cur table: 2513
epoch: 1000
next table: 1324
cur table: 1324
epoch: 1000
next table: 2512
cur table: 2521
epoch: 1000
next table: 1324
cur table: 1324
epoch: 1000
next table: 2541
cur table: 2512
epoch: 1000
next table: 1311
cur table: 1324
epoch: 1000
next table: 2513
cur table: 2541
epoch: 1000
next table: 1293
cur table: 1311
epoch: 1000
next table: 2517
cur table: 2513
epoch: 1000
next table: 1324
cur table: 1293
epoch: 1000
next table: 2515
cur table: 2517
epoch: 1000
next table: 1313
cur table: 1324
epoch: 1000
next table: 2540
cur table: 2515
epoch: 1000
next table: 1323
cur table: 1313
epoch: 1000
next table: 2515
cur table: 2540
epoch: 1000
next table: 1320
cur table: 1323
epoch: 1000
next table: 2520
cur table: 2515
epoch: 1000
next table: 1316
cur table: 1320
epoch: 1000
next table: 2513
cur table: 2520
epoch: 1000
next table: 1311
cur table: 1316
epoch: 1000
next table: 2538
cur table: 2513
epoch: 1000
next table: 1309
cur table: 1311
epoch: 1000
next table: 2512
cur table: 2538
epoch: 1000
next table: 1310
cur table: 1309
epoch: 1000
next table: 2521
cur table: 2512
epoch: 1000
next table: 1308
cur table: 1310
epoch: 1000
next table: 2512
cur table: 2521
epoch: 1000
next table: 1322
cur table: 1308
epoch: 1000
next table: 2533
cur table: 2512
epoch: 1000
next table: 1316
cur table: 1322
epoch: 1000
next table: 2513
cur table: 2533
epoch: 1000
next table: 1312
cur table: 1316
epoch: 1000
next table: 2521
cur table: 2513
epoch: 1000
next table: 1320
cur table: 1312
epoch: 1000
next table: 2511
cur table: 2521
epoch: 1000
next table: 1308
cur table: 1320
epoch: 1000
next table: 2541
cur table: 2511
epoch: 1000
next table: 1321
cur table: 1308
epoch: 1000
next table: 2512
cur table: 2541
epoch: 1000
next table: 1305
cur table: 1321
epoch: 1000
next table: 2519
cur table: 2512
epoch: 1000
next table: 1301
cur table: 1305
epoch: 1000
next table: 2513
cur table: 2519
epoch: 1000
next table: 1322
cur table: 1301
epoch: 1000
next table: 2537
cur table: 2513
epoch: 1000
next table: 1308
cur table: 1322
epoch: 1000
next table: 2512
cur table: 2537
epoch: 1000
next table: 1311
cur table: 1308
epoch: 1000
next table: 2522
cur table: 2512
epoch: 1000
next table: 1321
cur table: 1311
epoch: 1000
next table: 2514
cur table: 2522
epoch: 1000
next table: 1319
cur table: 1321
epoch: 1000
next table: 2537
cur table: 2514
epoch: 1000
next table: 1314
cur table: 1319
epoch: 1000
next table: 2513
cur table: 2537
epoch: 1000
next table: 1305
cur table: 1314
epoch: 1000
next table: 2520
cur table: 2513
epoch: 1000
next table: 1312
cur table: 1305
epoch: 1000
next table: 2513
cur table: 2520
epoch: 1000
next table: 1306
cur table: 1312
epoch: 1000
next table: 2541
cur table: 2513
epoch: 1000
next table: 1312
cur table: 1306
epoch: 1000
next table: 2512
cur table: 2541
epoch: 1000
next table: 1305
cur table: 1312
epoch: 1000
next table: 2520
cur table: 2512
epoch: 1000
next table: 1312
cur table: 1305
epoch: 1000
next table: 2514
cur table: 2520
epoch: 1000
next table: 1317
cur table: 1312
epoch: 1000
next table: 2543
cur table: 2514
epoch: 1000
next table: 1309
cur table: 1317
epoch: 1000
next table: 2512
cur table: 2543
epoch: 1000
next table: 1300
cur table: 1309
epoch: 1000
next table: 2520
cur table: 2512
epoch: 1000
next table: 1320
cur table: 1300
epoch: 1000
next table: 2512
cur table: 2520
epoch: 1000
next table: 1308
cur table: 1320
epoch: 1000
next table: 2528
cur table: 2512
epoch: 1000
next table: 1332
cur table: 1308
epoch: 1000
next table: 2511
cur table: 2528
epoch: 1000
next table: 1313
cur table: 1332
epoch: 1000
next table: 2519
cur table: 2511
epoch: 1000
next table: 1310
cur table: 1313
epoch: 1000
next table: 2514
cur table: 2519
epoch: 1000
next table: 1308
cur table: 1310
epoch: 1000
next table: 2512
cur table: 2514
epoch: 1000
next table: 1329
cur table: 1308
epoch: 1000
next table: 2540
cur table: 2512
epoch: 1000
next table: 1296
cur table: 1329
epoch: 1000
next table: 2513
cur table: 2540
epoch: 1000
next table: 1311
cur table: 1296
epoch: 1000
next table: 2519
cur table: 2513
epoch: 1000
next table: 1314
cur table: 1311
epoch: 1000
next table: 2513
cur table: 2519
epoch: 1000
next table: 1310
cur table: 1314
epoch: 1000
next table: 2539
cur table: 2513
epoch: 1000
next table: 1320
cur table: 1310
epoch: 1000
next table: 2510
cur table: 2539
epoch: 1000
next table: 1316
cur table: 1320
epoch: 1000
next table: 2521
cur table: 2510
epoch: 1000
next table: 1326
cur table: 1316
epoch: 1000
next table: 2514
cur table: 2521
epoch: 1000
next table: 1309
cur table: 1326
epoch: 1000
next table: 2536
cur table: 2514
Heartbeat CPU 0 instructions: 40000002 cycles: 11648750 heartbeat IPC: 3.43383 cumulative IPC: 3.43385 (Simulation time: 0 hr 10 min 37 sec) 
epoch: 1000
next table: 1295
cur table: 1309
epoch: 1000
next table: 2511
cur table: 2536
epoch: 1000
next table: 1323
cur table: 1295
epoch: 1000
next table: 2519
cur table: 2511
epoch: 1000
next table: 1309
cur table: 1323
epoch: 1000
next table: 2515
cur table: 2519
epoch: 1000
next table: 1327
cur table: 1309
epoch: 1000
next table: 2540
cur table: 2515
epoch: 1000
next table: 1317
cur table: 1327
epoch: 1000
next table: 2513
cur table: 2540
epoch: 1000
next table: 1311
cur table: 1317
epoch: 1000
next table: 2521
cur table: 2513
epoch: 1000
next table: 1319
cur table: 1311
epoch: 1000
next table: 2513
cur table: 2521
epoch: 1000
next table: 1309
cur table: 1319
epoch: 1000
next table: 2541
cur table: 2513
epoch: 1000
next table: 1316
cur table: 1309
epoch: 1000
next table: 2514
cur table: 2541
epoch: 1000
next table: 1316
cur table: 1316
epoch: 1000
next table: 2518
cur table: 2514
epoch: 1000
next table: 1315
cur table: 1316
epoch: 1000
next table: 2513
cur table: 2518
epoch: 1000
next table: 1310
cur table: 1315
epoch: 1000
next table: 2543
cur table: 2513
epoch: 1000
next table: 1324
cur table: 1310
epoch: 1000
next table: 2512
cur table: 2543
epoch: 1000
next table: 1323
cur table: 1324
epoch: 1000
next table: 2522
cur table: 2512
epoch: 1000
next table: 1320
cur table: 1323
epoch: 1000
next table: 2510
cur table: 2522
epoch: 1000
next table: 1309
cur table: 1320
epoch: 1000
next table: 2543
cur table: 2510
epoch: 1000
next table: 1301
cur table: 1309
epoch: 1000
next table: 2511
cur table: 2543
epoch: 1000
next table: 1310
cur table: 1301
epoch: 1000
next table: 2520
cur table: 2511
epoch: 1000
next table: 1312
cur table: 1310
epoch: 1000
next table: 2512
cur table: 2520
epoch: 1000
next table: 1320
cur table: 1312
epoch: 1000
next table: 2545
cur table: 2512
epoch: 1000
next table: 1326
cur table: 1320
epoch: 1000
next table: 2513
cur table: 2545
epoch: 1000
next table: 1321
cur table: 1326
epoch: 1000
next table: 2519
cur table: 2513
epoch: 1000
next table: 1313
cur table: 1321
epoch: 1000
next table: 2513
cur table: 2519
epoch: 1000
next table: 1310
cur table: 1313
epoch: 1000
next table: 2543
cur table: 2513
epoch: 1000
next table: 1299
cur table: 1310
epoch: 1000
next table: 2511
cur table: 2543
epoch: 1000
next table: 1321
cur table: 1299
epoch: 1000
next table: 2522
cur table: 2511
epoch: 1000
next table: 1316
cur table: 1321
epoch: 1000
next table: 2512
cur table: 2522
epoch: 1000
next table: 1312
cur table: 1316
epoch: 1000
next table: 2538
cur table: 2512
epoch: 1000
next table: 1318
cur table: 1312
epoch: 1000
next table: 2512
cur table: 2538
epoch: 1000
next table: 1325
cur table: 1318
epoch: 1000
next table: 2522
cur table: 2512
epoch: 1000
next table: 1307
cur table: 1325
epoch: 1000
next table: 2514
cur table: 2522
epoch: 1000
next table: 1320
cur table: 1307
epoch: 1000
next table: 2538
cur table: 2514
epoch: 1000
next table: 1311
cur table: 1320
epoch: 1000
next table: 2513
cur table: 2538
epoch: 1000
next table: 1314
cur table: 1311
epoch: 1000
next table: 2520
cur table: 2513
epoch: 1000
next table: 1313
cur table: 1314
epoch: 1000
next table: 2514
cur table: 2520
epoch: 1000
next table: 1315
cur table: 1313
epoch: 1000
next table: 2538
cur table: 2514
epoch: 1000
next table: 1329
cur table: 1315
epoch: 1000
next table: 2515
cur table: 2538
epoch: 1000
next table: 1315
cur table: 1329
epoch: 1000
next table: 2519
cur table: 2515
epoch: 1000
next table: 1321
cur table: 1315
epoch: 1000
next table: 2513
cur table: 2519
epoch: 1000
next table: 1298
cur table: 1321
epoch: 1000
next table: 2541
cur table: 2513
epoch: 1000
next table: 1297
cur table: 1298
epoch: 1000
next table: 2515
cur table: 2541
epoch: 1000
next table: 1309
cur table: 1297
epoch: 1000
next table: 2518
cur table: 2515
epoch: 1000
next table: 1316
cur table: 1309
epoch: 1000
next table: 2512
cur table: 2518
epoch: 1000
next table: 1319
cur table: 1316
epoch: 1000
next table: 2542
cur table: 2512
epoch: 1000
next table: 1315
cur table: 1319
epoch: 1000
next table: 2513
cur table: 2542
epoch: 1000
next table: 1304
cur table: 1315
epoch: 1000
next table: 2519
cur table: 2513
epoch: 1000
next table: 1318
cur table: 1304
epoch: 1000
next table: 2513
cur table: 2519
epoch: 1000
next table: 1309
cur table: 1318
epoch: 1000
next table: 2542
cur table: 2513
epoch: 1000
next table: 1296
cur table: 1309
epoch: 1000
next table: 2512
cur table: 2542
epoch: 1000
next table: 1314
cur table: 1296
epoch: 1000
next table: 2522
cur table: 2512
epoch: 1000
next table: 1302
cur table: 1314
epoch: 1000
next table: 2513
cur table: 2522
epoch: 1000
next table: 1312
cur table: 1302
epoch: 1000
next table: 2539
cur table: 2513
epoch: 1000
next table: 1312
cur table: 1312
epoch: 1000
next table: 2513
cur table: 2539
epoch: 1000
next table: 1314
cur table: 1312
epoch: 1000
next table: 2518
cur table: 2513
epoch: 1000
next table: 1314
cur table: 1314
epoch: 1000
next table: 2513
cur table: 2518
epoch: 1000
next table: 1312
cur table: 1314
epoch: 1000
next table: 2545
cur table: 2513
epoch: 1000
next table: 1304
cur table: 1312
epoch: 1000
next table: 2511
cur table: 2545
epoch: 1000
next table: 1314
cur table: 1304
epoch: 1000
next table: 2521
cur table: 2511
epoch: 1000
next table: 1317
cur table: 1314
epoch: 1000
next table: 2513
cur table: 2521
epoch: 1000
next table: 1316
cur table: 1317
epoch: 1000
next table: 2539
cur table: 2513
epoch: 1000
next table: 1319
cur table: 1316
epoch: 1000
next table: 2515
cur table: 2539
epoch: 1000
next table: 1325
cur table: 1319
epoch: 1000
next table: 2518
cur table: 2515
epoch: 1000
next table: 1317
cur table: 1325
epoch: 1000
next table: 2512
cur table: 2518
epoch: 1000
next table: 1319
cur table: 1317
epoch: 1000
next table: 2539
cur table: 2512
epoch: 1000
next table: 1305
cur table: 1319
epoch: 1000
next table: 2511
cur table: 2539
epoch: 1000
next table: 1314
cur table: 1305
epoch: 1000
next table: 2521
cur table: 2511
epoch: 1000
next table: 1309
cur table: 1314
epoch: 1000
next table: 2512
cur table: 2521
epoch: 1000
next table: 1318
cur table: 1309
epoch: 1000
next table: 2544
cur table: 2512
epoch: 1000
next table: 1328
cur table: 1318
epoch: 1000
next table: 2514
cur table: 2544
epoch: 1000
next table: 1327
cur table: 1328
epoch: 1000
next table: 2520
cur table: 2514
epoch: 1000
next table: 1318
cur table: 1327
epoch: 1000
next table: 2514
cur table: 2520
epoch: 1000
next table: 1311
cur table: 1318
epoch: 1000
next table: 2537
cur table: 2514
epoch: 1000
next table: 1308
cur table: 1311
epoch: 1000
next table: 2513
cur table: 2537
epoch: 1000
next table: 1309
cur table: 1308
epoch: 1000
next table: 2520
cur table: 2513
epoch: 1000
next table: 1317
cur table: 1309
epoch: 1000
next table: 2511
cur table: 2520
epoch: 1000
next table: 1316
cur table: 1317
epoch: 1000
next table: 2545
cur table: 2511
epoch: 1000
next table: 1322
cur table: 1316
epoch: 1000
next table: 2513
cur table: 2545
epoch: 1000
next table: 1334
cur table: 1322
epoch: 1000
next table: 2518
cur table: 2513
epoch: 1000
next table: 1308
cur table: 1334
epoch: 1000
next table: 2512
cur table: 2518
epoch: 1000
next table: 1309
cur table: 1308
epoch: 1000
next table: 2543
cur table: 2512
epoch: 1000
next table: 1305
cur table: 1309
epoch: 1000
next table: 2513
cur table: 2543
epoch: 1000
next table: 1311
cur table: 1305
epoch: 1000
next table: 2520
cur table: 2513
epoch: 1000
next table: 1318
cur table: 1311
epoch: 1000
next table: 2513
cur table: 2520
epoch: 1000
next table: 1293
cur table: 1318
epoch: 1000
next table: 2538
cur table: 2513
epoch: 1000
next table: 1323
cur table: 1293
epoch: 1000
next table: 2513
cur table: 2538
epoch: 1000
next table: 1309
cur table: 1323
epoch: 1000
next table: 2519
cur table: 2513
epoch: 1000
next table: 1314
cur table: 1309
epoch: 1000
next table: 2513
cur table: 2519
epoch: 1000
next table: 1316
cur table: 1314
epoch: 1000
next table: 2542
cur table: 2513
Heartbeat CPU 0 instructions: 50000001 cycles: 14560931 heartbeat IPC: 3.43385 cumulative IPC: 3.43385 (Simulation time: 0 hr 13 min 11 sec) 

Warmup complete CPU 0 instructions: 50000001 cycles: 14560931 (Simulation time: 0 hr 13 min 11 sec) 

epoch: 1000
next table: 1293
cur table: 1298
epoch: 1000
next table: 2513
cur table: 2518
epoch: 1000
next table: 1293
cur table: 1293
epoch: 1000
next table: 2533
cur table: 2513
epoch: 1000
next table: 1281
cur table: 1293
epoch: 1000
next table: 2512
cur table: 2533
epoch: 1000
next table: 1293
cur table: 1281
epoch: 1000
next table: 2522
cur table: 2512
epoch: 1000
next table: 1301
cur table: 1293
epoch: 1000
next table: 2510
cur table: 2522
epoch: 1000
next table: 1303
cur table: 1301
epoch: 1000
next table: 2546
cur table: 2510
epoch: 1000
next table: 1283
cur table: 1303
epoch: 1000
next table: 2512
cur table: 2546
epoch: 1000
next table: 1298
cur table: 1283
epoch: 1000
next table: 2521
cur table: 2512
epoch: 1000
next table: 1292
cur table: 1298
epoch: 1000
next table: 2513
cur table: 2521
epoch: 1000
next table: 1294
cur table: 1292
epoch: 1000
next table: 2537
cur table: 2513
epoch: 1000
next table: 1290
cur table: 1294
epoch: 1000
next table: 2515
cur table: 2537
epoch: 1000
next table: 1304
cur table: 1290
epoch: 1000
next table: 2519
cur table: 2515
epoch: 1000
next table: 1286
cur table: 1304
epoch: 1000
next table: 2512
cur table: 2519
epoch: 1000
next table: 1280
cur table: 1286
epoch: 1000
next table: 2541
cur table: 2512
epoch: 1000
next table: 1290
cur table: 1280
epoch: 1000
next table: 2512
cur table: 2541
epoch: 1000
next table: 1292
cur table: 1290
epoch: 1000
next table: 2519
cur table: 2512
epoch: 1000
next table: 1286
cur table: 1292
epoch: 1000
next table: 2513
cur table: 2519
epoch: 1000
next table: 1301
cur table: 1286
epoch: 1000
next table: 2541
cur table: 2513
epoch: 1000
next table: 1285
cur table: 1301
epoch: 1000
next table: 2513
cur table: 2541
epoch: 1000
next table: 1290
cur table: 1285
epoch: 1000
next table: 2520
cur table: 2513
epoch: 1000
next table: 1289
cur table: 1290
epoch: 1000
next table: 2513
cur table: 2520
epoch: 1000
next table: 1303
cur table: 1289
epoch: 1000
next table: 2541
cur table: 2513
epoch: 1000
next table: 1286
cur table: 1303
epoch: 1000
next table: 2513
cur table: 2541
epoch: 1000
next table: 1292
cur table: 1286
epoch: 1000
next table: 2520
cur table: 2513
epoch: 1000
next table: 1278
cur table: 1292
epoch: 1000
next table: 2515
cur table: 2520
epoch: 1000
next table: 1298
cur table: 1278
epoch: 1000
next table: 2537
cur table: 2515
epoch: 1000
next table: 1295
cur table: 1298
epoch: 1000
next table: 2513
cur table: 2537
epoch: 1000
next table: 1289
cur table: 1295
epoch: 1000
next table: 2519
cur table: 2513
epoch: 1000
next table: 1294
cur table: 1289
epoch: 1000
next table: 2513
cur table: 2519
epoch: 1000
next table: 1284
cur table: 1294
epoch: 1000
next table: 2544
cur table: 2513
epoch: 1000
next table: 1292
cur table: 1284
epoch: 1000
next table: 2513
cur table: 2544
epoch: 1000
next table: 1292
cur table: 1292
epoch: 1000
next table: 2517
cur table: 2513
epoch: 1000
next table: 1289
cur table: 1292
epoch: 1000
next table: 2513
cur table: 2517
epoch: 1000
next table: 1289
cur table: 1289
epoch: 1000
next table: 2538
cur table: 2513
epoch: 1000
next table: 1280
cur table: 1289
epoch: 1000
next table: 2511
cur table: 2538
epoch: 1000
next table: 1287
cur table: 1280
epoch: 1000
next table: 2518
cur table: 2511
epoch: 1000
next table: 1299
cur table: 1287
epoch: 1000
next table: 2514
cur table: 2518
epoch: 1000
next table: 1296
cur table: 1299
epoch: 1000
next table: 2540
cur table: 2514
epoch: 1000
next table: 1292
cur table: 1296
epoch: 1000
next table: 2511
cur table: 2540
epoch: 1000
next table: 1288
cur table: 1292
epoch: 1000
next table: 2518
cur table: 2511
epoch: 1000
next table: 1287
cur table: 1288
epoch: 1000
next table: 2513
cur table: 2518
epoch: 1000
next table: 1294
cur table: 1287
epoch: 1000
next table: 2513
cur table: 2513
epoch: 1000
next table: 1313
cur table: 1294
epoch: 1000
next table: 2545
cur table: 2513
epoch: 1000
next table: 1294
cur table: 1313
epoch: 1000
next table: 2513
cur table: 2545
epoch: 1000
next table: 1291
cur table: 1294
epoch: 1000
next table: 2519
cur table: 2513
epoch: 1000
next table: 1294
cur table: 1291
epoch: 1000
next table: 2512
cur table: 2519
epoch: 1000
next table: 1315
cur table: 1294
epoch: 1000
next table: 2538
cur table: 2512
epoch: 1000
next table: 1281
cur table: 1315
epoch: 1000
next table: 2513
cur table: 2538
epoch: 1000
next table: 1295
cur table: 1281
epoch: 1000
next table: 2519
cur table: 2513
epoch: 1000
next table: 1286
cur table: 1295
epoch: 1000
next table: 2513
cur table: 2519
epoch: 1000
next table: 1301
cur table: 1286
epoch: 1000
next table: 2542
cur table: 2513
epoch: 1000
next table: 1284
cur table: 1301
epoch: 1000
next table: 2513
cur table: 2542
epoch: 1000
next table: 1299
cur table: 1284
epoch: 1000
next table: 2519
cur table: 2513
epoch: 1000
next table: 1292
cur table: 1299
epoch: 1000
next table: 2513
cur table: 2519
epoch: 1000
next table: 1292
cur table: 1292
epoch: 1000
next table: 2543
cur table: 2513
epoch: 1000
next table: 1289
cur table: 1292
epoch: 1000
next table: 2513
cur table: 2543
epoch: 1000
next table: 1295
cur table: 1289
epoch: 1000
next table: 2518
cur table: 2513
epoch: 1000
next table: 1291
cur table: 1295
epoch: 1000
next table: 2512
cur table: 2518
epoch: 1000
next table: 1275
cur table: 1291
epoch: 1000
next table: 2540
cur table: 2512
epoch: 1000
next table: 1289
cur table: 1275
epoch: 1000
next table: 2513
cur table: 2540
epoch: 1000
next table: 1288
cur table: 1289
epoch: 1000
next table: 2518
cur table: 2513
epoch: 1000
next table: 1300
cur table: 1288
epoch: 1000
next table: 2513
cur table: 2518
epoch: 1000
next table: 1288
cur table: 1300
epoch: 1000
next table: 2546
cur table: 2513
epoch: 1000
next table: 1292
cur table: 1288
epoch: 1000
next table: 2512
cur table: 2546
epoch: 1000
next table: 1303
cur table: 1292
epoch: 1000
next table: 2519
cur table: 2512
epoch: 1000
next table: 1298
cur table: 1303
epoch: 1000
next table: 2514
cur table: 2519
epoch: 1000
next table: 1281
cur table: 1298
epoch: 1000
next table: 2534
cur table: 2514
epoch: 1000
next table: 1285
cur table: 1281
epoch: 1000
next table: 2513
cur table: 2534
epoch: 1000
next table: 1294
cur table: 1285
epoch: 1000
next table: 2524
cur table: 2513
epoch: 1000
next table: 1297
cur table: 1294
epoch: 1000
next table: 2510
cur table: 2524
epoch: 1000
next table: 1289
cur table: 1297
epoch: 1000
next table: 2543
cur table: 2510
epoch: 1000
next table: 1301
cur table: 1289
epoch: 1000
next table: 2512
cur table: 2543
epoch: 1000
next table: 1283
cur table: 1301
epoch: 1000
next table: 2518
cur table: 2512
epoch: 1000
next table: 1290
cur table: 1283
epoch: 1000
next table: 2514
cur table: 2518
epoch: 1000
next table: 1290
cur table: 1290
epoch: 1000
next table: 2541
cur table: 2514
epoch: 1000
next table: 1295
cur table: 1290
epoch: 1000
next table: 2512
cur table: 2541
epoch: 1000
next table: 1288
cur table: 1295
epoch: 1000
next table: 2519
cur table: 2512
epoch: 1000
next table: 1293
cur table: 1288
epoch: 1000
next table: 2512
cur table: 2519
epoch: 1000
next table: 1290
cur table: 1293
epoch: 1000
next table: 2543
cur table: 2512
epoch: 1000
next table: 1295
cur table: 1290
epoch: 1000
next table: 2514
cur table: 2543
epoch: 1000
next table: 1303
cur table: 1295
epoch: 1000
next table: 2518
cur table: 2514
epoch: 1000
next table: 1296
cur table: 1303
epoch: 1000
next table: 2513
cur table: 2518
epoch: 1000
next table: 1297
cur table: 1296
epoch: 1000
next table: 2542
cur table: 2513
epoch: 1000
next table: 1293
cur table: 1297
epoch: 1000
next table: 2512
cur table: 2542
epoch: 1000
next table: 1302
cur table: 1293
epoch: 1000
next table: 2519
cur table: 2512
epoch: 1000
next table: 1294
cur table: 1302
epoch: 1000
next table: 2513
cur table: 2519
epoch: 1000
next table: 1285
cur table: 1294
Heartbeat CPU 0 instructions: 60000000 cycles: 24542936 heartbeat IPC: 1.0018 cumulative IPC: 1.0018 (Simulation time: 0 hr 15 min 50 sec) 
epoch: 1000
next table: 2542
cur table: 2513
epoch: 1000
next table: 1282
cur table: 1285
epoch: 1000
next table: 2513
cur table: 2542
epoch: 1000
next table: 1292
cur table: 1282
epoch: 1000
next table: 2520
cur table: 2513
epoch: 1000
next table: 1285
cur table: 1292
epoch: 1000
next table: 2511
cur table: 2520
epoch: 1000
next table: 1309
cur table: 1285
epoch: 1000
next table: 2528
cur table: 2511
epoch: 1000
next table: 1298
cur table: 1309
epoch: 1000
next table: 2514
cur table: 2528
epoch: 1000
next table: 1293
cur table: 1298
epoch: 1000
next table: 2516
cur table: 2514
epoch: 1000
next table: 1291
cur table: 1293
epoch: 1000
next table: 2512
cur table: 2516
epoch: 1000
next table: 1290
cur table: 1291
epoch: 1000
next table: 2542
cur table: 2512
epoch: 1000
next table: 1296
cur table: 1290
epoch: 1000
next table: 2513
cur table: 2542
epoch: 1000
next table: 1293
cur table: 1296
epoch: 1000
next table: 2519
cur table: 2513
epoch: 1000
next table: 1292
cur table: 1293
epoch: 1000
next table: 2513
cur table: 2519
epoch: 1000
next table: 1295
cur table: 1292
epoch: 1000
next table: 2536
cur table: 2513
epoch: 1000
next table: 1289
cur table: 1295
epoch: 1000
next table: 2513
cur table: 2536
epoch: 1000
next table: 1301
cur table: 1289
epoch: 1000
next table: 2524
cur table: 2513
epoch: 1000
next table: 1282
cur table: 1301
epoch: 1000
next table: 2511
cur table: 2524
epoch: 1000
next table: 1298
cur table: 1282
epoch: 1000
next table: 2539
cur table: 2511
epoch: 1000
next table: 1307
cur table: 1298
epoch: 1000
next table: 2511
cur table: 2539
epoch: 1000
next table: 1294
cur table: 1307
epoch: 1000
next table: 2521
cur table: 2511
epoch: 1000
next table: 1297
cur table: 1294
epoch: 1000
next table: 2511
cur table: 2521
epoch: 1000
next table: 1289
cur table: 1297
epoch: 1000
next table: 2542
cur table: 2511
epoch: 1000
next table: 1286
cur table: 1289
epoch: 1000
next table: 2513
cur table: 2542
epoch: 1000
next table: 1292
cur table: 1286
epoch: 1000
next table: 2521
cur table: 2513
epoch: 1000
next table: 1295
cur table: 1292
epoch: 1000
next table: 2513
cur table: 2521
epoch: 1000
next table: 1300
cur table: 1295
epoch: 1000
next table: 2541
cur table: 2513
epoch: 1000
next table: 1290
cur table: 1300
epoch: 1000
next table: 2513
cur table: 2541
epoch: 1000
next table: 1294
cur table: 1290
epoch: 1000
next table: 2519
cur table: 2513
epoch: 1000
next table: 1296
cur table: 1294
epoch: 1000
next table: 2513
cur table: 2519
epoch: 1000
next table: 1295
cur table: 1296
epoch: 1000
next table: 2541
cur table: 2513
epoch: 1000
next table: 1292
cur table: 1295
epoch: 1000
next table: 2515
cur table: 2541
epoch: 1000
next table: 1284
cur table: 1292
epoch: 1000
next table: 2519
cur table: 2515
epoch: 1000
next table: 1286
cur table: 1284
epoch: 1000
next table: 2513
cur table: 2519
epoch: 1000
next table: 1291
cur table: 1286
epoch: 1000
next table: 2538
cur table: 2513
epoch: 1000
next table: 1295
cur table: 1291
epoch: 1000
next table: 2515
cur table: 2538
epoch: 1000
next table: 1286
cur table: 1295
epoch: 1000
next table: 2516
cur table: 2515
epoch: 1000
next table: 1289
cur table: 1286
epoch: 1000
next table: 2514
cur table: 2516
epoch: 1000
next table: 1295
cur table: 1289
epoch: 1000
next table: 2543
cur table: 2514
epoch: 1000
next table: 1295
cur table: 1295
epoch: 1000
next table: 2513
cur table: 2543
epoch: 1000
next table: 1292
cur table: 1295
epoch: 1000
next table: 2521
cur table: 2513
epoch: 1000
next table: 1290
cur table: 1292
epoch: 1000
next table: 2510
cur table: 2521
epoch: 1000
next table: 1296
cur table: 1290
epoch: 1000
next table: 2544
cur table: 2510
epoch: 1000
next table: 1286
cur table: 1296
epoch: 1000
next table: 2512
cur table: 2544
epoch: 1000
next table: 1286
cur table: 1286
epoch: 1000
next table: 2519
cur table: 2512
epoch: 1000
next table: 1291
cur table: 1286
epoch: 1000
next table: 2512
cur table: 2519
epoch: 1000
next table: 1287
cur table: 1291
epoch: 1000
next table: 2536
cur table: 2512
epoch: 1000
next table: 1288
cur table: 1287
epoch: 1000
next table: 2512
cur table: 2536
epoch: 1000
next table: 1278
cur table: 1288
epoch: 1000
next table: 2523
cur table: 2512
epoch: 1000
next table: 1297
cur table: 1278
epoch: 1000
next table: 2515
cur table: 2523
epoch: 1000
next table: 1300
cur table: 1297
epoch: 1000
next table: 2538
cur table: 2515
epoch: 1000
next table: 1290
cur table: 1300
epoch: 1000
next table: 2513
cur table: 2538
epoch: 1000
next table: 1299
cur table: 1290
epoch: 1000
next table: 2520
cur table: 2513
epoch: 1000
next table: 1304
cur table: 1299
epoch: 1000
next table: 2512
cur table: 2520
epoch: 1000
next table: 1291
cur table: 1304
epoch: 1000
next table: 2540
cur table: 2512
epoch: 1000
next table: 1287
cur table: 1291
epoch: 1000
next table: 2513
cur table: 2540
epoch: 1000
next table: 1285
cur table: 1287
epoch: 1000
next table: 2519
cur table: 2513
epoch: 1000
next table: 1282
cur table: 1285
epoch: 1000
next table: 2512
cur table: 2519
epoch: 1000
next table: 1302
cur table: 1282
epoch: 1000
next table: 2543
cur table: 2512
epoch: 1000
next table: 1290
cur table: 1302
epoch: 1000
next table: 2513
cur table: 2543
epoch: 1000
next table: 1289
cur table: 1290
epoch: 1000
next table: 2521
cur table: 2513
epoch: 1000
next table: 1291
cur table: 1289
epoch: 1000
next table: 2515
cur table: 2521
epoch: 1000
next table: 1294
cur table: 1291
epoch: 1000
next table: 2532
cur table: 2515
epoch: 1000
next table: 1285
cur table: 1294
epoch: 1000
next table: 2515
cur table: 2532
epoch: 1000
next table: 1283
cur table: 1285
epoch: 1000
next table: 2517
cur table: 2515
epoch: 1000
next table: 1287
cur table: 1283
epoch: 1000
next table: 2515
cur table: 2517
epoch: 1000
next table: 1296
cur table: 1287
epoch: 1000
next table: 2540
cur table: 2515
epoch: 1000
next table: 1295
cur table: 1296
epoch: 1000
next table: 2512
cur table: 2540
epoch: 1000
next table: 1298
cur table: 1295
epoch: 1000
next table: 2517
cur table: 2512
epoch: 1000
next table: 1300
cur table: 1298
epoch: 1000
next table: 2513
cur table: 2517
epoch: 1000
next table: 1294
cur table: 1300
epoch: 1000
next table: 2544
cur table: 2513
epoch: 1000
next table: 1290
cur table: 1294
epoch: 1000
next table: 2512
cur table: 2544
epoch: 1000
next table: 1284
cur table: 1290
epoch: 1000
next table: 2518
cur table: 2512
epoch: 1000
next table: 1300
cur table: 1284
epoch: 1000
next table: 2514
cur table: 2518
epoch: 1000
next table: 1283
cur table: 1300
epoch: 1000
next table: 2544
cur table: 2514
epoch: 1000
next table: 1289
cur table: 1283
epoch: 1000
next table: 2514
cur table: 2544
epoch: 1000
next table: 1288
cur table: 1289
epoch: 1000
next table: 2515
cur table: 2514
epoch: 1000
next table: 1288
cur table: 1288
epoch: 1000
next table: 2514
cur table: 2515
epoch: 1000
next table: 1292
cur table: 1288
epoch: 1000
next table: 2534
cur table: 2514
epoch: 1000
next table: 1291
cur table: 1292
epoch: 1000
next table: 2513
cur table: 2534
epoch: 1000
next table: 1292
cur table: 1291
epoch: 1000
next table: 2523
cur table: 2513
epoch: 1000
next table: 1290
cur table: 1292
epoch: 1000
next table: 2512
cur table: 2523
epoch: 1000
next table: 1298
cur table: 1290
epoch: 1000
next table: 2532
cur table: 2512
epoch: 1000
next table: 1288
cur table: 1298
epoch: 1000
next table: 2513
cur table: 2532
epoch: 1000
next table: 1299
cur table: 1288
epoch: 1000
next table: 2521
cur table: 2513
epoch: 1000
next table: 1279
cur table: 1299
epoch: 1000
next table: 2513
cur table: 2521
epoch: 1000
next table: 1298
cur table: 1279
epoch: 1000
next table: 2540
cur table: 2513
epoch: 1000
next table: 1291
cur table: 1298
epoch: 1000
next table: 2513
cur table: 2540
epoch: 1000
next table: 1295
cur table: 1291
epoch: 1000
next table: 2519
cur table: 2513
epoch: 1000
next table: 1297
cur table: 1295
epoch: 1000
next table: 2515
cur table: 2519
epoch: 1000
next table: 1296
cur table: 1297
Heartbeat CPU 0 instructions: 70000001 cycles: 34527262 heartbeat IPC: 1.00157 cumulative IPC: 1.00169 (Simulation time: 0 hr 18 min 0 sec) 
epoch: 1000
next table: 2536
cur table: 2515
epoch: 1000
next table: 1287
cur table: 1296
epoch: 1000
next table: 2514
cur table: 2536
epoch: 1000
next table: 1307
cur table: 1287
epoch: 1000
next table: 2519
cur table: 2514
epoch: 1000
next table: 1285
cur table: 1307
epoch: 1000
next table: 2513
cur table: 2519
epoch: 1000
next table: 1303
cur table: 1285
epoch: 1000
next table: 2536
cur table: 2513
epoch: 1000
next table: 1281
cur table: 1303
epoch: 1000
next table: 2515
cur table: 2536
epoch: 1000
next table: 1298
cur table: 1281
epoch: 1000
next table: 2520
cur table: 2515
epoch: 1000
next table: 1290
cur table: 1298
epoch: 1000
next table: 2512
cur table: 2520
epoch: 1000
next table: 1278
cur table: 1290
epoch: 1000
next table: 2539
cur table: 2512
epoch: 1000
next table: 1297
cur table: 1278
epoch: 1000
next table: 2512
cur table: 2539
epoch: 1000
next table: 1297
cur table: 1297
epoch: 1000
next table: 2521
cur table: 2512
epoch: 1000
next table: 1286
cur table: 1297
epoch: 1000
next table: 2511
cur table: 2521
epoch: 1000
next table: 1283
cur table: 1286
epoch: 1000
next table: 2546
cur table: 2511
epoch: 1000
next table: 1294
cur table: 1283
epoch: 1000
next table: 2510
cur table: 2546
epoch: 1000
next table: 1293
cur table: 1294
epoch: 1000
next table: 2522
cur table: 2510
epoch: 1000
next table: 1286
cur table: 1293
epoch: 1000
next table: 2511
cur table: 2522
epoch: 1000
next table: 1301
cur table: 1286
epoch: 1000
next table: 2544
cur table: 2511
epoch: 1000
next table: 1307
cur table: 1301
epoch: 1000
next table: 2512
cur table: 2544
epoch: 1000
next table: 1294
cur table: 1307
epoch: 1000
next table: 2523
cur table: 2512
epoch: 1000
next table: 1295
cur table: 1294
epoch: 1000
next table: 2510
cur table: 2523
epoch: 1000
next table: 1307
cur table: 1295
epoch: 1000
next table: 2538
cur table: 2510
epoch: 1000
next table: 1292
cur table: 1307
epoch: 1000
next table: 2512
cur table: 2538
epoch: 1000
next table: 1283
cur table: 1292
epoch: 1000
next table: 2523
cur table: 2512
epoch: 1000
next table: 1305
cur table: 1283
epoch: 1000
next table: 2512
cur table: 2523
epoch: 1000
next table: 1295
cur table: 1305
epoch: 1000
next table: 2539
cur table: 2512
epoch: 1000
next table: 1291
cur table: 1295
epoch: 1000
next table: 2512
cur table: 2539
epoch: 1000
next table: 1295
cur table: 1291
epoch: 1000
next table: 2520
cur table: 2512
epoch: 1000
next table: 1288
cur table: 1295
epoch: 1000
next table: 2514
cur table: 2520
epoch: 1000
next table: 1293
cur table: 1288
epoch: 1000
next table: 2535
cur table: 2514
epoch: 1000
next table: 1288
cur table: 1293
epoch: 1000
next table: 2513
cur table: 2535
epoch: 1000
next table: 1296
cur table: 1288
epoch: 1000
next table: 2522
cur table: 2513
epoch: 1000
next table: 1292
cur table: 1296
epoch: 1000
next table: 2512
cur table: 2522
epoch: 1000
next table: 1293
cur table: 1292
epoch: 1000
next table: 2543
cur table: 2512
epoch: 1000
next table: 1289
cur table: 1293
epoch: 1000
next table: 2513
cur table: 2543
epoch: 1000
next table: 1299
cur table: 1289
epoch: 1000
next table: 2521
cur table: 2513
epoch: 1000
next table: 1296
cur table: 1299
epoch: 1000
next table: 2513
cur table: 2521
epoch: 1000
next table: 1299
cur table: 1296
epoch: 1000
next table: 2539
cur table: 2513
epoch: 1000
next table: 1296
cur table: 1299
epoch: 1000
next table: 2513
cur table: 2539
epoch: 1000
next table: 1290
cur table: 1296
epoch: 1000
next table: 2519
cur table: 2513
epoch: 1000
next table: 1290
cur table: 1290
epoch: 1000
next table: 2513
cur table: 2519
epoch: 1000
next table: 1281
cur table: 1290
epoch: 1000
next table: 2544
cur table: 2513
epoch: 1000
next table: 1291
cur table: 1281
epoch: 1000
next table: 2514
cur table: 2544
epoch: 1000
next table: 1297
cur table: 1291
epoch: 1000
next table: 2520
cur table: 2514
epoch: 1000
next table: 1293
cur table: 1297
epoch: 1000
next table: 2513
cur table: 2520
epoch: 1000
next table: 1297
cur table: 1293
epoch: 1000
next table: 2538
cur table: 2513
epoch: 1000
next table: 1294
cur table: 1297
epoch: 1000
next table: 2513
cur table: 2538
epoch: 1000
next table: 1294
cur table: 1294
epoch: 1000
next table: 2521
cur table: 2513
epoch: 1000
next table: 1298
cur table: 1294
epoch: 1000
next table: 2515
cur table: 2521
epoch: 1000
next table: 1292
cur table: 1298
epoch: 1000
next table: 2540
cur table: 2515
epoch: 1000
next table: 1287
cur table: 1292
epoch: 1000
next table: 2513
cur table: 2540
epoch: 1000
next table: 1295
cur table: 1287
epoch: 1000
next table: 2520
cur table: 2513
epoch: 1000
next table: 1290
cur table: 1295
epoch: 1000
next table: 2512
cur table: 2520
epoch: 1000
next table: 1295
cur table: 1290
epoch: 1000
next table: 2538
cur table: 2512
epoch: 1000
next table: 1285
cur table: 1295
epoch: 1000
next table: 2513
cur table: 2538
epoch: 1000
next table: 1285
cur table: 1285
epoch: 1000
next table: 2519
cur table: 2513
epoch: 1000
next table: 1300
cur table: 1285
epoch: 1000
next table: 2512
cur table: 2519
epoch: 1000
next table: 1289
cur table: 1300
epoch: 1000
next table: 2538
cur table: 2512
epoch: 1000
next table: 1288
cur table: 1289
epoch: 1000
next table: 2513
cur table: 2538
epoch: 1000
next table: 1295
cur table: 1288
epoch: 1000
next table: 2522
cur table: 2513
epoch: 1000
next table: 1294
cur table: 1295
epoch: 1000
next table: 2511
cur table: 2522
epoch: 1000
next table: 1290
cur table: 1294
epoch: 1000
next table: 2543
cur table: 2511
epoch: 1000
next table: 1294
cur table: 1290
epoch: 1000
next table: 2511
cur table: 2543
epoch: 1000
next table: 1291
cur table: 1294
epoch: 1000
next table: 2522
cur table: 2511
epoch: 1000
next table: 1290
cur table: 1291
epoch: 1000
next table: 2512
cur table: 2522
epoch: 1000
next table: 1288
cur table: 1290
epoch: 1000
next table: 2536
cur table: 2512
epoch: 1000
next table: 1298
cur table: 1288
epoch: 1000
next table: 2514
cur table: 2536
epoch: 1000
next table: 1293
cur table: 1298
epoch: 1000
next table: 2522
cur table: 2514
epoch: 1000
next table: 1295
cur table: 1293
epoch: 1000
next table: 2512
cur table: 2522
epoch: 1000
next table: 1283
cur table: 1295
epoch: 1000
next table: 2540
cur table: 2512
epoch: 1000
next table: 1305
cur table: 1283
epoch: 1000
next table: 2512
cur table: 2540
epoch: 1000
next table: 1292
cur table: 1305
epoch: 1000
next table: 2521
cur table: 2512
epoch: 1000
next table: 1294
cur table: 1292
epoch: 1000
next table: 2512
cur table: 2521
epoch: 1000
next table: 1291
cur table: 1294
epoch: 1000
next table: 2544
cur table: 2512
epoch: 1000
next table: 1297
cur table: 1291
epoch: 1000
next table: 2513
cur table: 2544
epoch: 1000
next table: 1292
cur table: 1297
epoch: 1000
next table: 2520
cur table: 2513
epoch: 1000
next table: 1288
cur table: 1292
epoch: 1000
next table: 2511
cur table: 2520
epoch: 1000
next table: 1285
cur table: 1288
epoch: 1000
next table: 2544
cur table: 2511
epoch: 1000
next table: 1295
cur table: 1285
epoch: 1000
next table: 2512
cur table: 2544
epoch: 1000
next table: 1286
cur table: 1295
epoch: 1000
next table: 2523
cur table: 2512
epoch: 1000
next table: 1291
cur table: 1286
epoch: 1000
next table: 2511
cur table: 2523
epoch: 1000
next table: 1293
cur table: 1291
epoch: 1000
next table: 2541
cur table: 2511
epoch: 1000
next table: 1297
cur table: 1293
epoch: 1000
next table: 2513
cur table: 2541
epoch: 1000
next table: 1290
cur table: 1297
epoch: 1000
next table: 2521
cur table: 2513
epoch: 1000
next table: 1303
cur table: 1290
epoch: 1000
next table: 2514
cur table: 2521
epoch: 1000
next table: 1295
cur table: 1303
epoch: 1000
next table: 2534
cur table: 2514
epoch: 1000
next table: 1281
cur table: 1295
epoch: 1000
next table: 2513
cur table: 2534
epoch: 1000
next table: 1286
cur table: 1281
epoch: 1000
next table: 2521
cur table: 2513
epoch: 1000
next table: 1293
cur table: 1286
epoch: 1000
next table: 2513
cur table: 2521
epoch: 1000
next table: 1302
cur table: 1293
Heartbeat CPU 0 instructions: 80000002 cycles: 44509711 heartbeat IPC: 1.00176 cumulative IPC: 1.00171 (Simulation time: 0 hr 20 min 19 sec) 
epoch: 1000
next table: 2542
cur table: 2513
epoch: 1000
next table: 1286
cur table: 1302
epoch: 1000
next table: 2511
cur table: 2542
epoch: 1000
next table: 1297
cur table: 1286
epoch: 1000
next table: 2521
cur table: 2511
epoch: 1000
next table: 1288
cur table: 1297
epoch: 1000
next table: 2513
cur table: 2521
epoch: 1000
next table: 1300
cur table: 1288
epoch: 1000
next table: 2538
cur table: 2513
epoch: 1000
next table: 1293
cur table: 1300
epoch: 1000
next table: 2512
cur table: 2538
epoch: 1000
next table: 1294
cur table: 1293
epoch: 1000
next table: 2521
cur table: 2512
epoch: 1000
next table: 1282
cur table: 1294
epoch: 1000
next table: 2513
cur table: 2521
epoch: 1000
next table: 1289
cur table: 1282
epoch: 1000
next table: 2542
cur table: 2513
epoch: 1000
next table: 1300
cur table: 1289
epoch: 1000
next table: 2514
cur table: 2542
epoch: 1000
next table: 1297
cur table: 1300
epoch: 1000
next table: 2523
cur table: 2514
epoch: 1000
next table: 1282
cur table: 1297
epoch: 1000
next table: 2511
cur table: 2523
epoch: 1000
next table: 1291
cur table: 1282
epoch: 1000
next table: 2537
cur table: 2511
epoch: 1000
next table: 1291
cur table: 1291
epoch: 1000
next table: 2513
cur table: 2537
epoch: 1000
next table: 1287
cur table: 1291
epoch: 1000
next table: 2519
cur table: 2513
epoch: 1000
next table: 1274
cur table: 1287
epoch: 1000
next table: 2514
cur table: 2519
epoch: 1000
next table: 1294
cur table: 1274
epoch: 1000
next table: 2541
cur table: 2514
epoch: 1000
next table: 1296
cur table: 1294
epoch: 1000
next table: 2513
cur table: 2541
epoch: 1000
next table: 1294
cur table: 1296
epoch: 1000
next table: 2519
cur table: 2513
epoch: 1000
next table: 1293
cur table: 1294
epoch: 1000
next table: 2515
cur table: 2519
epoch: 1000
next table: 1298
cur table: 1293
epoch: 1000
next table: 2520
cur table: 2515
epoch: 1000
next table: 1304
cur table: 1298
epoch: 1000
next table: 2515
cur table: 2520
epoch: 1000
next table: 1284
cur table: 1304
epoch: 1000
next table: 2518
cur table: 2515
epoch: 1000
next table: 1290
cur table: 1284
epoch: 1000
next table: 2513
cur table: 2518
epoch: 1000
next table: 1300
cur table: 1290
epoch: 1000
next table: 2545
cur table: 2513
epoch: 1000
next table: 1289
cur table: 1300
epoch: 1000
next table: 2511
cur table: 2545
epoch: 1000
next table: 1293
cur table: 1289
epoch: 1000
next table: 2517
cur table: 2511
epoch: 1000
next table: 1294
cur table: 1293
epoch: 1000
next table: 2513
cur table: 2517
epoch: 1000
next table: 1285
cur table: 1294
epoch: 1000
next table: 2540
cur table: 2513
epoch: 1000
next table: 1288
cur table: 1285
epoch: 1000
next table: 2513
cur table: 2540
epoch: 1000
next table: 1295
cur table: 1288
epoch: 1000
next table: 2521
cur table: 2513
epoch: 1000
next table: 1293
cur table: 1295
epoch: 1000
next table: 2512
cur table: 2521
epoch: 1000
next table: 1279
cur table: 1293
epoch: 1000
next table: 2541
cur table: 2512
epoch: 1000
next table: 1304
cur table: 1279
epoch: 1000
next table: 2511
cur table: 2541
epoch: 1000
next table: 1292
cur table: 1304
epoch: 1000
next table: 2519
cur table: 2511
epoch: 1000
next table: 1295
cur table: 1292
epoch: 1000
next table: 2514
cur table: 2519
epoch: 1000
next table: 1295
cur table: 1295
epoch: 1000
next table: 2540
cur table: 2514
epoch: 1000
next table: 1290
cur table: 1295
epoch: 1000
next table: 2511
cur table: 2540
epoch: 1000
next table: 1278
cur table: 1290
epoch: 1000
next table: 2516
cur table: 2511
epoch: 1000
next table: 1309
cur table: 1278
epoch: 1000
next table: 2513
cur table: 2516
epoch: 1000
next table: 1291
cur table: 1309
epoch: 1000
next table: 2537
cur table: 2513
epoch: 1000
next table: 1285
cur table: 1291
epoch: 1000
next table: 2511
cur table: 2537
epoch: 1000
next table: 1291
cur table: 1285
epoch: 1000
next table: 2523
cur table: 2511
epoch: 1000
next table: 1283
cur table: 1291
epoch: 1000
next table: 2512
cur table: 2523
epoch: 1000
next table: 1288
cur table: 1283
epoch: 1000
next table: 2539
cur table: 2512
epoch: 1000
next table: 1296
cur table: 1288
epoch: 1000
next table: 2513
cur table: 2539
epoch: 1000
next table: 1290
cur table: 1296
epoch: 1000
next table: 2523
cur table: 2513
epoch: 1000
next table: 1283
cur table: 1290
epoch: 1000
next table: 2511
cur table: 2523
epoch: 1000
next table: 1289
cur table: 1283
epoch: 1000
next table: 2541
cur table: 2511
epoch: 1000
next table: 1290
cur table: 1289
epoch: 1000
next table: 2513
cur table: 2541
epoch: 1000
next table: 1284
cur table: 1290
epoch: 1000
next table: 2519
cur table: 2513
epoch: 1000
next table: 1297
cur table: 1284
epoch: 1000
next table: 2514
cur table: 2519
epoch: 1000
next table: 1289
cur table: 1297
epoch: 1000
next table: 2539
cur table: 2514
epoch: 1000
next table: 1294
cur table: 1289
epoch: 1000
next table: 2512
cur table: 2539
epoch: 1000
next table: 1287
cur table: 1294
epoch: 1000
next table: 2521
cur table: 2512
epoch: 1000
next table: 1293
cur table: 1287
epoch: 1000
next table: 2512
cur table: 2521
epoch: 1000
next table: 1288
cur table: 1293
epoch: 1000
next table: 2545
cur table: 2512
epoch: 1000
next table: 1307
cur table: 1288
epoch: 1000
next table: 2516
cur table: 2545
epoch: 1000
next table: 1297
cur table: 1307
epoch: 1000
next table: 2517
cur table: 2516
epoch: 1000
next table: 1291
cur table: 1297
epoch: 1000
next table: 2511
cur table: 2517
epoch: 1000
next table: 1299
cur table: 1291
epoch: 1000
next table: 2541
cur table: 2511
epoch: 1000
next table: 1292
cur table: 1299
epoch: 1000
next table: 2513
cur table: 2541
epoch: 1000
next table: 1289
cur table: 1292
epoch: 1000
next table: 2519
cur table: 2513
epoch: 1000
next table: 1298
cur table: 1289
epoch: 1000
next table: 2516
cur table: 2519
epoch: 1000
next table: 1290
cur table: 1298
epoch: 1000
next table: 2542
cur table: 2516
epoch: 1000
next table: 1299
cur table: 1290
epoch: 1000
next table: 2512
cur table: 2542
epoch: 1000
next table: 1297
cur table: 1299
epoch: 1000
next table: 2517
cur table: 2512
epoch: 1000
next table: 1285
cur table: 1297
epoch: 1000
next table: 2513
cur table: 2517
epoch: 1000
next table: 1294
cur table: 1285
epoch: 1000
next table: 2541
cur table: 2513
epoch: 1000
next table: 1285
cur table: 1294
epoch: 1000
next table: 2513
cur table: 2541
epoch: 1000
next table: 1294
cur table: 1285
epoch: 1000
next table: 2520
cur table: 2513
epoch: 1000
next table: 1297
cur table: 1294
epoch: 1000
next table: 2513
cur table: 2520
epoch: 1000
next table: 1297
cur table: 1297
epoch: 1000
next table: 2538
cur table: 2513
epoch: 1000
next table: 1291
cur table: 1297
epoch: 1000
next table: 2515
cur table: 2538
epoch: 1000
next table: 1292
cur table: 1291
epoch: 1000
next table: 2520
cur table: 2515
epoch: 1000
next table: 1299
cur table: 1292
epoch: 1000
next table: 2513
cur table: 2520
epoch: 1000
next table: 1282
cur table: 1299
epoch: 1000
next table: 2536
cur table: 2513
epoch: 1000
next table: 1286
cur table: 1282
epoch: 1000
next table: 2513
cur table: 2536
epoch: 1000
next table: 1293
cur table: 1286
epoch: 1000
next table: 2521
cur table: 2513
epoch: 1000
next table: 1290
cur table: 1293
epoch: 1000
next table: 2513
cur table: 2521
epoch: 1000
next table: 1295
cur table: 1290
epoch: 1000
next table: 2542
cur table: 2513
epoch: 1000
next table: 1310
cur table: 1295
epoch: 1000
next table: 2513
cur table: 2542
epoch: 1000
next table: 1298
cur table: 1310
epoch: 1000
next table: 2520
cur table: 2513
epoch: 1000
next table: 1286
cur table: 1298
epoch: 1000
next table: 2513
cur table: 2520
epoch: 1000
next table: 1297
cur table: 1286
epoch: 1000
next table: 2540
cur table: 2513
epoch: 1000
next table: 1284
cur table: 1297
epoch: 1000
next table: 2513
cur table: 2540
epoch: 1000
next table: 1292
cur table: 1284
epoch: 1000
next table: 2519
cur table: 2513
epoch: 1000
next table: 1294
cur table: 1292
epoch: 1000
next table: 2513
cur table: 2519
epoch: 1000
next table: 1289
cur table: 1294
Heartbeat CPU 0 instructions: 90000003 cycles: 54494249 heartbeat IPC: 1.00155 cumulative IPC: 1.00167 (Simulation time: 0 hr 22 min 35 sec) 
epoch: 1000
next table: 2544
cur table: 2513
epoch: 1000
next table: 1291
cur table: 1289
epoch: 1000
next table: 2512
cur table: 2544
epoch: 1000
next table: 1293
cur table: 1291
epoch: 1000
next table: 2516
cur table: 2512
epoch: 1000
next table: 1301
cur table: 1293
epoch: 1000
next table: 2515
cur table: 2516
epoch: 1000
next table: 1288
cur table: 1301
epoch: 1000
next table: 2535
cur table: 2515
epoch: 1000
next table: 1280
cur table: 1288
epoch: 1000
next table: 2513
cur table: 2535
epoch: 1000
next table: 1298
cur table: 1280
epoch: 1000
next table: 2521
cur table: 2513
epoch: 1000
next table: 1285
cur table: 1298
epoch: 1000
next table: 2510
cur table: 2521
epoch: 1000
next table: 1294
cur table: 1285
epoch: 1000
next table: 2537
cur table: 2510
epoch: 1000
next table: 1306
cur table: 1294
epoch: 1000
next table: 2512
cur table: 2537
epoch: 1000
next table: 1287
cur table: 1306
epoch: 1000
next table: 2523
cur table: 2512
epoch: 1000
next table: 1288
cur table: 1287
epoch: 1000
next table: 2511
cur table: 2523
epoch: 1000
next table: 1295
cur table: 1288
epoch: 1000
next table: 2539
cur table: 2511
epoch: 1000
next table: 1283
cur table: 1295
epoch: 1000
next table: 2512
cur table: 2539
epoch: 1000
next table: 1296
cur table: 1283
epoch: 1000
next table: 2521
cur table: 2512
epoch: 1000
next table: 1287
cur table: 1296
epoch: 1000
next table: 2512
cur table: 2521
epoch: 1000
next table: 1287
cur table: 1287
epoch: 1000
next table: 2538
cur table: 2512
epoch: 1000
next table: 1289
cur table: 1287
epoch: 1000
next table: 2510
cur table: 2538
epoch: 1000
next table: 1297
cur table: 1289
epoch: 1000
next table: 2523
cur table: 2510
epoch: 1000
next table: 1293
cur table: 1297
epoch: 1000
next table: 2511
cur table: 2523
epoch: 1000
next table: 1295
cur table: 1293
epoch: 1000
next table: 2515
cur table: 2511
epoch: 1000
next table: 1295
cur table: 1295
epoch: 1000
next table: 2537
cur table: 2515
epoch: 1000
next table: 1279
cur table: 1295
epoch: 1000
next table: 2512
cur table: 2537
epoch: 1000
next table: 1299
cur table: 1279
epoch: 1000
next table: 2524
cur table: 2512
epoch: 1000
next table: 1299
cur table: 1299
epoch: 1000
next table: 2511
cur table: 2524
epoch: 1000
next table: 1300
cur table: 1299
epoch: 1000
next table: 2542
cur table: 2511
epoch: 1000
next table: 1290
cur table: 1300
epoch: 1000
next table: 2513
cur table: 2542
epoch: 1000
next table: 1289
cur table: 1290
epoch: 1000
next table: 2517
cur table: 2513
epoch: 1000
next table: 1293
cur table: 1289
epoch: 1000
next table: 2515
cur table: 2517
epoch: 1000
next table: 1305
cur table: 1293
epoch: 1000
next table: 2539
cur table: 2515
epoch: 1000
next table: 1285
cur table: 1305
epoch: 1000
next table: 2512
cur table: 2539
epoch: 1000
next table: 1287
cur table: 1285
epoch: 1000
next table: 2522
cur table: 2512
epoch: 1000
next table: 1296
cur table: 1287
epoch: 1000
next table: 2512
cur table: 2522
epoch: 1000
next table: 1289
cur table: 1296
epoch: 1000
next table: 2542
cur table: 2512
epoch: 1000
next table: 1292
cur table: 1289
epoch: 1000
next table: 2512
cur table: 2542
epoch: 1000
next table: 1291
cur table: 1292
epoch: 1000
next table: 2518
cur table: 2512
epoch: 1000
next table: 1294
cur table: 1291
epoch: 1000
next table: 2514
cur table: 2518
epoch: 1000
next table: 1282
cur table: 1294
epoch: 1000
next table: 2537
cur table: 2514
epoch: 1000
next table: 1284
cur table: 1282
epoch: 1000
next table: 2512
cur table: 2537
epoch: 1000
next table: 1288
cur table: 1284
epoch: 1000
next table: 2520
cur table: 2512
epoch: 1000
next table: 1294
cur table: 1288
epoch: 1000
next table: 2514
cur table: 2520
epoch: 1000
next table: 1288
cur table: 1294
epoch: 1000
next table: 2543
cur table: 2514
epoch: 1000
next table: 1284
cur table: 1288
epoch: 1000
next table: 2511
cur table: 2543
epoch: 1000
next table: 1301
cur table: 1284
epoch: 1000
next table: 2524
cur table: 2511
epoch: 1000
next table: 1286
cur table: 1301
epoch: 1000
next table: 2510
cur table: 2524
epoch: 1000
next table: 1297
cur table: 1286
epoch: 1000
next table: 2538
cur table: 2510
epoch: 1000
next table: 1291
cur table: 1297
epoch: 1000
next table: 2512
cur table: 2538
epoch: 1000
next table: 1296
cur table: 1291
epoch: 1000
next table: 2521
cur table: 2512
epoch: 1000
next table: 1287
cur table: 1296
epoch: 1000
next table: 2512
cur table: 2521
epoch: 1000
next table: 1287
cur table: 1287
epoch: 1000
next table: 2544
cur table: 2512
epoch: 1000
next table: 1289
cur table: 1287
epoch: 1000
next table: 2514
cur table: 2544
epoch: 1000
next table: 1296
cur table: 1289
epoch: 1000
next table: 2515
cur table: 2514
epoch: 1000
next table: 1290
cur table: 1296
epoch: 1000
next table: 2514
cur table: 2515
epoch: 1000
next table: 1297
cur table: 1290
epoch: 1000
next table: 2537
cur table: 2514
epoch: 1000
next table: 1292
cur table: 1297
epoch: 1000
next table: 2513
cur table: 2537
epoch: 1000
next table: 1298
cur table: 1292
epoch: 1000
next table: 2521
cur table: 2513
epoch: 1000
next table: 1308
cur table: 1298
epoch: 1000
next table: 2515
cur table: 2521
epoch: 1000
next table: 1296
cur table: 1308
epoch: 1000
next table: 2541
cur table: 2515
epoch: 1000
next table: 1294
cur table: 1296
epoch: 1000
next table: 2513
cur table: 2541
epoch: 1000
next table: 1288
cur table: 1294
epoch: 1000
next table: 2521
cur table: 2513
epoch: 1000
next table: 1297
cur table: 1288
epoch: 1000
next table: 2513
cur table: 2521
epoch: 1000
next table: 1294
cur table: 1297
epoch: 1000
next table: 2539
cur table: 2513
epoch: 1000
next table: 1291
cur table: 1294
epoch: 1000
next table: 2513
cur table: 2539
epoch: 1000
next table: 1290
cur table: 1291
epoch: 1000
next table: 2518
cur table: 2513
epoch: 1000
next table: 1294
cur table: 1290
epoch: 1000
next table: 2514
cur table: 2518
epoch: 1000
next table: 1283
cur table: 1294
epoch: 1000
next table: 2542
cur table: 2514
epoch: 1000
next table: 1300
cur table: 1283
epoch: 1000
next table: 2513
cur table: 2542
epoch: 1000
next table: 1293
cur table: 1300
epoch: 1000
next table: 2521
cur table: 2513
epoch: 1000
next table: 1289
cur table: 1293
epoch: 1000
next table: 2511
cur table: 2521
epoch: 1000
next table: 1279
cur table: 1289
epoch: 1000
next table: 2539
cur table: 2511
epoch: 1000
next table: 1292
cur table: 1279
epoch: 1000
next table: 2514
cur table: 2539
epoch: 1000
next table: 1288
cur table: 1292
epoch: 1000
next table: 1293
cur table: 1288
epoch: 1000
next table: 2518
cur table: 2514
epoch: 1000
next table: 1289
cur table: 1293
epoch: 1000
next table: 2513
cur table: 2518
epoch: 1000
next table: 1302
cur table: 1289
epoch: 1000
next table: 2538
cur table: 2513
epoch: 1000
next table: 1294
cur table: 1302
epoch: 1000
next table: 2513
cur table: 2538
epoch: 1000
next table: 1282
cur table: 1294
epoch: 1000
next table: 2519
cur table: 2513
epoch: 1000
next table: 1288
cur table: 1282
epoch: 1000
next table: 2513
cur table: 2519
epoch: 1000
next table: 1286
cur table: 1288
epoch: 1000
next table: 2538
cur table: 2513
epoch: 1000
next table: 1288
cur table: 1286
epoch: 1000
next table: 2513
cur table: 2538
epoch: 1000
next table: 1278
cur table: 1288
epoch: 1000
next table: 2519
cur table: 2513
epoch: 1000
next table: 1293
cur table: 1278
epoch: 1000
next table: 2513
cur table: 2519
epoch: 1000
next table: 1282
cur table: 1293
epoch: 1000
next table: 2539
cur table: 2513
epoch: 1000
next table: 1292
cur table: 1282
epoch: 1000
next table: 2513
cur table: 2539
epoch: 1000
next table: 1294
cur table: 1292
epoch: 1000
next table: 2518
cur table: 2513
epoch: 1000
next table: 1296
cur table: 1294
epoch: 1000
next table: 2514
cur table: 2518
epoch: 1000
next table: 1293
cur table: 1296
epoch: 1000
next table: 2543
cur table: 2514
epoch: 1000
next table: 1298
cur table: 1293
epoch: 1000
next table: 2513
cur table: 2543
epoch: 1000
next table: 1290
cur table: 1298
epoch: 1000
next table: 2516
cur table: 2513
Heartbeat CPU 0 instructions: 100000000 cycles: 64475894 heartbeat IPC: 1.00184 cumulative IPC: 1.0017 (Simulation time: 0 hr 24 min 38 sec) 
Finished CPU 0 instructions: 50000003 cycles: 49914964 cumulative IPC: 1.0017 (Simulation time: 0 hr 24 min 38 sec) 

ChampSim completed all CPUs

Region of Interest Statistics

CPU 0 cumulative IPC: 1.0017 instructions: 50000003 cycles: 49914964
ITLB TOTAL     ACCESS:    7017805  HIT:    7017805  MISS:          0  HIT %:        100  MISS %:          0   MPKI: 0
ITLB LOAD TRANSLATION ACCESS:    7017805  HIT:    7017805  MISS:          0  HIT %:        100  MISS %:          0   MPKI: 0
ITLB PREFETCH  REQUESTED:          0  ISSUED:          0  USEFUL:          0  USELESS:          0
ITLB USEFUL LOAD PREFETCHES:          0 PREFETCH ISSUED TO LOWER LEVEL:          0  ACCURACY: -nan
ITLB TIMELY PREFETCHES:          0 LATE PREFETCHES: 0 DROPPED PREFETCHES: 0
ITLB PREFETCHES SAME FILL-ORIGIN LEVEL: 0 DIFFERENT FILL-ORIGIN LEVEL: 0
ITLB AVERAGE MISS LATENCY: -nan cycles
ITLB RQ	ACCESS:    8772860	FORWARD:          0	MERGED:    1755055	TO_CACHE:    7017805

Revised Interactions: positive negative neutral
ITLB_interactions 0 0 0 -nan -nan -nan
DTLB TOTAL     ACCESS:    7829325  HIT:    7817639  MISS:      11686  HIT %:    99.8507  MISS %:   0.149259   MPKI: 0.23372
DTLB LOAD TRANSLATION ACCESS:    7829325  HIT:    7817639  MISS:      11686  HIT %:    99.8507  MISS %:   0.149259   MPKI: 0.23372
DTLB PREFETCH  REQUESTED:          0  ISSUED:          0  USEFUL:          0  USELESS:          0
DTLB USEFUL LOAD PREFETCHES:          0 PREFETCH ISSUED TO LOWER LEVEL:          0  ACCURACY: -nan
DTLB TIMELY PREFETCHES:          0 LATE PREFETCHES: 0 DROPPED PREFETCHES: 0
DTLB PREFETCHES SAME FILL-ORIGIN LEVEL: 0 DIFFERENT FILL-ORIGIN LEVEL: 0
DTLB AVERAGE MISS LATENCY: 89.6813 cycles
DTLB RQ	ACCESS:   12272256	FORWARD:          0	MERGED:    4442231	TO_CACHE:    7830025

Revised Interactions: positive negative neutral
DTLB_interactions 0 0 0 -nan -nan -nan
STLB TOTAL     ACCESS:      11686  HIT:       4825  MISS:       6861  HIT %:    41.2887  MISS %:    58.7113   MPKI: 0.13722
STLB LOAD TRANSLATION ACCESS:      11686  HIT:       4825  MISS:       6861  HIT %:    41.2887  MISS %:    58.7113   MPKI: 0.13722
STLB PREFETCH  REQUESTED:          0  ISSUED:          0  USEFUL:          0  USELESS:          0
STLB USEFUL LOAD PREFETCHES:          0 PREFETCH ISSUED TO LOWER LEVEL:          0  ACCURACY: -nan
STLB TIMELY PREFETCHES:          0 LATE PREFETCHES: 0 DROPPED PREFETCHES: 0
STLB PREFETCHES SAME FILL-ORIGIN LEVEL: 0 DIFFERENT FILL-ORIGIN LEVEL: 0
STLB AVERAGE MISS LATENCY: 137.1 cycles
STLB RQ	ACCESS:      11686	FORWARD:          0	MERGED:          0	TO_CACHE:      11686

Revised Interactions: positive negative neutral
STLB_interactions 0 0 0 -nan -nan -nan
STLB Hit, L1D data hit: 0
STLB Hit, L2C data hit: 0
STLB Hit, LLC data hit: 0
STLB Hit, LLC data miss: 0
STLB STLB hints to L2: 0
L1D TOTAL     ACCESS:   12118464  HIT:   11456790  MISS:     661674  HIT %:      94.54  MISS %:    5.46005   MPKI: 13.2335
L1D LOAD      ACCESS:    8609375  HIT:    7948356  MISS:     661019  HIT %:    92.3221  MISS %:     7.6779   MPKI: 13.2204
L1D RFO       ACCESS:    3509089  HIT:    3508434  MISS:        655  HIT %:    99.9813  MISS %:  0.0186658   MPKI: 0.0131
L1D PREFETCH  REQUESTED:          0  ISSUED:          0  USEFUL:          0  USELESS:          0
L1D USEFUL LOAD PREFETCHES:          0 PREFETCH ISSUED TO LOWER LEVEL:          0  ACCURACY: -nan
L1D TIMELY PREFETCHES:          0 LATE PREFETCHES: 0 DROPPED PREFETCHES: 0
L1D PREFETCHES SAME FILL-ORIGIN LEVEL: 0 DIFFERENT FILL-ORIGIN LEVEL: 0
L1D AVERAGE MISS LATENCY: 24.1411 cycles
L1D RQ	ACCESS:   17541469	FORWARD:          0	MERGED:    8779401	TO_CACHE:    8761990
L1D WQ	ACCESS:    3510266	FORWARD:         78	MERGED:          0	TO_CACHE:    3510266

Revised Interactions: positive negative neutral
L1D_interactions 0 0 0 -nan -nan -nan
L1D UNIQUE REGIONS ACCESSED: 0
L1D REGIONS CONFLICTS: 0
L1D Cross Page Prefetch Requests: 0
L1D Same Page Prefetch Requests: 0
L1D ROI Sum of L1D PQ occupancy: 0
L1D PREFETCHES PUSHED FROM L2C: 0
L1I TOTAL     ACCESS:    8772859  HIT:    8772859  MISS:          0  HIT %:        100  MISS %:          0   MPKI: 0
L1I LOAD      ACCESS:    8772859  HIT:    8772859  MISS:          0  HIT %:        100  MISS %:          0   MPKI: 0
L1I PREFETCH  REQUESTED:          0  ISSUED:          0  USEFUL:          0  USELESS:          0
L1I USEFUL LOAD PREFETCHES:          0 PREFETCH ISSUED TO LOWER LEVEL:          0  ACCURACY: -nan
L1I TIMELY PREFETCHES:          0 LATE PREFETCHES: 0 DROPPED PREFETCHES: 0
L1I PREFETCHES SAME FILL-ORIGIN LEVEL: 0 DIFFERENT FILL-ORIGIN LEVEL: 0
L1I AVERAGE MISS LATENCY: -nan cycles
L1I RQ	ACCESS:   11407557	FORWARD:          0	MERGED:    2634697	TO_CACHE:    8772860

Revised Interactions: positive negative neutral
L1I_interactions 0 0 0 -nan -nan -nan
BTB TOTAL     ACCESS:     877288  HIT:     877279  MISS:          9  HIT %:     99.999  MISS %: 0.00102589   MPKI: 0.00018
BTB BRANCH_DIRECT_JUMP	ACCESS:        218  HIT:        216  MISS:          2
BTB BRANCH_INDIRECT	ACCESS:          0  HIT:          0  MISS:          0
BTB BRANCH_CONDITIONAL	ACCESS:     876634  HIT:     876631  MISS:          3
BTB BRANCH_DIRECT_CALL	ACCESS:        218  HIT:        216  MISS:          2
BTB BRANCH_INDIRECT_CALL	ACCESS:          0  HIT:          0  MISS:          0
BTB BRANCH_RETURN	ACCESS:        218  HIT:        216  MISS:          2
BTB BRANCH_OTHER ACCESS:          0  HIT:          0  MISS:          0

L2C TOTAL     ACCESS:    3415099  HIT:    2975416  MISS:     439683  HIT %:    87.1253  MISS %:    12.8747   MPKI: 8.79366
L2C LOAD      ACCESS:     661018  HIT:     527547  MISS:     133471  HIT %:    79.8083  MISS %:    20.1917   MPKI: 2.66942
L2C DATA LOAD MPKI: 2.66942
L2C INSTRUCTION LOAD MPKI: 0
L2C RFO       ACCESS:        655  HIT:        654  MISS:          1  HIT %:    99.8473  MISS %:   0.152672   MPKI: 2e-05
L2C PREFETCH  ACCESS:    2307204  HIT:    2002088  MISS:     305116  HIT %:    86.7755  MISS %:    13.2245   MPKI: 6.10232
L2C DATA PREFETCH MPKI: 6.10232
L2C INSTRUCTION PREFETCH MPKI: 0
L2C WRITEBACK ACCESS:     439354  HIT:     439154  MISS:        200  HIT %:    99.9545  MISS %:  0.0455214   MPKI: 0.004
L2C LOAD TRANSLATION ACCESS:       6868  HIT:       5973  MISS:        895  HIT %:    86.9685  MISS %:    13.0315   MPKI: 0.0179
L2C PREFETCH  REQUESTED:    6759718  ISSUED:    6459865  USEFUL:     305016  USELESS:        101
L2C USEFUL LOAD PREFETCHES:     305016 PREFETCH ISSUED TO LOWER LEVEL:    4442497  ACCURACY: 6.86587
L2C TIMELY PREFETCHES:     305016 LATE PREFETCHES: 5698 DROPPED PREFETCHES: 0
L2C PREFETCHES SAME FILL-ORIGIN LEVEL: 310814 DIFFERENT FILL-ORIGIN LEVEL: 4131683
L2C AVERAGE MISS LATENCY: 36.249 cycles
L2C RQ	ACCESS:     668542	FORWARD:          0	MERGED:          0	TO_CACHE:     668542
L2C WQ	ACCESS:     439354	FORWARD:          0	MERGED:          0	TO_CACHE:     439354
L2C PQ	ACCESS:    6459865	FORWARD:          0	MERGED:      14907	TO_CACHE:    6444958

Revised Interactions: positive negative neutral
L2C_interactions 303807 261 40 99.901 0.0858248 0.0131532
L2C Instructions Evicting Data 0
L2C Translations Evicting Data 894
L2C Data Evicting Data 437700
L2C Instructions Evicting Instructions 0
L2C Translations Evicting Instructions 0
L2C Data Evicting Instructions 0
L2C Instructions Evicting Translations 0
L2C Translations Evicting Translations 1
L2C Data Evicting Translations 888
L2C Dense regions hint from L2: 0
PSCL5 TOTAL     ACCESS:       6861  HIT:       6861  MISS:          0  HIT %:        100  MISS %:          0   MPKI: 0
PSCL5 LOAD TRANSLATION ACCESS:       6861  HIT:       6861  MISS:          0  HIT %:        100  MISS %:          0   MPKI: 0
PSCL5 PREFETCH  REQUESTED:          0  ISSUED:          0  USEFUL:          0  USELESS:          0
PSCL5 USEFUL LOAD PREFETCHES:          0 PREFETCH ISSUED TO LOWER LEVEL:          0  ACCURACY: -nan
PSCL5 TIMELY PREFETCHES:          0 LATE PREFETCHES: 0 DROPPED PREFETCHES: 0
PSCL5 PREFETCHES SAME FILL-ORIGIN LEVEL: 0 DIFFERENT FILL-ORIGIN LEVEL: 0

Revised Interactions: positive negative neutral
PSCL5_interactions 0 0 0 -nan -nan -nan
PSCL4 TOTAL     ACCESS:       6861  HIT:       6861  MISS:          0  HIT %:        100  MISS %:          0   MPKI: 0
PSCL4 LOAD TRANSLATION ACCESS:       6861  HIT:       6861  MISS:          0  HIT %:        100  MISS %:          0   MPKI: 0
PSCL4 PREFETCH  REQUESTED:          0  ISSUED:          0  USEFUL:          0  USELESS:          0
PSCL4 USEFUL LOAD PREFETCHES:          0 PREFETCH ISSUED TO LOWER LEVEL:          0  ACCURACY: -nan
PSCL4 TIMELY PREFETCHES:          0 LATE PREFETCHES: 0 DROPPED PREFETCHES: 0
PSCL4 PREFETCHES SAME FILL-ORIGIN LEVEL: 0 DIFFERENT FILL-ORIGIN LEVEL: 0

Revised Interactions: positive negative neutral
PSCL4_interactions 0 0 0 -nan -nan -nan
PSCL3 TOTAL     ACCESS:       6710  HIT:       6705  MISS:          5  HIT %:    99.9255  MISS %:  0.0745156   MPKI: 0.0001
PSCL3 LOAD TRANSLATION ACCESS:       6710  HIT:       6705  MISS:          5  HIT %:    99.9255  MISS %:  0.0745156   MPKI: 0.0001
PSCL3 PREFETCH  REQUESTED:          0  ISSUED:          0  USEFUL:          0  USELESS:          0
PSCL3 USEFUL LOAD PREFETCHES:          0 PREFETCH ISSUED TO LOWER LEVEL:          0  ACCURACY: -nan
PSCL3 TIMELY PREFETCHES:          0 LATE PREFETCHES: 0 DROPPED PREFETCHES: 0
PSCL3 PREFETCHES SAME FILL-ORIGIN LEVEL: 0 DIFFERENT FILL-ORIGIN LEVEL: 0

Revised Interactions: positive negative neutral
PSCL3_interactions 0 0 0 -nan -nan -nan
PSCL2 TOTAL     ACCESS:       6861  HIT:       6837  MISS:         24  HIT %:    99.6502  MISS %:   0.349803   MPKI: 0.00048
PSCL2 LOAD TRANSLATION ACCESS:       6861  HIT:       6837  MISS:         24  HIT %:    99.6502  MISS %:   0.349803   MPKI: 0.00048
PSCL2 PREFETCH  REQUESTED:          0  ISSUED:          0  USEFUL:          0  USELESS:          0
PSCL2 USEFUL LOAD PREFETCHES:          0 PREFETCH ISSUED TO LOWER LEVEL:          0  ACCURACY: -nan
PSCL2 TIMELY PREFETCHES:          0 LATE PREFETCHES: 0 DROPPED PREFETCHES: 0
PSCL2 PREFETCHES SAME FILL-ORIGIN LEVEL: 0 DIFFERENT FILL-ORIGIN LEVEL: 0

Revised Interactions: positive negative neutral
PSCL2_interactions 0 0 0 -nan -nan -nan
LLC TOTAL     ACCESS:    4775635  HIT:    4206727  MISS:     568908  HIT %:    88.0873  MISS %:    11.9127   MPKI: 11.3782
LLC LOAD      ACCESS:     127773  HIT:     115753  MISS:      12020  HIT %:    90.5927  MISS %:    9.40731   MPKI: 0.2404
LLC RFO       ACCESS:          1  HIT:          1  MISS:          0  HIT %:        100  MISS %:          0   MPKI: 0
LLC PREFETCH  ACCESS:    4208699  HIT:    3781076  MISS:     427623  HIT %:    89.8395  MISS %:    10.1605   MPKI: 8.55246
LLC WRITEBACK ACCESS:     438267  HIT:     309895  MISS:     128372  HIT %:    70.7092  MISS %:    29.2908   MPKI: 2.56744
LLC LOAD TRANSLATION ACCESS:        895  HIT:          2  MISS:        893  HIT %:   0.223464  MISS %:    99.7765   MPKI: 0.01786
LLC PREFETCH  REQUESTED:          0  ISSUED:          0  USEFUL:     115739  USELESS:     311920
LLC USEFUL LOAD PREFETCHES:     115739 PREFETCH ISSUED TO LOWER LEVEL:     428707  ACCURACY: 26.9972
LLC TIMELY PREFETCHES:     115739 LATE PREFETCHES: 1081 DROPPED PREFETCHES: 0
LLC PREFETCHES SAME FILL-ORIGIN LEVEL: 423618 DIFFERENT FILL-ORIGIN LEVEL: 0
LLC AVERAGE MISS LATENCY: 123.554 cycles
LLC RQ	ACCESS:     128669	FORWARD:          0	MERGED:          0	TO_CACHE:     128669
LLC WQ	ACCESS:     438267	FORWARD:          0	MERGED:          0	TO_CACHE:     438267
LLC PQ	ACCESS:    4442497	FORWARD:          0	MERGED:       1409	TO_CACHE:    4441088

Revised Interactions: positive negative neutral
LLC_interactions 114297 311845 3055 26.6304 72.6578 0.711794
LLC Dense regions hint to LLC: 0

RAW hits: 789
Loads Generated: 17542260
Loads sent to L1D: 17541469
Stores Generated: 3510260
Stores sent to L1D: 3510266
Major fault: 0 Minor fault: 13836
Allocated PAGES: 13836
 All Calls: 1322063
 Critical Calls: 1322063
------------------
Depth Distribution
------------------
depth 0: 0
depth 1: 1287769
depth 2: 1264784
depth 3: 1241460
depth 4: 1213141
depth 5: 1176283
depth 6: 1139345
depth 7: 1089790
depth 8: 1034998
depth 9: 866091
depth 10: 815454
depth 11: 659412
depth 12: 510134
depth 13: 282100
depth 14: 81674
depth 15: 78357
depth 16: 77
depth 17: 0
depth 18: 0
depth 19: 0
depth 20: 0
depth 21: 0
depth 22: 0
depth 23: 0
depth 24: 0
depth 25: 0
depth 26: 0
depth 27: 0
depth 28: 0
depth 29: 0
Total: 12740869
-----------------------------
-----------------------------
	Captured at Filter
-----------------------------
depth 0: 0
depth 1: 10694
depth 2: 10393
depth 3: 10352
depth 4: 10203
depth 5: 10342
depth 6: 10003
depth 7: 9973
depth 8: 9963
depth 9: 8847
depth 10: 8374
depth 11: 7196
depth 12: 5941
depth 13: 3184
depth 14: 860
depth 15: 839
depth 16: 0
depth 17: 0
depth 18: 0
depth 19: 0
depth 20: 0
depth 21: 0
depth 22: 0
depth 23: 0
depth 24: 0
depth 25: 0
depth 26: 0
depth 27: 0
depth 28: 0
depth 29: 0
-----------------------------
-----------------------------
		Lost at Page
-----------------------------
depth 0: 0
depth 1: 20513
depth 2: 40998
depth 3: 61488
depth 4: 81981
depth 5: 102467
depth 6: 122852
depth 7: 142759
depth 8: 162110
depth 9: 158659
depth 10: 174543
depth 11: 164445
depth 12: 147163
depth 13: 93448
depth 14: 30471
depth 15: 32626
depth 16: 28
depth 17: 0
depth 18: 0
depth 19: 0
depth 20: 0
depth 21: 0
depth 22: 0
depth 23: 0
depth 24: 0
depth 25: 0
depth 26: 0
depth 27: 0
depth 28: 0
depth 29: 0
-----------------------------
-----------------------------
	Lost due to PQ Size
-----------------------------
799143
-----------------------------
ST read accesses: 654158
ST write accesses: 6860
PT read accesses: 41221191
PT write accesses: 979391
FILTER read accesses: 7918157
FILTER write accesses: 1383265
GHR read accesses: 4952517
GHR write accesses: 767082
GHR counter read accesses: 34297324
GHR counter write accesses: 1605119
ST tag read accesses: 247557388
ST tag write accesses: 3368320

DRAM Statistics
 CHANNEL 0
 RQ ROW_BUFFER_HIT:      88251  ROW_BUFFER_MISS:     352287
 DBUS_CONGESTED:        235
 WQ ROW_BUFFER_HIT:      54100  ROW_BUFFER_MISS:     384332  FULL:          0

 AVG_CONGESTED_CYCLE: 5
 All warmup complete: 2
Channel 0 Bank busy for read cycles: 0
Channel 0 Bank busy for write cycles: 0
Channel 0
Rank 0
0banks busy for read cycles: 7910680
0banks busy for write cycles: 35743
1banks busy for read cycles: 6215455
1banks busy for write cycles: 3792957
2banks busy for read cycles: 8682291
2banks busy for write cycles: 2210668
3banks busy for read cycles: 5041817
3banks busy for write cycles: 2088200
4banks busy for read cycles: 1052309
4banks busy for write cycles: 2203346
5banks busy for read cycles: 1094314
5banks busy for write cycles: 2256043
6banks busy for read cycles: 228654
6banks busy for write cycles: 2157140
7banks busy for read cycles: 287740
7banks busy for write cycles: 2012488
8banks busy for read cycles: 685756
8banks busy for write cycles: 1959364

CPU 0 Branch Prediction Accuracy: 99.9751% MPKI: 0.00438 Average ROB Occupancy at Mispredict: 63.7626
Branch types
NOT_BRANCH: 49121639 98.2433%
BRANCH_DIRECT_JUMP: 218 0.000436%
BRANCH_INDIRECT: 0 0%
BRANCH_CONDITIONAL: 877398 1.7548%
BRANCH_DIRECT_CALL: 218 0.000436%
BRANCH_INDIRECT_CALL: 0 0%
BRANCH_RETURN: 218 0.000436%
BRANCH_OTHER: 0 0%

@sumon_overall_L1D         0         0         0         0         0         0         0
@Sumon_Early_by_class_L1D         0         0         0         0
@Sumon_Late_by_class_L1D         0         0         0         0

@Sumon_Early_by_cycle_L1D         0         0         0         0         0         0         0         0         0         0         0         0
@Sumon_Late_by_cycle_L1D         0         0         0         0         0         0
@Sumon_Early_stream_L1D         0         0         0         0         0         0         0         0         0         0         0         0
@Sumon_Early_CS_L1D         0         0         0         0         0         0         0         0         0         0         0         0
@Sumon_Early_CPLX_L1D         0         0         0         0         0         0         0         0         0         0         0         0
@Sumon_Late_stream_L1D         0         0         0         0         0         0
@Sumon_Late_CS_L1D         0         0         0         0         0         0
@Sumon_Late_CPLX_L1D         0         0         0         0         0         0
@sumon_overall_L2C    305016      5698         0       101    305116   6459865   6759718
@Sumon_Early_by_class_L2C         0         0         0         0
@Sumon_Late_by_class_L2C         0         0         0         0

@Sumon_Early_by_cycle_L2C    286568     17828       464         0         0         0         0         0         0         0         0       156
@Sumon_Late_by_cycle_L2C       674      1928       435        25      2636         0
@Sumon_Early_stream_L2C         0         0         0         0         0         0         0         0         0         0         0         0
@Sumon_Early_CS_L2C         0         0         0         0         0         0         0         0         0         0         0         0
@Sumon_Early_CPLX_L2C         0         0         0         0         0         0         0         0         0         0         0         0
@Sumon_Late_stream_L2C         0         0         0         0         0         0
@Sumon_Late_CS_L2C         0         0         0         0         0         0
@Sumon_Late_CPLX_L2C         0         0         0         0         0         0
DRAM PAGES: 1048576
Allocated PAGES: 13836
